TITL C-951340-9809-544 -1.88694112971054e-06 125000 -555.000924176519 0 0 88 (C1) n - 1
REM
REM in /home/bkarasulu/work/CARBON/AIRSS/Generating-Clusters/EDIP-Nigel-Params/with-SteepDescent/Only-C1/SD-CG/HFTN-CG
REM
REM
REM
REM
REM
REM ./C.cell (11c1c37f851c82e70ff6c80c92926a4b)
REM
REM compiler GCC version 9.2.1 20190827 (Red Hat 9.2.1-1)
REM options -cpp -mtune=generic -march=x86-64 -g -O0 -fpre-include=/usr/include/finclude/math-vector-fortran.h
REM seed -1137533607 -2114525706 342250412 -295865759 -750073782 -1751887449 1719608675 1840684069 553095608 1905342071 1023280526 1894920031 -935195569 -2120254464 159801116 -1164499774 -2091330795 -1235827107 -1947421137 -953790955 -1958516554 1420441037 614898161 -892030126 524574772 -704965949 1094699978 1340362985 -1232290795 -236959350 -568271577 -1383712944 -686842084
REM
CELL 1.54180   50.00000   50.00000   50.00000   90.00000   90.00000   90.00000
LATT -1
SFAC C  
C      1  0.5651430000000  0.4971790000000  0.5554320000000 1.0
C      1  0.4778980000000  0.5163600000000  0.4422000000000 1.0
C      1  0.5205770000000  0.4848510000000  0.4878800000000 1.0
C      1  0.4351570000000  0.4832320000000  0.5044620000000 1.0
C      1  0.4329060000000  0.5504220000000  0.4888370000000 1.0
C      1  0.5080750000000  0.5550450000000  0.5475690000000 1.0
C      1  0.4966890000000  0.4995300000000  0.5867270000000 1.0
C      1  0.4513070000000  0.5137060000000  0.5823330000000 1.0
C      1  0.5563480000000  0.4671720000000  0.5555390000000 1.0
C      1  0.5356980000000  0.5469290000000  0.5502080000000 1.0
C      1  0.4182340000000  0.5241360000000  0.4881900000000 1.0
C      1  0.5629070000000  0.5587230000000  0.5061600000000 1.0
C      1  0.5663260000000  0.4993710000000  0.5019040000000 1.0
C      1  0.4373160000000  0.4623950000000  0.5264950000000 1.0
C      1  0.4624730000000  0.4663470000000  0.4357620000000 1.0
C      1  0.5097960000000  0.4491240000000  0.5737510000000 1.0
C      1  0.4382550000000  0.5014990000000  0.5607960000000 1.0
C      1  0.4773650000000  0.4908100000000  0.4273080000000 1.0
C      1  0.5542950000000  0.5617500000000  0.4589610000000 1.0
C      1  0.5373120000000  0.4360960000000  0.5183230000000 1.0
C      1  0.5594240000000  0.4533040000000  0.4804240000000 1.0
C      1  0.5581170000000  0.4529260000000  0.5305010000000 1.0
C      1  0.4620520000000  0.5590680000000  0.5481700000000 1.0
C      1  0.5155130000000  0.4382260000000  0.4728500000000 1.0
C      1  0.5609060000000  0.4871070000000  0.4464010000000 1.0
C      1  0.5531120000000  0.4597490000000  0.4520750000000 1.0
C      1  0.4647080000000  0.4909530000000  0.5018310000000 1.0
C      1  0.4976490000000  0.4554670000000  0.5197320000000 1.0
C      1  0.5661410000000  0.5127940000000  0.5285450000000 1.0
C      1  0.4631060000000  0.5737310000000  0.4591180000000 1.0
C      1  0.4476120000000  0.4748320000000  0.5521700000000 1.0
C      1  0.5026600000000  0.5915770000000  0.4798020000000 1.0
C      1  0.5515800000000  0.5882530000000  0.4697840000000 1.0
C      1  0.4903440000000  0.5778310000000  0.4589610000000 1.0
C      1  0.4580730000000  0.5225430000000  0.4645060000000 1.0
C      1  0.4775260000000  0.4239700000000  0.4540250000000 1.0
C      1  0.4544100000000  0.4626830000000  0.4647570000000 1.0
C      1  0.4562560000000  0.4261570000000  0.4988670000000 1.0
C      1  0.4865920000000  0.4645940000000  0.5844200000000 1.0
C      1  0.5404140000000  0.4324460000000  0.4894000000000 1.0
C      1  0.4705770000000  0.4358540000000  0.5489020000000 1.0
C      1  0.5148750000000  0.4224350000000  0.5305270000000 1.0
C      1  0.4546050000000  0.5430610000000  0.5085880000000 1.0
C      1  0.5312410000000  0.5480570000000  0.4453220000000 1.0
C      1  0.5678770000000  0.5444230000000  0.4789800000000 1.0
C      1  0.5007840000000  0.4607800000000  0.4892990000000 1.0
C      1  0.4774300000000  0.4816440000000  0.5274800000000 1.0
C      1  0.5195110000000  0.4742890000000  0.5317500000000 1.0
C      1  0.5207720000000  0.5185300000000  0.4400150000000 1.0
C      1  0.4990640000000  0.4284890000000  0.5543200000000 1.0
C      1  0.5050350000000  0.5599530000000  0.4411790000000 1.0
C      1  0.4338910000000  0.5186520000000  0.5381090000000 1.0
C      1  0.5226220000000  0.5043410000000  0.4127880000000 1.0
C      1  0.4298420000000  0.4778190000000  0.4745070000000 1.0
C      1  0.4217630000000  0.5080870000000  0.5134280000000 1.0
C      1  0.4781410000000  0.5215210000000  0.5803860000000 1.0
C      1  0.5472100000000  0.5117760000000  0.5749600000000 1.0
C      1  0.4759810000000  0.4744390000000  0.4806220000000 1.0
C      1  0.5648540000000  0.4927560000000  0.4194870000000 1.0
C      1  0.5473090000000  0.4991250000000  0.4002930000000 1.0
C      1  0.4553170000000  0.4330930000000  0.4715710000000 1.0
C      1  0.5163810000000  0.5820590000000  0.5021490000000 1.0
C      1  0.4716240000000  0.5677730000000  0.5205730000000 1.0
C      1  0.4625720000000  0.4556970000000  0.5695200000000 1.0
C      1  0.4566010000000  0.4407790000000  0.5228300000000 1.0
C      1  0.5017960000000  0.4826140000000  0.4120760000000 1.0
C      1  0.5466890000000  0.5397340000000  0.5748440000000 1.0
C      1  0.5224690000000  0.4965990000000  0.5734060000000 1.0
C      1  0.5382230000000  0.5014990000000  0.4602180000000 1.0
C      1  0.4362780000000  0.5463930000000  0.5428280000000 1.0
C      1  0.5081540000000  0.4543680000000  0.4242070000000 1.0
C      1  0.5270510000000  0.4704200000000  0.5603380000000 1.0
C      1  0.4840750000000  0.5429460000000  0.5603270000000 1.0
C      1  0.4302650000000  0.5067600000000  0.4655480000000 1.0
C      1  0.4803560000000  0.4429540000000  0.4305510000000 1.0
C      1  0.5072290000000  0.5094110000000  0.5027790000000 1.0
C      1  0.5243920000000  0.4541250000000  0.4492260000000 1.0
C      1  0.4717930000000  0.5203660000000  0.4934330000000 1.0
C      1  0.5293220000000  0.5292670000000  0.5018640000000 1.0
C      1  0.5456990000000  0.5821070000000  0.4973110000000 1.0
C      1  0.5516800000000  0.5188480000000  0.4833840000000 1.0
C      1  0.4469010000000  0.5515270000000  0.4628520000000 1.0
C      1  0.5489390000000  0.4749680000000  0.5004020000000 1.0
C      1  0.4893290000000  0.5390910000000  0.4292550000000 1.0
C      1  0.5488830000000  0.5380870000000  0.5246140000000 1.0
C      1  0.5027900000000  0.4986160000000  0.5296060000000 1.0
C      1  0.5008280000000  0.5668460000000  0.5219270000000 1.0
C      1  0.5007090000000  0.4141330000000  0.4662450000000 1.0
END
