TITL C-950525-1983-658 -2.1464828363154e-06 125000 -1187.59671749222 0 0 190 (C1) n - 1
REM
REM in /home/bkarasulu/work/CARBON/AIRSS/Generating-Clusters/EDIP-Nigel-Params/with-SteepDescent/Only-C1/SD-CG/HFTN-CG
REM
REM
REM
REM
REM
REM ./C.cell (11c1c37f851c82e70ff6c80c92926a4b)
REM
REM compiler GCC version 9.2.1 20190827 (Red Hat 9.2.1-1)
REM options -cpp -mtune=generic -march=x86-64 -g -O0 -fpre-include=/usr/include/finclude/math-vector-fortran.h
REM seed 1151620141 800701858 -1266486436 -1659241390 1098287419 354288670 -655938775 1444990266 -416985218 1786999993 1994070783 -1486153142 253500531 1708214020 -1335410129 1251051668 628764941 -6219080 -1610158339 1742743189 1418675912 2108653186 -1671689188 -1169018585 47882164 -464832337 561004822 -1627433866 1335777769 -1037531244 -248812309 -126237740 602958725
REM
CELL 1.54180   50.00000   50.00000   50.00000   90.00000   90.00000   90.00000
LATT -1
SFAC C  
C      1  0.4056400000000  0.5089890000000  0.4404640000000 1.0
C      1  0.4308880000000  0.5219090000000  0.5959350000000 1.0
C      1  0.4358840000000  0.5458570000000  0.4251200000000 1.0
C      1  0.6188450000000  0.5102870000000  0.4757380000000 1.0
C      1  0.5305170000000  0.5444420000000  0.4030090000000 1.0
C      1  0.6167990000000  0.5148480000000  0.5051700000000 1.0
C      1  0.4178970000000  0.4223470000000  0.5467710000000 1.0
C      1  0.6109360000000  0.4914590000000  0.5224410000000 1.0
C      1  0.5114580000000  0.4598000000000  0.5819450000000 1.0
C      1  0.5235700000000  0.6179810000000  0.4923100000000 1.0
C      1  0.4153300000000  0.5879030000000  0.5376810000000 1.0
C      1  0.3922130000000  0.5100330000000  0.5135410000000 1.0
C      1  0.4412440000000  0.5094070000000  0.4561420000000 1.0
C      1  0.4874610000000  0.5789770000000  0.5220280000000 1.0
C      1  0.4740270000000  0.5718950000000  0.4322880000000 1.0
C      1  0.4884180000000  0.3823960000000  0.4723130000000 1.0
C      1  0.4487500000000  0.4912110000000  0.4171610000000 1.0
C      1  0.5277520000000  0.4630670000000  0.3951800000000 1.0
C      1  0.4454750000000  0.5701670000000  0.4375540000000 1.0
C      1  0.5576880000000  0.4974060000000  0.5463230000000 1.0
C      1  0.5712050000000  0.5370620000000  0.5853400000000 1.0
C      1  0.4413730000000  0.5394980000000  0.4681430000000 1.0
C      1  0.4656410000000  0.5436230000000  0.4890290000000 1.0
C      1  0.4749760000000  0.5154110000000  0.4963980000000 1.0
C      1  0.5478080000000  0.5632740000000  0.4731290000000 1.0
C      1  0.5653910000000  0.5902370000000  0.5455870000000 1.0
C      1  0.5605620000000  0.5760280000000  0.4492740000000 1.0
C      1  0.4606630000000  0.5074800000000  0.3974800000000 1.0
C      1  0.5085980000000  0.5648700000000  0.5053870000000 1.0
C      1  0.5673770000000  0.4766610000000  0.5022160000000 1.0
C      1  0.3909010000000  0.4736200000000  0.4734020000000 1.0
C      1  0.4917340000000  0.5940150000000  0.4402870000000 1.0
C      1  0.5611640000000  0.4726840000000  0.5871250000000 1.0
C      1  0.4496660000000  0.4184890000000  0.5432500000000 1.0
C      1  0.4967950000000  0.6221440000000  0.4864630000000 1.0
C      1  0.5975740000000  0.5363010000000  0.5076940000000 1.0
C      1  0.5957240000000  0.5368970000000  0.4363910000000 1.0
C      1  0.5152810000000  0.3863310000000  0.4625500000000 1.0
C      1  0.5881710000000  0.5093400000000  0.4259710000000 1.0
C      1  0.4470350000000  0.4121360000000  0.4994720000000 1.0
C      1  0.5302370000000  0.3959580000000  0.5080510000000 1.0
C      1  0.5417020000000  0.5187070000000  0.4987220000000 1.0
C      1  0.5297610000000  0.4480360000000  0.5615720000000 1.0
C      1  0.5893210000000  0.5450820000000  0.4822600000000 1.0
C      1  0.4189690000000  0.5518680000000  0.5106860000000 1.0
C      1  0.5548970000000  0.5177330000000  0.5980590000000 1.0
C      1  0.6003840000000  0.5497750000000  0.5543310000000 1.0
C      1  0.5130930000000  0.5305690000000  0.4514060000000 1.0
C      1  0.4570930000000  0.4642930000000  0.4183580000000 1.0
C      1  0.4272120000000  0.4706960000000  0.5926600000000 1.0
C      1  0.4877190000000  0.5250310000000  0.4399930000000 1.0
C      1  0.4865640000000  0.6105040000000  0.4628950000000 1.0
C      1  0.4821900000000  0.4772060000000  0.4595080000000 1.0
C      1  0.4938290000000  0.4999470000000  0.6064000000000 1.0
C      1  0.5331540000000  0.3820220000000  0.4836370000000 1.0
C      1  0.4814910000000  0.5342330000000  0.5384330000000 1.0
C      1  0.4665100000000  0.4912890000000  0.5921640000000 1.0
C      1  0.5607170000000  0.5360450000000  0.4764030000000 1.0
C      1  0.4202540000000  0.4885810000000  0.4229370000000 1.0
C      1  0.4491720000000  0.4482000000000  0.5320840000000 1.0
C      1  0.4547490000000  0.5874090000000  0.5024480000000 1.0
C      1  0.5359680000000  0.4260870000000  0.5102020000000 1.0
C      1  0.5716690000000  0.5747580000000  0.5225290000000 1.0
C      1  0.4503080000000  0.4942440000000  0.5441490000000 1.0
C      1  0.5582800000000  0.5181450000000  0.4505810000000 1.0
C      1  0.4829070000000  0.5618850000000  0.5446310000000 1.0
C      1  0.5527460000000  0.4692770000000  0.5602660000000 1.0
C      1  0.5787660000000  0.5597980000000  0.4351230000000 1.0
C      1  0.6091340000000  0.5358120000000  0.4627900000000 1.0
C      1  0.5232720000000  0.4872790000000  0.4340010000000 1.0
C      1  0.5964930000000  0.4525540000000  0.5371620000000 1.0
C      1  0.5624210000000  0.5054390000000  0.4091060000000 1.0
C      1  0.4269950000000  0.5762140000000  0.4606860000000 1.0
C      1  0.5799760000000  0.4497260000000  0.4421680000000 1.0
C      1  0.4278880000000  0.4850530000000  0.4729110000000 1.0
C      1  0.4626880000000  0.4625440000000  0.5795660000000 1.0
C      1  0.5137680000000  0.4189510000000  0.4196100000000 1.0
C      1  0.5300510000000  0.5069490000000  0.4540710000000 1.0
C      1  0.3885290000000  0.5007350000000  0.4643760000000 1.0
C      1  0.4970840000000  0.5185210000000  0.5188100000000 1.0
C      1  0.5547820000000  0.5800400000000  0.4987500000000 1.0
C      1  0.4921250000000  0.4134770000000  0.5324230000000 1.0
C      1  0.4090810000000  0.5802670000000  0.5101200000000 1.0
C      1  0.4859900000000  0.4576980000000  0.4169620000000 1.0
C      1  0.5210340000000  0.5661490000000  0.5667750000000 1.0
C      1  0.4619890000000  0.4674450000000  0.5497010000000 1.0
C      1  0.4970700000000  0.5304080000000  0.6089950000000 1.0
C      1  0.4176250000000  0.4346370000000  0.4731170000000 1.0
C      1  0.4911380000000  0.4185960000000  0.5759380000000 1.0
C      1  0.5041280000000  0.5428360000000  0.3950670000000 1.0
C      1  0.4776890000000  0.4128610000000  0.5022940000000 1.0
C      1  0.6033210000000  0.4866760000000  0.4366520000000 1.0
C      1  0.5880260000000  0.5018190000000  0.5517480000000 1.0
C      1  0.4083520000000  0.5388740000000  0.4342030000000 1.0
C      1  0.4394790000000  0.4958620000000  0.6044580000000 1.0
C      1  0.5032410000000  0.4657250000000  0.4414780000000 1.0
C      1  0.5589710000000  0.4329990000000  0.4296000000000 1.0
C      1  0.5212000000000  0.5435640000000  0.6164700000000 1.0
C      1  0.3909560000000  0.4627170000000  0.5005310000000 1.0
C      1  0.4514340000000  0.5565790000000  0.5144880000000 1.0
C      1  0.6017800000000  0.4748540000000  0.5561770000000 1.0
C      1  0.5359060000000  0.5444210000000  0.5468870000000 1.0
C      1  0.5815580000000  0.4218740000000  0.4949360000000 1.0
C      1  0.6083620000000  0.4618170000000  0.4804840000000 1.0
C      1  0.4870620000000  0.4456600000000  0.5858110000000 1.0
C      1  0.4719000000000  0.5066270000000  0.4589820000000 1.0
C      1  0.4086040000000  0.4393470000000  0.5009620000000 1.0
C      1  0.4422180000000  0.5795960000000  0.5451030000000 1.0
C      1  0.5014060000000  0.5209610000000  0.3774020000000 1.0
C      1  0.4682980000000  0.3977480000000  0.4573040000000 1.0
C      1  0.5958360000000  0.4677280000000  0.5085410000000 1.0
C      1  0.3938200000000  0.4820380000000  0.5226210000000 1.0
C      1  0.4923180000000  0.5607820000000  0.4818370000000 1.0
C      1  0.4827630000000  0.5681620000000  0.5730710000000 1.0
C      1  0.4110080000000  0.5222490000000  0.5547220000000 1.0
C      1  0.4820950000000  0.5455740000000  0.4169890000000 1.0
C      1  0.4969800000000  0.6036780000000  0.5381220000000 1.0
C      1  0.4992670000000  0.4712830000000  0.3934300000000 1.0
C      1  0.5212010000000  0.5379000000000  0.5153660000000 1.0
C      1  0.5113380000000  0.5032770000000  0.5607560000000 1.0
C      1  0.5506250000000  0.4711760000000  0.4776720000000 1.0
C      1  0.4937520000000  0.4341490000000  0.4869800000000 1.0
C      1  0.3990140000000  0.5154200000000  0.4864750000000 1.0
C      1  0.5171430000000  0.5794800000000  0.4407400000000 1.0
C      1  0.4685940000000  0.4069540000000  0.5625100000000 1.0
C      1  0.5199060000000  0.5965130000000  0.5566300000000 1.0
C      1  0.5735720000000  0.4344580000000  0.5426120000000 1.0
C      1  0.5214390000000  0.4118150000000  0.4480330000000 1.0
C      1  0.5420220000000  0.5922940000000  0.4358170000000 1.0
C      1  0.4735000000000  0.4252920000000  0.4485800000000 1.0
C      1  0.5372070000000  0.5172250000000  0.5579160000000 1.0
C      1  0.4133150000000  0.5404580000000  0.4827500000000 1.0
C      1  0.4118870000000  0.4715960000000  0.5681120000000 1.0
C      1  0.4881710000000  0.4597760000000  0.5003560000000 1.0
C      1  0.4031540000000  0.5324560000000  0.5290180000000 1.0
C      1  0.4193800000000  0.4941680000000  0.5490490000000 1.0
C      1  0.5570290000000  0.4991870000000  0.5163810000000 1.0
C      1  0.4561810000000  0.5360900000000  0.4047870000000 1.0
C      1  0.5358920000000  0.5993140000000  0.5092140000000 1.0
C      1  0.4882760000000  0.5416970000000  0.5837330000000 1.0
C      1  0.5279450000000  0.4933890000000  0.4806430000000 1.0
C      1  0.4615700000000  0.4520120000000  0.4631760000000 1.0
C      1  0.5385260000000  0.4415490000000  0.4803610000000 1.0
C      1  0.5146980000000  0.4386420000000  0.5338690000000 1.0
C      1  0.5415360000000  0.6045770000000  0.5382610000000 1.0
C      1  0.4280800000000  0.5907770000000  0.4883190000000 1.0
C      1  0.4863640000000  0.5215250000000  0.5634250000000 1.0
C      1  0.5067430000000  0.4914280000000  0.5328990000000 1.0
C      1  0.5509270000000  0.4131530000000  0.4487350000000 1.0
C      1  0.4877050000000  0.3755580000000  0.5012470000000 1.0
C      1  0.5510420000000  0.5315730000000  0.4162710000000 1.0
C      1  0.4078440000000  0.4154300000000  0.5195990000000 1.0
C      1  0.5436900000000  0.4920070000000  0.5973600000000 1.0
C      1  0.5150530000000  0.4884640000000  0.5877450000000 1.0
C      1  0.4996170000000  0.4633590000000  0.5266160000000 1.0
C      1  0.5489180000000  0.4808520000000  0.4212410000000 1.0
C      1  0.5664610000000  0.4197300000000  0.5660980000000 1.0
C      1  0.4817420000000  0.6267570000000  0.5106730000000 1.0
C      1  0.4597970000000  0.6038690000000  0.5475850000000 1.0
C      1  0.4625380000000  0.5077280000000  0.5683710000000 1.0
C      1  0.4988730000000  0.4814520000000  0.4833170000000 1.0
C      1  0.5059370000000  0.3871330000000  0.5220790000000 1.0
C      1  0.4261490000000  0.5382320000000  0.5730510000000 1.0
C      1  0.4861700000000  0.4285710000000  0.4212420000000 1.0
C      1  0.4533880000000  0.5022160000000  0.5133220000000 1.0
C      1  0.4884520000000  0.4996760000000  0.3900980000000 1.0
C      1  0.4126710000000  0.4523340000000  0.5433850000000 1.0
C      1  0.4275290000000  0.3955480000000  0.5127210000000 1.0
C      1  0.5644300000000  0.4224320000000  0.5181270000000 1.0
C      1  0.4570860000000  0.4547320000000  0.5011790000000 1.0
C      1  0.5961750000000  0.4404390000000  0.4649870000000 1.0
C      1  0.5267310000000  0.5605960000000  0.5953420000000 1.0
C      1  0.5912870000000  0.5545400000000  0.5280440000000 1.0
C      1  0.4279400000000  0.5671580000000  0.5679950000000 1.0
C      1  0.4215290000000  0.4596980000000  0.4308310000000 1.0
C      1  0.5637220000000  0.4125920000000  0.4745360000000 1.0
C      1  0.4377280000000  0.4144350000000  0.4728030000000 1.0
C      1  0.5342480000000  0.4401540000000  0.4129250000000 1.0
C      1  0.6071580000000  0.4863040000000  0.4647500000000 1.0
C      1  0.5940220000000  0.5262520000000  0.5696040000000 1.0
C      1  0.5132450000000  0.4377620000000  0.4635340000000 1.0
C      1  0.5170800000000  0.4066890000000  0.5782620000000 1.0
C      1  0.5394690000000  0.4232540000000  0.5732370000000 1.0
C      1  0.5623290000000  0.5558430000000  0.5610450000000 1.0
C      1  0.4026060000000  0.5569490000000  0.4582810000000 1.0
C      1  0.5674480000000  0.4764600000000  0.4474910000000 1.0
C      1  0.4418190000000  0.4802760000000  0.4987450000000 1.0
C      1  0.4584450000000  0.6121970000000  0.5194830000000 1.0
C      1  0.4311650000000  0.4575690000000  0.4586650000000 1.0
C      1  0.5165730000000  0.5581690000000  0.4623400000000 1.0
END
