TITL C-951338-5626-580 -2.93169607620234e-05 125000 -297.51405246607 0 0 50 (C1) n - 1
REM
REM in /home/bkarasulu/work/CARBON/AIRSS/Generating-Clusters/EDIP-Nigel-Params/with-SteepDescent/Only-C1/SD-CG/HFTN-CG
REM
REM
REM
REM
REM
REM ./C.cell (11c1c37f851c82e70ff6c80c92926a4b)
REM
REM compiler GCC version 9.2.1 20190827 (Red Hat 9.2.1-1)
REM options -cpp -mtune=generic -march=x86-64 -g -O0 -fpre-include=/usr/include/finclude/math-vector-fortran.h
REM seed 1356309060 -1787325072 -1722674021 -481715709 -154112299 -2052127869 -653207075 -258185148 -840594611 -24821813 1076455060 1258880613 -1841001304 -285833135 1447172239 -807370506 -1393853498 -816920197 1944050071 1017232248 -296478747 -1280950496 -253836239 159148569 1404006469 1846622861 908415434 350447518 1702224453 -1610926998 1439253874 -471337118 -383957744
REM
CELL 1.54180   50.00000   50.00000   50.00000   90.00000   90.00000   90.00000
LATT -1
SFAC C  
C      1  0.5043190000000  0.4334430000000  0.5440540000000 1.0
C      1  0.4836570000000  0.4521410000000  0.5568830000000 1.0
C      1  0.4313130000000  0.5117070000000  0.4732200000000 1.0
C      1  0.4746790000000  0.4517970000000  0.4884010000000 1.0
C      1  0.5501780000000  0.5422970000000  0.5032580000000 1.0
C      1  0.5165380000000  0.5105010000000  0.4433730000000 1.0
C      1  0.4608160000000  0.5647450000000  0.4943000000000 1.0
C      1  0.5085110000000  0.4784920000000  0.5120330000000 1.0
C      1  0.5438430000000  0.4537790000000  0.5437630000000 1.0
C      1  0.4246110000000  0.5384220000000  0.4755790000000 1.0
C      1  0.5097070000000  0.5187110000000  0.5368040000000 1.0
C      1  0.5397620000000  0.4812110000000  0.5484120000000 1.0
C      1  0.4623340000000  0.5836940000000  0.5160620000000 1.0
C      1  0.4523580000000  0.5791020000000  0.5422200000000 1.0
C      1  0.4768580000000  0.4679280000000  0.4657680000000 1.0
C      1  0.5601440000000  0.4976010000000  0.5385030000000 1.0
C      1  0.4336250000000  0.4969270000000  0.4963850000000 1.0
C      1  0.4508570000000  0.4879530000000  0.5165230000000 1.0
C      1  0.4624800000000  0.5092520000000  0.5336000000000 1.0
C      1  0.4865790000000  0.5213080000000  0.5198650000000 1.0
C      1  0.5704250000000  0.4978210000000  0.5125020000000 1.0
C      1  0.4972960000000  0.4220510000000  0.5193180000000 1.0
C      1  0.4718100000000  0.4680420000000  0.5118210000000 1.0
C      1  0.4359010000000  0.5618900000000  0.4820630000000 1.0
C      1  0.5268730000000  0.5519980000000  0.4939220000000 1.0
C      1  0.5144870000000  0.4973560000000  0.4904950000000 1.0
C      1  0.4926440000000  0.4986770000000  0.4351350000000 1.0
C      1  0.5728810000000  0.4730350000000  0.4996860000000 1.0
C      1  0.5376530000000  0.4686830000000  0.4580380000000 1.0
C      1  0.4517030000000  0.5058960000000  0.4557090000000 1.0
C      1  0.5123410000000  0.4895540000000  0.5395550000000 1.0
C      1  0.5044020000000  0.5434160000000  0.4780770000000 1.0
C      1  0.5636980000000  0.5195470000000  0.4944980000000 1.0
C      1  0.4911960000000  0.4803250000000  0.5591390000000 1.0
C      1  0.4701990000000  0.4990480000000  0.5591750000000 1.0
C      1  0.5571140000000  0.4500220000000  0.4981040000000 1.0
C      1  0.4923820000000  0.5168480000000  0.4892280000000 1.0
C      1  0.4910530000000  0.4267880000000  0.5689020000000 1.0
C      1  0.4790510000000  0.5808890000000  0.5388120000000 1.0
C      1  0.5171910000000  0.4302660000000  0.4770310000000 1.0
C      1  0.4942660000000  0.5521940000000  0.4322840000000 1.0
C      1  0.4939580000000  0.4296270000000  0.4925340000000 1.0
C      1  0.4830920000000  0.5645130000000  0.4754650000000 1.0
C      1  0.5509520000000  0.4381200000000  0.5226530000000 1.0
C      1  0.5124540000000  0.5389730000000  0.4493970000000 1.0
C      1  0.5317690000000  0.4959840000000  0.4649710000000 1.0
C      1  0.5567010000000  0.5100850000000  0.4692220000000 1.0
C      1  0.4759550000000  0.5644180000000  0.4482650000000 1.0
C      1  0.4779670000000  0.4960000000000  0.4597920000000 1.0
C      1  0.5394160000000  0.4469220000000  0.4752020000000 1.0
END
