TITL C-951340-9809-536 -8.51499665820691e-07 125000 -921.720104306076 0 0 147 (C1) n - 1
REM
REM in /home/bkarasulu/work/CARBON/AIRSS/Generating-Clusters/EDIP-Nigel-Params/with-SteepDescent/Only-C1/SD-CG/HFTN-CG
REM
REM
REM
REM
REM
REM ./C.cell (11c1c37f851c82e70ff6c80c92926a4b)
REM
REM compiler GCC version 9.2.1 20190827 (Red Hat 9.2.1-1)
REM options -cpp -mtune=generic -march=x86-64 -g -O0 -fpre-include=/usr/include/finclude/math-vector-fortran.h
REM seed 1719110173 1056332298 1403612121 -1251883670 -598118060 -689714424 2074076175 -1272132259 -1361247915 2061494717 -973086845 -1518332315 -1833291388 1535002195 -705641773 -11648947 -530984401 1335764188 -565279603 -1922511766 -2072945584 -1745532887 -852738967 -1397080134 1682681642 2133735041 815548867 1204202493 1264306391 229226760 -917333589 -1819211539 1761590326
REM
CELL 1.54180   50.00000   50.00000   50.00000   90.00000   90.00000   90.00000
LATT -1
SFAC C  
C      1  0.5457630000000  0.4731190000000  0.4730560000000 1.0
C      1  0.5175610000000  0.4351250000000  0.4983510000000 1.0
C      1  0.5121240000000  0.5953510000000  0.4441730000000 1.0
C      1  0.4905650000000  0.4763860000000  0.5395860000000 1.0
C      1  0.4529980000000  0.5081410000000  0.5512110000000 1.0
C      1  0.5428230000000  0.4567260000000  0.4276680000000 1.0
C      1  0.5032290000000  0.4874140000000  0.4433560000000 1.0
C      1  0.4421900000000  0.5109170000000  0.4217610000000 1.0
C      1  0.4647290000000  0.4178640000000  0.4316160000000 1.0
C      1  0.6052250000000  0.4867960000000  0.5248620000000 1.0
C      1  0.4750550000000  0.4546230000000  0.5946870000000 1.0
C      1  0.5740340000000  0.4928500000000  0.5600780000000 1.0
C      1  0.5105190000000  0.5553500000000  0.5319650000000 1.0
C      1  0.5282580000000  0.4637690000000  0.4963130000000 1.0
C      1  0.4480250000000  0.5872380000000  0.5017920000000 1.0
C      1  0.5201250000000  0.4345710000000  0.5914630000000 1.0
C      1  0.4763820000000  0.4921150000000  0.6018230000000 1.0
C      1  0.5208890000000  0.5221010000000  0.6015990000000 1.0
C      1  0.5070390000000  0.4301300000000  0.4051300000000 1.0
C      1  0.4387450000000  0.5043950000000  0.5778430000000 1.0
C      1  0.4461040000000  0.4202340000000  0.4946610000000 1.0
C      1  0.5851420000000  0.5316630000000  0.5346600000000 1.0
C      1  0.5233340000000  0.4721910000000  0.3859090000000 1.0
C      1  0.4530550000000  0.4921490000000  0.4776630000000 1.0
C      1  0.5212650000000  0.5512300000000  0.4667630000000 1.0
C      1  0.5149220000000  0.5584310000000  0.4358160000000 1.0
C      1  0.4954120000000  0.3976410000000  0.4852150000000 1.0
C      1  0.5126800000000  0.5968000000000  0.5419170000000 1.0
C      1  0.4926900000000  0.6051860000000  0.4911210000000 1.0
C      1  0.4946910000000  0.4185390000000  0.4276120000000 1.0
C      1  0.4230250000000  0.5409880000000  0.4581600000000 1.0
C      1  0.4674820000000  0.4403540000000  0.5708270000000 1.0
C      1  0.4990140000000  0.5339590000000  0.4244330000000 1.0
C      1  0.5364440000000  0.4824170000000  0.4447590000000 1.0
C      1  0.5361040000000  0.4240460000000  0.5463530000000 1.0
C      1  0.4579250000000  0.3996560000000  0.4520150000000 1.0
C      1  0.5597140000000  0.4423900000000  0.5463600000000 1.0
C      1  0.4376700000000  0.5233550000000  0.5047160000000 1.0
C      1  0.5165190000000  0.4179860000000  0.4724070000000 1.0
C      1  0.4637190000000  0.5884970000000  0.4544540000000 1.0
C      1  0.5168520000000  0.4773860000000  0.5794890000000 1.0
C      1  0.6000280000000  0.4493010000000  0.5197980000000 1.0
C      1  0.5444640000000  0.4142830000000  0.4617840000000 1.0
C      1  0.5142700000000  0.4361920000000  0.5610140000000 1.0
C      1  0.5807970000000  0.5024880000000  0.5329970000000 1.0
C      1  0.5174400000000  0.5188420000000  0.4059810000000 1.0
C      1  0.5329460000000  0.5156250000000  0.5135320000000 1.0
C      1  0.5450640000000  0.5060550000000  0.5981880000000 1.0
C      1  0.5401940000000  0.5559960000000  0.4200130000000 1.0
C      1  0.4397570000000  0.4338150000000  0.5665850000000 1.0
C      1  0.5265450000000  0.4507550000000  0.4036470000000 1.0
C      1  0.4516260000000  0.4139130000000  0.5222890000000 1.0
C      1  0.5462400000000  0.5296680000000  0.5562970000000 1.0
C      1  0.5007440000000  0.3972850000000  0.5148430000000 1.0
C      1  0.5421860000000  0.5719830000000  0.5677470000000 1.0
C      1  0.4946430000000  0.5157040000000  0.4496990000000 1.0
C      1  0.5554790000000  0.4956110000000  0.5150510000000 1.0
C      1  0.6050710000000  0.5081020000000  0.4593360000000 1.0
C      1  0.6012470000000  0.5459070000000  0.4871490000000 1.0
C      1  0.4963020000000  0.5006300000000  0.5809660000000 1.0
C      1  0.4343750000000  0.4489020000000  0.4902310000000 1.0
C      1  0.4190510000000  0.5696510000000  0.4640280000000 1.0
C      1  0.4854260000000  0.5917710000000  0.5377290000000 1.0
C      1  0.5510800000000  0.5487160000000  0.4733570000000 1.0
C      1  0.5320530000000  0.4140210000000  0.5184790000000 1.0
C      1  0.5091500000000  0.4913690000000  0.4002730000000 1.0
C      1  0.4655960000000  0.5598170000000  0.4487530000000 1.0
C      1  0.4514720000000  0.5373750000000  0.5474170000000 1.0
C      1  0.5446360000000  0.5266060000000  0.4140190000000 1.0
C      1  0.4035990000000  0.5216370000000  0.4734910000000 1.0
C      1  0.4717920000000  0.5790290000000  0.5582500000000 1.0
C      1  0.4589270000000  0.4673220000000  0.4213840000000 1.0
C      1  0.4846740000000  0.5229260000000  0.5003790000000 1.0
C      1  0.4314030000000  0.4813190000000  0.4589750000000 1.0
C      1  0.4812970000000  0.4179800000000  0.5269690000000 1.0
C      1  0.5036260000000  0.4575600000000  0.5988600000000 1.0
C      1  0.5603000000000  0.5138030000000  0.5747650000000 1.0
C      1  0.4582230000000  0.5146230000000  0.5980210000000 1.0
C      1  0.5533320000000  0.5107590000000  0.4377190000000 1.0
C      1  0.5579250000000  0.5716990000000  0.4361690000000 1.0
C      1  0.4872130000000  0.4253660000000  0.5555600000000 1.0
C      1  0.5044530000000  0.5683280000000  0.4904820000000 1.0
C      1  0.6122490000000  0.4689330000000  0.5046140000000 1.0
C      1  0.5496210000000  0.4333550000000  0.4420040000000 1.0
C      1  0.4641690000000  0.5114300000000  0.4039240000000 1.0
C      1  0.4748700000000  0.5390170000000  0.5880980000000 1.0
C      1  0.4510950000000  0.5466150000000  0.5201270000000 1.0
C      1  0.5260970000000  0.5300680000000  0.5366300000000 1.0
C      1  0.5673410000000  0.5733700000000  0.4793870000000 1.0
C      1  0.5726930000000  0.4404650000000  0.5201830000000 1.0
C      1  0.4093820000000  0.5312700000000  0.5007680000000 1.0
C      1  0.4830100000000  0.4687550000000  0.5121840000000 1.0
C      1  0.5485700000000  0.5960030000000  0.4786190000000 1.0
C      1  0.4857920000000  0.5509500000000  0.5106320000000 1.0
C      1  0.4078830000000  0.5593790000000  0.5054030000000 1.0
C      1  0.4510510000000  0.5425500000000  0.4711520000000 1.0
C      1  0.4740950000000  0.5386880000000  0.4078050000000 1.0
C      1  0.5610060000000  0.4675350000000  0.5639680000000 1.0
C      1  0.4818610000000  0.4994520000000  0.5538060000000 1.0
C      1  0.5571720000000  0.5765480000000  0.5435020000000 1.0
C      1  0.4119350000000  0.4841720000000  0.5297690000000 1.0
C      1  0.5955170000000  0.5342570000000  0.4617100000000 1.0
C      1  0.5455560000000  0.4429520000000  0.6005670000000 1.0
C      1  0.5638330000000  0.4112250000000  0.4810530000000 1.0
C      1  0.4202770000000  0.4555470000000  0.5709770000000 1.0
C      1  0.4610760000000  0.5549820000000  0.5677030000000 1.0
C      1  0.5032500000000  0.4333710000000  0.4513800000000 1.0
C      1  0.5739600000000  0.5566860000000  0.5265250000000 1.0
C      1  0.5464140000000  0.4703060000000  0.5891270000000 1.0
C      1  0.4404720000000  0.5870810000000  0.4732670000000 1.0
C      1  0.5161210000000  0.4662120000000  0.5500630000000 1.0
C      1  0.4589030000000  0.4456860000000  0.4427090000000 1.0
C      1  0.5609010000000  0.4164160000000  0.5078770000000 1.0
C      1  0.5406020000000  0.4697810000000  0.5249610000000 1.0
C      1  0.4691400000000  0.5176620000000  0.4744630000000 1.0
C      1  0.5865900000000  0.5659860000000  0.5013430000000 1.0
C      1  0.5033430000000  0.4804110000000  0.4924770000000 1.0
C      1  0.4050290000000  0.4574140000000  0.4919450000000 1.0
C      1  0.4810170000000  0.4870870000000  0.4114040000000 1.0
C      1  0.4896300000000  0.4397340000000  0.5085850000000 1.0
C      1  0.4900070000000  0.5995020000000  0.4631180000000 1.0
C      1  0.4317610000000  0.5692600000000  0.5175530000000 1.0
C      1  0.4530520000000  0.5540050000000  0.4226050000000 1.0
C      1  0.5893350000000  0.4927610000000  0.4751660000000 1.0
C      1  0.5313520000000  0.5733720000000  0.5044150000000 1.0
C      1  0.4295020000000  0.5361490000000  0.4289020000000 1.0
C      1  0.5363830000000  0.5906450000000  0.5279220000000 1.0
C      1  0.4348340000000  0.4516270000000  0.4599980000000 1.0
C      1  0.5155480000000  0.5623010000000  0.5691770000000 1.0
C      1  0.4044170000000  0.4905520000000  0.4711250000000 1.0
C      1  0.5410750000000  0.5936590000000  0.4500640000000 1.0
C      1  0.4807020000000  0.4460280000000  0.4635920000000 1.0
C      1  0.4914470000000  0.4735400000000  0.4663910000000 1.0
C      1  0.5154630000000  0.5226250000000  0.4683510000000 1.0
C      1  0.4750800000000  0.5941810000000  0.5106910000000 1.0
C      1  0.4325300000000  0.4263710000000  0.5397810000000 1.0
C      1  0.5047440000000  0.5426780000000  0.5883530000000 1.0
C      1  0.4534260000000  0.4758940000000  0.5032500000000 1.0
C      1  0.4114910000000  0.4587440000000  0.5435020000000 1.0
C      1  0.3962190000000  0.4802030000000  0.5061250000000 1.0
C      1  0.5639730000000  0.4905490000000  0.4863890000000 1.0
C      1  0.4297330000000  0.4786620000000  0.5833780000000 1.0
C      1  0.4692240000000  0.4132280000000  0.4754610000000 1.0
C      1  0.4362990000000  0.4845700000000  0.4299480000000 1.0
C      1  0.5103430000000  0.5104620000000  0.4946340000000 1.0
C      1  0.4389750000000  0.4965130000000  0.5231460000000 1.0
C      1  0.5668770000000  0.5377490000000  0.4503910000000 1.0
END
