TITL C-950524-1808-606 -1.40684230316761e-06 125000 -1189.67093760339 0 0 188 (C1) n - 1
REM
REM in /home/bkarasulu/work/CARBON/AIRSS/Generating-Clusters/EDIP-Nigel-Params/with-SteepDescent/Only-C1/SD-CG/HFTN-CG
REM
REM
REM
REM
REM
REM ./C.cell (11c1c37f851c82e70ff6c80c92926a4b)
REM
REM compiler GCC version 9.2.1 20190827 (Red Hat 9.2.1-1)
REM options -cpp -mtune=generic -march=x86-64 -g -O0 -fpre-include=/usr/include/finclude/math-vector-fortran.h
REM seed -802604026 747647759 -1836035948 -335195810 525642224 -594163408 -1374445753 2026041792 28195648 178103018 -2032006165 1865836989 1863048242 -1399091995 -1117490169 -1619197324 1109004411 2131799626 1647213074 546862726 1122359134 250756557 -2023616662 -1956516430 941170135 -2103629628 -2147211547 207503982 -1778219679 332282095 -41292381 -1065906310 1567283352
REM
CELL 1.54180   50.00000   50.00000   50.00000   90.00000   90.00000   90.00000
LATT -1
SFAC C  
C      1  0.5533550000000  0.5623560000000  0.4343020000000 1.0
C      1  0.5598940000000  0.4661090000000  0.4104520000000 1.0
C      1  0.4045870000000  0.4825680000000  0.5638290000000 1.0
C      1  0.4942300000000  0.4332560000000  0.4469550000000 1.0
C      1  0.5196310000000  0.4543290000000  0.6013820000000 1.0
C      1  0.5185080000000  0.3880270000000  0.4637620000000 1.0
C      1  0.5614770000000  0.4252480000000  0.4852440000000 1.0
C      1  0.5151760000000  0.4810790000000  0.4307570000000 1.0
C      1  0.5723350000000  0.4342850000000  0.4590510000000 1.0
C      1  0.4869580000000  0.4727330000000  0.5785230000000 1.0
C      1  0.4040380000000  0.5472140000000  0.4663270000000 1.0
C      1  0.5853770000000  0.4652670000000  0.4216860000000 1.0
C      1  0.5897880000000  0.4588480000000  0.4743690000000 1.0
C      1  0.5345480000000  0.4222030000000  0.5692680000000 1.0
C      1  0.5289080000000  0.5411880000000  0.6035790000000 1.0
C      1  0.4498910000000  0.5331590000000  0.4066200000000 1.0
C      1  0.5291530000000  0.4695100000000  0.5535700000000 1.0
C      1  0.4666450000000  0.4285030000000  0.4086490000000 1.0
C      1  0.4783070000000  0.5970290000000  0.5299500000000 1.0
C      1  0.5133890000000  0.4489580000000  0.4082840000000 1.0
C      1  0.5143920000000  0.5503270000000  0.4488090000000 1.0
C      1  0.4456880000000  0.5120150000000  0.4558730000000 1.0
C      1  0.5710500000000  0.5382940000000  0.5714980000000 1.0
C      1  0.4615150000000  0.4051600000000  0.5204950000000 1.0
C      1  0.4448960000000  0.4242120000000  0.4255620000000 1.0
C      1  0.4786830000000  0.4936480000000  0.4837720000000 1.0
C      1  0.5564550000000  0.5351200000000  0.4936210000000 1.0
C      1  0.5478140000000  0.4996010000000  0.5904830000000 1.0
C      1  0.5618150000000  0.5137940000000  0.4231000000000 1.0
C      1  0.4328360000000  0.4425240000000  0.4432910000000 1.0
C      1  0.4302900000000  0.5864250000000  0.4745840000000 1.0
C      1  0.5320480000000  0.5000720000000  0.5612240000000 1.0
C      1  0.4979080000000  0.4338210000000  0.5948790000000 1.0
C      1  0.4206630000000  0.4589330000000  0.5698490000000 1.0
C      1  0.5148350000000  0.4122290000000  0.5328790000000 1.0
C      1  0.4955910000000  0.5021020000000  0.6152270000000 1.0
C      1  0.5089500000000  0.5116940000000  0.3821600000000 1.0
C      1  0.5168580000000  0.6070690000000  0.5701040000000 1.0
C      1  0.4457210000000  0.4859360000000  0.4113950000000 1.0
C      1  0.4962180000000  0.4244600000000  0.4186350000000 1.0
C      1  0.5361670000000  0.4004570000000  0.4396220000000 1.0
C      1  0.4228670000000  0.5053380000000  0.5645510000000 1.0
C      1  0.3962520000000  0.5729810000000  0.5084670000000 1.0
C      1  0.4751850000000  0.6093970000000  0.4834370000000 1.0
C      1  0.4715170000000  0.5506620000000  0.5079220000000 1.0
C      1  0.4697870000000  0.4423910000000  0.4813140000000 1.0
C      1  0.4494060000000  0.5966780000000  0.5215130000000 1.0
C      1  0.5315350000000  0.4310840000000  0.4870970000000 1.0
C      1  0.4709130000000  0.4324710000000  0.5117510000000 1.0
C      1  0.4786840000000  0.5449510000000  0.4799800000000 1.0
C      1  0.5421150000000  0.5136400000000  0.4777370000000 1.0
C      1  0.5990490000000  0.5542540000000  0.5227080000000 1.0
C      1  0.5058860000000  0.4155820000000  0.5715960000000 1.0
C      1  0.5693650000000  0.5661510000000  0.5626270000000 1.0
C      1  0.4919950000000  0.5998770000000  0.5791240000000 1.0
C      1  0.4351790000000  0.5770870000000  0.5379670000000 1.0
C      1  0.4986670000000  0.5668140000000  0.4705260000000 1.0
C      1  0.4063590000000  0.4359230000000  0.5584290000000 1.0
C      1  0.5121420000000  0.5245980000000  0.6196690000000 1.0
C      1  0.4180250000000  0.5332590000000  0.5691190000000 1.0
C      1  0.5311330000000  0.5803180000000  0.4296670000000 1.0
C      1  0.5785730000000  0.4314600000000  0.5088980000000 1.0
C      1  0.4677560000000  0.5288440000000  0.5286420000000 1.0
C      1  0.4001020000000  0.4721100000000  0.4701920000000 1.0
C      1  0.4767870000000  0.5454650000000  0.5530590000000 1.0
C      1  0.5871480000000  0.4923640000000  0.5635440000000 1.0
C      1  0.3896570000000  0.4474920000000  0.5350570000000 1.0
C      1  0.4915530000000  0.4682480000000  0.3956730000000 1.0
C      1  0.5169990000000  0.4693190000000  0.4589940000000 1.0
C      1  0.5169540000000  0.3901300000000  0.5143670000000 1.0
C      1  0.5077910000000  0.3963880000000  0.4262630000000 1.0
C      1  0.5986980000000  0.5630410000000  0.4944830000000 1.0
C      1  0.5714600000000  0.4857220000000  0.5127610000000 1.0
C      1  0.5416020000000  0.6036380000000  0.5242570000000 1.0
C      1  0.4910660000000  0.5305050000000  0.5751700000000 1.0
C      1  0.5237820000000  0.5369400000000  0.5260980000000 1.0
C      1  0.4750830000000  0.4774470000000  0.5343970000000 1.0
C      1  0.5220200000000  0.6033230000000  0.5009830000000 1.0
C      1  0.4503690000000  0.5967610000000  0.4927030000000 1.0
C      1  0.3969930000000  0.5174370000000  0.5073820000000 1.0
C      1  0.5007790000000  0.5050750000000  0.5611740000000 1.0
C      1  0.4859360000000  0.5936860000000  0.4603230000000 1.0
C      1  0.5305260000000  0.5927460000000  0.5495870000000 1.0
C      1  0.5990870000000  0.4704650000000  0.5489020000000 1.0
C      1  0.6019730000000  0.4837950000000  0.4342280000000 1.0
C      1  0.5429370000000  0.4432480000000  0.4144310000000 1.0
C      1  0.4649690000000  0.5893470000000  0.4392100000000 1.0
C      1  0.5177610000000  0.4040890000000  0.4896000000000 1.0
C      1  0.4719440000000  0.4323920000000  0.5620600000000 1.0
C      1  0.4166130000000  0.5022610000000  0.4319840000000 1.0
C      1  0.4915070000000  0.5704070000000  0.5188810000000 1.0
C      1  0.3947510000000  0.4895750000000  0.5132050000000 1.0
C      1  0.4188590000000  0.5527030000000  0.4413130000000 1.0
C      1  0.4414900000000  0.5474410000000  0.5790860000000 1.0
C      1  0.5138200000000  0.5484800000000  0.5802980000000 1.0
C      1  0.4700400000000  0.5464520000000  0.4258780000000 1.0
C      1  0.5057510000000  0.5567660000000  0.5431830000000 1.0
C      1  0.4776920000000  0.4600890000000  0.4412400000000 1.0
C      1  0.4031880000000  0.4460950000000  0.4814870000000 1.0
C      1  0.4945240000000  0.5192310000000  0.4837340000000 1.0
C      1  0.4997260000000  0.4337630000000  0.5173440000000 1.0
C      1  0.4677760000000  0.5072830000000  0.6044860000000 1.0
C      1  0.5832750000000  0.4465810000000  0.5571430000000 1.0
C      1  0.5910870000000  0.5191380000000  0.4655890000000 1.0
C      1  0.5801630000000  0.5718880000000  0.5364860000000 1.0
C      1  0.4975020000000  0.5340830000000  0.4242300000000 1.0
C      1  0.6128350000000  0.5020500000000  0.5107580000000 1.0
C      1  0.4605030000000  0.4853640000000  0.5841760000000 1.0
C      1  0.4866880000000  0.4968620000000  0.3919730000000 1.0
C      1  0.5227030000000  0.4403460000000  0.4588800000000 1.0
C      1  0.5433900000000  0.4908310000000  0.4128300000000 1.0
C      1  0.4041890000000  0.4980440000000  0.4596200000000 1.0
C      1  0.4396700000000  0.5149770000000  0.5253880000000 1.0
C      1  0.5059270000000  0.5796040000000  0.4174050000000 1.0
C      1  0.4034390000000  0.5206720000000  0.4782100000000 1.0
C      1  0.4677170000000  0.4594860000000  0.4109620000000 1.0
C      1  0.4611350000000  0.4387300000000  0.5895000000000 1.0
C      1  0.5484390000000  0.5842470000000  0.5703120000000 1.0
C      1  0.5728540000000  0.4835670000000  0.5870090000000 1.0
C      1  0.4944380000000  0.6143130000000  0.5068110000000 1.0
C      1  0.5803450000000  0.5466800000000  0.4766250000000 1.0
C      1  0.4637070000000  0.4958680000000  0.4364160000000 1.0
C      1  0.6112210000000  0.4771270000000  0.4620080000000 1.0
C      1  0.5701180000000  0.5926000000000  0.4681830000000 1.0
C      1  0.5693320000000  0.4781760000000  0.4830690000000 1.0
C      1  0.4095410000000  0.5691540000000  0.4842990000000 1.0
C      1  0.5060130000000  0.4601180000000  0.5082580000000 1.0
C      1  0.5092840000000  0.5142340000000  0.5111440000000 1.0
C      1  0.5833560000000  0.5892320000000  0.4929130000000 1.0
C      1  0.5305200000000  0.4959000000000  0.4991530000000 1.0
C      1  0.5355530000000  0.5536260000000  0.5048310000000 1.0
C      1  0.6001300000000  0.4503140000000  0.5013880000000 1.0
C      1  0.4097020000000  0.4426740000000  0.5111530000000 1.0
C      1  0.5640090000000  0.4387570000000  0.5343820000000 1.0
C      1  0.5082710000000  0.4816030000000  0.5976490000000 1.0
C      1  0.4524750000000  0.4600100000000  0.4603740000000 1.0
C      1  0.4932750000000  0.4677480000000  0.4820660000000 1.0
C      1  0.6136800000000  0.5035240000000  0.4797990000000 1.0
C      1  0.5955040000000  0.5247000000000  0.5278840000000 1.0
C      1  0.4239050000000  0.5303280000000  0.4222600000000 1.0
C      1  0.4702300000000  0.4070240000000  0.4632240000000 1.0
C      1  0.4212010000000  0.4285320000000  0.4654840000000 1.0
C      1  0.4603390000000  0.5348110000000  0.5980280000000 1.0
C      1  0.5161510000000  0.5213410000000  0.4623050000000 1.0
C      1  0.4499870000000  0.4913050000000  0.4781870000000 1.0
C      1  0.5682740000000  0.5909220000000  0.5182340000000 1.0
C      1  0.4533600000000  0.4107720000000  0.5486880000000 1.0
C      1  0.5440190000000  0.4180200000000  0.5423490000000 1.0
C      1  0.4128600000000  0.5315310000000  0.5309610000000 1.0
C      1  0.5361820000000  0.5441600000000  0.3959480000000 1.0
C      1  0.4398540000000  0.5748700000000  0.4493960000000 1.0
C      1  0.4417900000000  0.4090040000000  0.4756820000000 1.0
C      1  0.4779000000000  0.5746070000000  0.4182660000000 1.0
C      1  0.5995920000000  0.4755590000000  0.5193830000000 1.0
C      1  0.4427250000000  0.4612890000000  0.5899060000000 1.0
C      1  0.5385260000000  0.4503790000000  0.5775410000000 1.0
C      1  0.5448100000000  0.5206360000000  0.5406620000000 1.0
C      1  0.5559430000000  0.5410710000000  0.4150340000000 1.0
C      1  0.4128990000000  0.5614730000000  0.5277350000000 1.0
C      1  0.5712770000000  0.5671480000000  0.4564240000000 1.0
C      1  0.5646570000000  0.4998630000000  0.4644030000000 1.0
C      1  0.4320970000000  0.4916800000000  0.5048700000000 1.0
C      1  0.4755870000000  0.5890130000000  0.5597080000000 1.0
C      1  0.4575220000000  0.4544910000000  0.5265130000000 1.0
C      1  0.5139610000000  0.5738440000000  0.4971490000000 1.0
C      1  0.5095250000000  0.5369190000000  0.3960450000000 1.0
C      1  0.5895000000000  0.5108930000000  0.4354920000000 1.0
C      1  0.5329650000000  0.4655920000000  0.5040660000000 1.0
C      1  0.5909620000000  0.5204060000000  0.5577950000000 1.0
C      1  0.5484880000000  0.4643110000000  0.5296300000000 1.0
C      1  0.4583510000000  0.5411690000000  0.4566020000000 1.0
C      1  0.4380890000000  0.3996550000000  0.5033680000000 1.0
C      1  0.3875400000000  0.4770680000000  0.5389110000000 1.0
C      1  0.4886490000000  0.5060130000000  0.5319100000000 1.0
C      1  0.4159300000000  0.4129300000000  0.5176900000000 1.0
C      1  0.4582410000000  0.5066720000000  0.3940330000000 1.0
C      1  0.5334730000000  0.4984540000000  0.3865810000000 1.0
C      1  0.4500560000000  0.5724900000000  0.5632240000000 1.0
C      1  0.5678750000000  0.4547380000000  0.5820600000000 1.0
C      1  0.4951340000000  0.4617670000000  0.5510570000000 1.0
C      1  0.4945240000000  0.5044060000000  0.4345020000000 1.0
C      1  0.5668670000000  0.5168370000000  0.5188650000000 1.0
C      1  0.4513020000000  0.4969500000000  0.5578810000000 1.0
C      1  0.4900700000000  0.3874450000000  0.4511540000000 1.0
C      1  0.4225960000000  0.4129810000000  0.5468200000000 1.0
C      1  0.5550550000000  0.5281090000000  0.5953170000000 1.0
C      1  0.4328170000000  0.4628650000000  0.5150480000000 1.0
C      1  0.5456600000000  0.4295920000000  0.4413590000000 1.0
END
