TITL C-951346-9544-287 6.27122285679499e-07 125000 -211.204954260837 0 0 35 (C1) n - 1
REM
REM in /home/bkarasulu/work/CARBON/AIRSS/Generating-Clusters/EDIP-Nigel-Params/with-SteepDescent/Only-C1/SD-CG/HFTN-CG
REM
REM
REM
REM
REM
REM ./C.cell (11c1c37f851c82e70ff6c80c92926a4b)
REM
REM compiler GCC version 9.2.1 20190827 (Red Hat 9.2.1-1)
REM options -cpp -mtune=generic -march=x86-64 -g -O0 -fpre-include=/usr/include/finclude/math-vector-fortran.h
REM seed 297671602 -2040751227 11726002 -1016101980 -1187131709 1852946642 1636262138 -82171532 -1284737461 313704322 1805478211 1837953747 1357761520 -2069089006 372100461 -1127017346 1325402463 -1242770624 1349545954 -589993205 625645390 -1464539866 -1991479887 -1978676257 1412389014 -2045045919 1168948735 685730819 386120576 -1962020354 793336355 1527907317 -362167463
REM
CELL 1.54180   50.00000   50.00000   50.00000   90.00000   90.00000   90.00000
LATT -1
SFAC C  
C      1  0.5550520000000  0.5199720000000  0.5012680000000 1.0
C      1  0.5095470000000  0.5087500000000  0.4548060000000 1.0
C      1  0.5266920000000  0.4306720000000  0.4662980000000 1.0
C      1  0.4906720000000  0.5398160000000  0.5103400000000 1.0
C      1  0.4659060000000  0.5068550000000  0.4621790000000 1.0
C      1  0.4596130000000  0.5040200000000  0.5107460000000 1.0
C      1  0.4503330000000  0.4766510000000  0.5020070000000 1.0
C      1  0.4849200000000  0.4911800000000  0.5474710000000 1.0
C      1  0.5088380000000  0.5001460000000  0.5322030000000 1.0
C      1  0.5363340000000  0.4781160000000  0.4834900000000 1.0
C      1  0.4616320000000  0.4546860000000  0.5175240000000 1.0
C      1  0.4929770000000  0.4471800000000  0.4982530000000 1.0
C      1  0.5084770000000  0.4547280000000  0.5249940000000 1.0
C      1  0.5080600000000  0.4248160000000  0.4859260000000 1.0
C      1  0.4628810000000  0.4789170000000  0.4742640000000 1.0
C      1  0.4555710000000  0.5313020000000  0.4764720000000 1.0
C      1  0.5091080000000  0.4911830000000  0.4796220000000 1.0
C      1  0.5531920000000  0.4910750000000  0.5028670000000 1.0
C      1  0.5268660000000  0.4775160000000  0.5266370000000 1.0
C      1  0.4902710000000  0.4682580000000  0.4765670000000 1.0
C      1  0.5363540000000  0.5425100000000  0.5346050000000 1.0
C      1  0.5217280000000  0.5217580000000  0.5461670000000 1.0
C      1  0.5181370000000  0.5350810000000  0.4645090000000 1.0
C      1  0.4753190000000  0.5382670000000  0.5361090000000 1.0
C      1  0.5618190000000  0.5335110000000  0.5252960000000 1.0
C      1  0.4644430000000  0.5114820000000  0.5394730000000 1.0
C      1  0.4848680000000  0.5100110000000  0.4411080000000 1.0
C      1  0.5303630000000  0.5326990000000  0.4914180000000 1.0
C      1  0.4769750000000  0.5502490000000  0.4845610000000 1.0
C      1  0.4959490000000  0.5087630000000  0.5055380000000 1.0
C      1  0.4964150000000  0.5534540000000  0.4641570000000 1.0
C      1  0.5197480000000  0.5515020000000  0.5116180000000 1.0
C      1  0.4820670000000  0.4618760000000  0.5382300000000 1.0
C      1  0.4411410000000  0.5238430000000  0.4994260000000 1.0
C      1  0.5377330000000  0.4491570000000  0.4838490000000 1.0
END
