TITL C-950524-1808-52 -8.05319201694181e-07 125000 -1060.62394765124 0 0 170 (C1) n - 1
REM
REM in /home/bkarasulu/work/CARBON/AIRSS/Generating-Clusters/EDIP-Nigel-Params/with-SteepDescent/Only-C1/SD-CG/HFTN-CG
REM
REM
REM
REM
REM
REM ./C.cell (11c1c37f851c82e70ff6c80c92926a4b)
REM
REM compiler GCC version 9.2.1 20190827 (Red Hat 9.2.1-1)
REM options -cpp -mtune=generic -march=x86-64 -g -O0 -fpre-include=/usr/include/finclude/math-vector-fortran.h
REM seed 1000345363 -1571876153 -404527935 -626199478 -661988399 409784998 219135918 1108826598 -1198565856 719161490 -1188904444 -1317626401 -1100553800 -180255188 -416315449 -2128707011 1828205521 1012584144 967362240 254925319 -404583940 -388185795 1549159392 581512946 -314279785 2122889432 466317610 2118890825 873846426 -1688374577 1124502715 -304475678 2084761976
REM
CELL 1.54180   50.00000   50.00000   50.00000   90.00000   90.00000   90.00000
LATT -1
SFAC C  
C      1  0.4113460000000  0.4784590000000  0.5384500000000 1.0
C      1  0.4090890000000  0.5555020000000  0.4593060000000 1.0
C      1  0.5649850000000  0.4278220000000  0.5591830000000 1.0
C      1  0.4861060000000  0.5387540000000  0.5286620000000 1.0
C      1  0.5540410000000  0.5814430000000  0.5370610000000 1.0
C      1  0.4398540000000  0.4296980000000  0.4384480000000 1.0
C      1  0.4367450000000  0.5900280000000  0.5439170000000 1.0
C      1  0.5562790000000  0.5119580000000  0.4724420000000 1.0
C      1  0.4208180000000  0.5306960000000  0.4480750000000 1.0
C      1  0.4953970000000  0.5149020000000  0.6011670000000 1.0
C      1  0.4229770000000  0.5665600000000  0.5059400000000 1.0
C      1  0.5555570000000  0.4488210000000  0.4990820000000 1.0
C      1  0.4699880000000  0.5022710000000  0.6050410000000 1.0
C      1  0.4972250000000  0.5537900000000  0.4288200000000 1.0
C      1  0.5240730000000  0.4480480000000  0.5774280000000 1.0
C      1  0.5400410000000  0.5152030000000  0.4976490000000 1.0
C      1  0.4734480000000  0.3914750000000  0.4771080000000 1.0
C      1  0.4896570000000  0.5399100000000  0.4598280000000 1.0
C      1  0.4366920000000  0.4687680000000  0.4196520000000 1.0
C      1  0.5146150000000  0.6109060000000  0.5246840000000 1.0
C      1  0.5199880000000  0.5518090000000  0.5706670000000 1.0
C      1  0.5150880000000  0.5443200000000  0.4747740000000 1.0
C      1  0.5235830000000  0.4735280000000  0.4106190000000 1.0
C      1  0.4496620000000  0.5111480000000  0.4202140000000 1.0
C      1  0.4644470000000  0.5699990000000  0.4906480000000 1.0
C      1  0.5279010000000  0.5928000000000  0.5436340000000 1.0
C      1  0.5829740000000  0.4863470000000  0.5040790000000 1.0
C      1  0.4204760000000  0.4345920000000  0.4720030000000 1.0
C      1  0.6243020000000  0.4763970000000  0.5138850000000 1.0
C      1  0.5132290000000  0.3862620000000  0.5057380000000 1.0
C      1  0.5659900000000  0.4873070000000  0.5288420000000 1.0
C      1  0.5675380000000  0.5245070000000  0.5839810000000 1.0
C      1  0.4275480000000  0.4649770000000  0.4683170000000 1.0
C      1  0.5280290000000  0.4018460000000  0.4593140000000 1.0
C      1  0.4744390000000  0.5230860000000  0.5046450000000 1.0
C      1  0.4802830000000  0.4248630000000  0.5673440000000 1.0
C      1  0.4542480000000  0.5408190000000  0.4141770000000 1.0
C      1  0.4515950000000  0.5064730000000  0.5329400000000 1.0
C      1  0.5648230000000  0.5573060000000  0.4450790000000 1.0
C      1  0.5565570000000  0.4829060000000  0.4637000000000 1.0
C      1  0.4430520000000  0.5225550000000  0.4675800000000 1.0
C      1  0.5562070000000  0.4164040000000  0.5338720000000 1.0
C      1  0.4320640000000  0.4398060000000  0.5150090000000 1.0
C      1  0.4327870000000  0.5249210000000  0.5181410000000 1.0
C      1  0.5439420000000  0.5224010000000  0.4123570000000 1.0
C      1  0.6088350000000  0.5063450000000  0.4759270000000 1.0
C      1  0.5218590000000  0.4083810000000  0.4876170000000 1.0
C      1  0.4829710000000  0.5262770000000  0.5561730000000 1.0
C      1  0.4565180000000  0.5873860000000  0.5654840000000 1.0
C      1  0.4380210000000  0.4782340000000  0.4939270000000 1.0
C      1  0.5924690000000  0.4669160000000  0.4440840000000 1.0
C      1  0.4175330000000  0.4177450000000  0.4487540000000 1.0
C      1  0.5000430000000  0.4563900000000  0.4150470000000 1.0
C      1  0.4382680000000  0.4234210000000  0.4921390000000 1.0
C      1  0.5059520000000  0.4292690000000  0.4250270000000 1.0
C      1  0.5719220000000  0.4825690000000  0.4279970000000 1.0
C      1  0.4841300000000  0.6043590000000  0.5241940000000 1.0
C      1  0.4810840000000  0.5839860000000  0.5477490000000 1.0
C      1  0.5991650000000  0.4364270000000  0.5172330000000 1.0
C      1  0.4558830000000  0.5166960000000  0.5610570000000 1.0
C      1  0.4314030000000  0.5736250000000  0.4521790000000 1.0
C      1  0.5824600000000  0.5334410000000  0.4421320000000 1.0
C      1  0.4661250000000  0.5416280000000  0.4803970000000 1.0
C      1  0.3933620000000  0.5029100000000  0.5312750000000 1.0
C      1  0.5855870000000  0.4195090000000  0.4655570000000 1.0
C      1  0.4881250000000  0.5007530000000  0.4889320000000 1.0
C      1  0.5439640000000  0.4629950000000  0.5226850000000 1.0
C      1  0.4372620000000  0.5607570000000  0.5324290000000 1.0
C      1  0.5402700000000  0.5452230000000  0.4318600000000 1.0
C      1  0.4940790000000  0.5820130000000  0.4269460000000 1.0
C      1  0.5092800000000  0.5787780000000  0.5610940000000 1.0
C      1  0.3831010000000  0.5009330000000  0.5031410000000 1.0
C      1  0.5193010000000  0.5027090000000  0.4154840000000 1.0
C      1  0.4579390000000  0.5029580000000  0.4489810000000 1.0
C      1  0.4957160000000  0.5364170000000  0.5798380000000 1.0
C      1  0.5097000000000  0.4224670000000  0.5716250000000 1.0
C      1  0.4072120000000  0.5283420000000  0.5337540000000 1.0
C      1  0.4561850000000  0.4929180000000  0.5811850000000 1.0
C      1  0.4102030000000  0.4723120000000  0.5669960000000 1.0
C      1  0.4669900000000  0.4202640000000  0.4816080000000 1.0
C      1  0.5720600000000  0.4258660000000  0.5095640000000 1.0
C      1  0.5266650000000  0.4773000000000  0.4614050000000 1.0
C      1  0.5682010000000  0.4759580000000  0.5717770000000 1.0
C      1  0.4682220000000  0.4474090000000  0.5826770000000 1.0
C      1  0.4484540000000  0.5636380000000  0.5778550000000 1.0
C      1  0.4921160000000  0.3912380000000  0.4541790000000 1.0
C      1  0.5280510000000  0.6102690000000  0.4981890000000 1.0
C      1  0.5562120000000  0.5021870000000  0.5694100000000 1.0
C      1  0.5600460000000  0.5536390000000  0.5449410000000 1.0
C      1  0.4724400000000  0.4666630000000  0.4104170000000 1.0
C      1  0.6136130000000  0.4710030000000  0.5410200000000 1.0
C      1  0.5503140000000  0.4640060000000  0.4184540000000 1.0
C      1  0.4294780000000  0.5953450000000  0.4993870000000 1.0
C      1  0.5674000000000  0.5517570000000  0.5740960000000 1.0
C      1  0.5629050000000  0.5636290000000  0.4753820000000 1.0
C      1  0.4833330000000  0.3858070000000  0.5046680000000 1.0
C      1  0.5320400000000  0.4371770000000  0.5366240000000 1.0
C      1  0.4092730000000  0.4603500000000  0.5132300000000 1.0
C      1  0.5764650000000  0.4069830000000  0.4878820000000 1.0
C      1  0.4676190000000  0.6061980000000  0.4644820000000 1.0
C      1  0.4420650000000  0.4783160000000  0.5371690000000 1.0
C      1  0.5012910000000  0.4384170000000  0.5225740000000 1.0
C      1  0.5460440000000  0.5838320000000  0.4934200000000 1.0
C      1  0.4906170000000  0.5862430000000  0.4967500000000 1.0
C      1  0.4458740000000  0.5624330000000  0.4305450000000 1.0
C      1  0.5307020000000  0.4231700000000  0.4391730000000 1.0
C      1  0.5093280000000  0.4673860000000  0.5929560000000 1.0
C      1  0.4659110000000  0.4317090000000  0.4524490000000 1.0
C      1  0.4692270000000  0.4949970000000  0.4041050000000 1.0
C      1  0.4377810000000  0.5387900000000  0.5705520000000 1.0
C      1  0.4832030000000  0.5398250000000  0.4076550000000 1.0
C      1  0.4844270000000  0.4140460000000  0.4371600000000 1.0
C      1  0.5134890000000  0.6046980000000  0.4520670000000 1.0
C      1  0.5137490000000  0.5474130000000  0.5230340000000 1.0
C      1  0.5325890000000  0.5383560000000  0.5446690000000 1.0
C      1  0.5929390000000  0.4923920000000  0.5469660000000 1.0
C      1  0.4547340000000  0.4506220000000  0.5284270000000 1.0
C      1  0.5817730000000  0.5463050000000  0.4909190000000 1.0
C      1  0.6014620000000  0.5174750000000  0.5291620000000 1.0
C      1  0.4048760000000  0.5496580000000  0.4880520000000 1.0
C      1  0.5154080000000  0.5025900000000  0.4462400000000 1.0
C      1  0.6172100000000  0.5045660000000  0.5058910000000 1.0
C      1  0.4004680000000  0.5168960000000  0.4837800000000 1.0
C      1  0.5848200000000  0.5242410000000  0.4708940000000 1.0
C      1  0.6076930000000  0.4570990000000  0.4984080000000 1.0
C      1  0.4796150000000  0.4605650000000  0.4685510000000 1.0
C      1  0.5789430000000  0.4405480000000  0.4484290000000 1.0
C      1  0.5534890000000  0.4505730000000  0.5724350000000 1.0
C      1  0.4317220000000  0.4729830000000  0.5856100000000 1.0
C      1  0.5008390000000  0.4302270000000  0.4922180000000 1.0
C      1  0.4124710000000  0.5378160000000  0.5594940000000 1.0
C      1  0.5427650000000  0.5535610000000  0.5897900000000 1.0
C      1  0.4889800000000  0.5903690000000  0.4527780000000 1.0
C      1  0.4690990000000  0.5631090000000  0.5280750000000 1.0
C      1  0.5786110000000  0.5354780000000  0.5203670000000 1.0
C      1  0.4414190000000  0.4469170000000  0.5917140000000 1.0
C      1  0.5328300000000  0.5272830000000  0.4556540000000 1.0
C      1  0.4457260000000  0.6061760000000  0.5214740000000 1.0
C      1  0.5169750000000  0.5651260000000  0.4979090000000 1.0
C      1  0.4014390000000  0.4776410000000  0.4643930000000 1.0
C      1  0.5659690000000  0.5899820000000  0.5139030000000 1.0
C      1  0.4930560000000  0.5120670000000  0.4030150000000 1.0
C      1  0.5160830000000  0.4951840000000  0.5930510000000 1.0
C      1  0.4486140000000  0.4723140000000  0.4474080000000 1.0
C      1  0.4456850000000  0.5885920000000  0.4744610000000 1.0
C      1  0.4015650000000  0.5041380000000  0.4470590000000 1.0
C      1  0.4709640000000  0.4745310000000  0.4951060000000 1.0
C      1  0.4876020000000  0.5087460000000  0.4579190000000 1.0
C      1  0.5182470000000  0.4954190000000  0.4947210000000 1.0
C      1  0.6047800000000  0.4441440000000  0.5436440000000 1.0
C      1  0.4828320000000  0.6214270000000  0.4837650000000 1.0
C      1  0.5213370000000  0.4013750000000  0.5567350000000 1.0
C      1  0.4999840000000  0.4768980000000  0.5563940000000 1.0
C      1  0.4292020000000  0.5092470000000  0.4914540000000 1.0
C      1  0.4758650000000  0.4282890000000  0.5366960000000 1.0
C      1  0.5540180000000  0.5157230000000  0.5231610000000 1.0
C      1  0.5081330000000  0.4549080000000  0.4734380000000 1.0
C      1  0.5110890000000  0.6202500000000  0.4766940000000 1.0
C      1  0.5201400000000  0.4791110000000  0.5173520000000 1.0
C      1  0.4214680000000  0.4960630000000  0.4209110000000 1.0
C      1  0.5217150000000  0.3888800000000  0.5325370000000 1.0
C      1  0.4712920000000  0.4025310000000  0.5243470000000 1.0
C      1  0.6084060000000  0.4817270000000  0.4619710000000 1.0
C      1  0.5699210000000  0.5130440000000  0.4233720000000 1.0
C      1  0.4951040000000  0.4679910000000  0.5247460000000 1.0
C      1  0.5542680000000  0.4391540000000  0.4330290000000 1.0
C      1  0.3896030000000  0.4743970000000  0.4921520000000 1.0
C      1  0.5728980000000  0.4662370000000  0.4836540000000 1.0
C      1  0.5272850000000  0.5015820000000  0.5674680000000 1.0
C      1  0.4727600000000  0.4720390000000  0.5682820000000 1.0
END
