TITL C-951347-9520-579 3.55422299904176e-07 125000 -232.399063915495 0 0 39 (C1) n - 1
REM
REM in /home/bkarasulu/work/CARBON/AIRSS/Generating-Clusters/EDIP-Nigel-Params/with-SteepDescent/Only-C1/SD-CG/HFTN-CG
REM
REM
REM
REM
REM
REM ./C.cell (11c1c37f851c82e70ff6c80c92926a4b)
REM
REM compiler GCC version 9.2.1 20190827 (Red Hat 9.2.1-1)
REM options -cpp -mtune=generic -march=x86-64 -g -O0 -fpre-include=/usr/include/finclude/math-vector-fortran.h
REM seed -1965409569 1367929598 2096883514 -420310286 1040310492 1007292267 683745208 -1764140859 1513619939 195759220 -248662700 -329392905 -1526923862 366905779 763771765 398859956 -1232098619 901890604 1136373113 1880120609 -55325148 694864220 -1678534325 -303878309 -552266660 426871291 2031762894 111884487 2105332371 1458225864 -1338015297 -1143638122 -82003245
REM
CELL 1.54180   50.00000   50.00000   50.00000   90.00000   90.00000   90.00000
LATT -1
SFAC C  
C      1  0.5245680000000  0.4835200000000  0.5497240000000 1.0
C      1  0.4945890000000  0.4856830000000  0.5148220000000 1.0
C      1  0.5010040000000  0.4649710000000  0.5470020000000 1.0
C      1  0.4996800000000  0.4655740000000  0.4774160000000 1.0
C      1  0.5218970000000  0.4770490000000  0.4409280000000 1.0
C      1  0.5444910000000  0.4729810000000  0.5320700000000 1.0
C      1  0.5440360000000  0.4935130000000  0.4358180000000 1.0
C      1  0.4596580000000  0.5539650000000  0.5185390000000 1.0
C      1  0.4783740000000  0.4456510000000  0.4829180000000 1.0
C      1  0.4821330000000  0.4320800000000  0.5106750000000 1.0
C      1  0.5084830000000  0.5510160000000  0.5088550000000 1.0
C      1  0.5256410000000  0.4595720000000  0.4647170000000 1.0
C      1  0.4730860000000  0.4753260000000  0.5524170000000 1.0
C      1  0.4483280000000  0.5052590000000  0.5209170000000 1.0
C      1  0.4854800000000  0.5446060000000  0.5244100000000 1.0
C      1  0.5076400000000  0.5680070000000  0.4871510000000 1.0
C      1  0.4534950000000  0.4431910000000  0.5193790000000 1.0
C      1  0.4437870000000  0.5323070000000  0.5152130000000 1.0
C      1  0.4712050000000  0.5022570000000  0.4739670000000 1.0
C      1  0.5030200000000  0.4516280000000  0.5192960000000 1.0
C      1  0.4895860000000  0.5604250000000  0.4427400000000 1.0
C      1  0.5555190000000  0.5315570000000  0.5016610000000 1.0
C      1  0.4933060000000  0.5762040000000  0.4652820000000 1.0
C      1  0.5276430000000  0.5287750000000  0.5138070000000 1.0
C      1  0.5671640000000  0.5058020000000  0.5073430000000 1.0
C      1  0.5187500000000  0.5014260000000  0.5032120000000 1.0
C      1  0.4902220000000  0.5208720000000  0.5409180000000 1.0
C      1  0.4669930000000  0.5031040000000  0.5444520000000 1.0
C      1  0.4631250000000  0.5273270000000  0.4658610000000 1.0
C      1  0.5179390000000  0.5119390000000  0.5461460000000 1.0
C      1  0.4658850000000  0.5522330000000  0.4546810000000 1.0
C      1  0.5494620000000  0.4724770000000  0.4787490000000 1.0
C      1  0.4537670000000  0.4572470000000  0.5436850000000 1.0
C      1  0.4911020000000  0.4871500000000  0.4595000000000 1.0
C      1  0.5449260000000  0.4862300000000  0.5060020000000 1.0
C      1  0.5565630000000  0.4958450000000  0.4610340000000 1.0
C      1  0.4657130000000  0.4892900000000  0.5007600000000 1.0
C      1  0.5578000000000  0.5224450000000  0.4734930000000 1.0
C      1  0.4539350000000  0.4614970000000  0.4944420000000 1.0
END
