TITL C-951339-9237-272 2.85266804091914e-07 125000 -842.527813234098 0 0 135 (C1) n - 1
REM
REM in /home/bkarasulu/work/CARBON/AIRSS/Generating-Clusters/EDIP-Nigel-Params/with-SteepDescent/Only-C1/SD-CG/HFTN-CG
REM
REM
REM
REM
REM
REM ./C.cell (11c1c37f851c82e70ff6c80c92926a4b)
REM
REM compiler GCC version 9.2.1 20190827 (Red Hat 9.2.1-1)
REM options -cpp -mtune=generic -march=x86-64 -g -O0 -fpre-include=/usr/include/finclude/math-vector-fortran.h
REM seed 711844351 -1866762681 -469800181 492805660 236136263 -844317925 -735022904 1067521881 -579159284 472745487 -421842941 -1275936006 -1035128755 1479124149 1533648621 -1136767612 -849963027 1366559717 1551911522 410783953 -2008069626 -298856750 232414968 1737477035 1797665158 -163320582 -429043837 1094524686 1527075520 -1180584547 1696343957 2028858599 -622751440
REM
CELL 1.54180   50.00000   50.00000   50.00000   90.00000   90.00000   90.00000
LATT -1
SFAC C  
C      1  0.4228890000000  0.4975520000000  0.5544250000000 1.0
C      1  0.4754700000000  0.5451350000000  0.5852430000000 1.0
C      1  0.4635650000000  0.5964400000000  0.4973370000000 1.0
C      1  0.5573790000000  0.5830340000000  0.4767880000000 1.0
C      1  0.4044290000000  0.4922900000000  0.5051280000000 1.0
C      1  0.5793620000000  0.5461210000000  0.5398270000000 1.0
C      1  0.5635070000000  0.5009880000000  0.5637560000000 1.0
C      1  0.4085140000000  0.5371170000000  0.5183200000000 1.0
C      1  0.5735260000000  0.4392540000000  0.4928570000000 1.0
C      1  0.4737550000000  0.4155110000000  0.5114260000000 1.0
C      1  0.5218660000000  0.5067650000000  0.5956040000000 1.0
C      1  0.5579840000000  0.4486390000000  0.4450180000000 1.0
C      1  0.5342820000000  0.5415620000000  0.4054160000000 1.0
C      1  0.5043780000000  0.5799540000000  0.5217910000000 1.0
C      1  0.4613220000000  0.5321490000000  0.5267610000000 1.0
C      1  0.5367890000000  0.5406660000000  0.5286210000000 1.0
C      1  0.4136840000000  0.4931680000000  0.4557200000000 1.0
C      1  0.4347730000000  0.5258020000000  0.4210980000000 1.0
C      1  0.4228370000000  0.4425630000000  0.4631670000000 1.0
C      1  0.4766900000000  0.4302780000000  0.4249290000000 1.0
C      1  0.5329410000000  0.4405140000000  0.4312320000000 1.0
C      1  0.5712670000000  0.5222890000000  0.4369340000000 1.0
C      1  0.5338690000000  0.4626170000000  0.5322850000000 1.0
C      1  0.5013090000000  0.4231840000000  0.5235240000000 1.0
C      1  0.4911180000000  0.5919450000000  0.4974370000000 1.0
C      1  0.5314320000000  0.5922140000000  0.5296110000000 1.0
C      1  0.5071950000000  0.5488880000000  0.5191520000000 1.0
C      1  0.5224950000000  0.5753220000000  0.4248050000000 1.0
C      1  0.4720680000000  0.4985610000000  0.3985880000000 1.0
C      1  0.5643220000000  0.4211990000000  0.5127690000000 1.0
C      1  0.4988250000000  0.5585840000000  0.4293120000000 1.0
C      1  0.5950610000000  0.5098590000000  0.5060840000000 1.0
C      1  0.4997240000000  0.5077890000000  0.4115090000000 1.0
C      1  0.4939710000000  0.4994460000000  0.6010710000000 1.0
C      1  0.4700420000000  0.4751120000000  0.4171460000000 1.0
C      1  0.4364740000000  0.4679860000000  0.5484960000000 1.0
C      1  0.5039900000000  0.5480610000000  0.5804700000000 1.0
C      1  0.4203770000000  0.5574970000000  0.5358200000000 1.0
C      1  0.4968770000000  0.5090910000000  0.5500540000000 1.0
C      1  0.4491330000000  0.5145150000000  0.3999390000000 1.0
C      1  0.5452650000000  0.5096420000000  0.5197400000000 1.0
C      1  0.5031700000000  0.4957280000000  0.5243360000000 1.0
C      1  0.5810810000000  0.4819780000000  0.4701540000000 1.0
C      1  0.5024140000000  0.5806200000000  0.4728760000000 1.0
C      1  0.4544120000000  0.5584790000000  0.4561070000000 1.0
C      1  0.4178240000000  0.5076210000000  0.4824430000000 1.0
C      1  0.5653180000000  0.5296850000000  0.5604590000000 1.0
C      1  0.5430500000000  0.5552930000000  0.4287060000000 1.0
C      1  0.4086880000000  0.5087270000000  0.5292340000000 1.0
C      1  0.4536320000000  0.4515090000000  0.5690310000000 1.0
C      1  0.4755300000000  0.4187180000000  0.4724150000000 1.0
C      1  0.4162760000000  0.5382650000000  0.4885960000000 1.0
C      1  0.5724990000000  0.4743830000000  0.4433540000000 1.0
C      1  0.5363640000000  0.5717950000000  0.5522650000000 1.0
C      1  0.4650230000000  0.5427210000000  0.4993680000000 1.0
C      1  0.5606260000000  0.4965370000000  0.4275620000000 1.0
C      1  0.5329430000000  0.5434840000000  0.4555140000000 1.0
C      1  0.4829390000000  0.4784010000000  0.4845710000000 1.0
C      1  0.4626720000000  0.4349850000000  0.4915690000000 1.0
C      1  0.4770720000000  0.4685160000000  0.5740880000000 1.0
C      1  0.5484640000000  0.4494940000000  0.5554070000000 1.0
C      1  0.4946350000000  0.4272540000000  0.5528810000000 1.0
C      1  0.4426090000000  0.5556450000000  0.4843580000000 1.0
C      1  0.4881490000000  0.4526230000000  0.4091690000000 1.0
C      1  0.5767410000000  0.4552710000000  0.5520690000000 1.0
C      1  0.5068540000000  0.5363190000000  0.4109680000000 1.0
C      1  0.4329550000000  0.4388250000000  0.4910610000000 1.0
C      1  0.4437870000000  0.4646100000000  0.4268740000000 1.0
C      1  0.4861120000000  0.5603020000000  0.4575240000000 1.0
C      1  0.4882980000000  0.5369800000000  0.5406130000000 1.0
C      1  0.5300910000000  0.5692400000000  0.4724540000000 1.0
C      1  0.4190110000000  0.4514520000000  0.5308460000000 1.0
C      1  0.4158950000000  0.5093290000000  0.4333360000000 1.0
C      1  0.4515080000000  0.5051630000000  0.5183430000000 1.0
C      1  0.5333730000000  0.5050430000000  0.4909960000000 1.0
C      1  0.4529090000000  0.4151370000000  0.5336940000000 1.0
C      1  0.5265810000000  0.4968880000000  0.4450170000000 1.0
C      1  0.5108320000000  0.5722530000000  0.5675980000000 1.0
C      1  0.5510580000000  0.5420680000000  0.5810430000000 1.0
C      1  0.5242910000000  0.4718160000000  0.4616420000000 1.0
C      1  0.5920060000000  0.5298750000000  0.4555960000000 1.0
C      1  0.5409760000000  0.4906130000000  0.5798370000000 1.0
C      1  0.5795680000000  0.5625020000000  0.4710010000000 1.0
C      1  0.5168040000000  0.4479380000000  0.5920700000000 1.0
C      1  0.4436110000000  0.5437380000000  0.5492000000000 1.0
C      1  0.5029340000000  0.5125990000000  0.4834720000000 1.0
C      1  0.5156760000000  0.4251280000000  0.5731360000000 1.0
C      1  0.4834830000000  0.4870580000000  0.4412180000000 1.0
C      1  0.5730670000000  0.5746850000000  0.5398440000000 1.0
C      1  0.4090760000000  0.4641050000000  0.5075770000000 1.0
C      1  0.4907800000000  0.4326510000000  0.4518690000000 1.0
C      1  0.5625890000000  0.4297300000000  0.4671640000000 1.0
C      1  0.5354390000000  0.4735240000000  0.4894810000000 1.0
C      1  0.4312940000000  0.4220740000000  0.4458120000000 1.0
C      1  0.5735260000000  0.4922500000000  0.5176470000000 1.0
C      1  0.4652640000000  0.4258920000000  0.5585760000000 1.0
C      1  0.4395510000000  0.5825930000000  0.4970770000000 1.0
C      1  0.5250410000000  0.4887830000000  0.4142150000000 1.0
C      1  0.5263220000000  0.5350640000000  0.5926070000000 1.0
C      1  0.4939400000000  0.5415020000000  0.4908720000000 1.0
C      1  0.4608600000000  0.4817820000000  0.5333470000000 1.0
C      1  0.4693450000000  0.5104300000000  0.4568940000000 1.0
C      1  0.5188050000000  0.4212080000000  0.4490830000000 1.0
C      1  0.5493820000000  0.5568080000000  0.5073530000000 1.0
C      1  0.5409840000000  0.4100420000000  0.5014810000000 1.0
C      1  0.5134350000000  0.4516010000000  0.5130370000000 1.0
C      1  0.4334450000000  0.4697630000000  0.4553630000000 1.0
C      1  0.5937910000000  0.5075910000000  0.4759130000000 1.0
C      1  0.5574100000000  0.5850470000000  0.5159050000000 1.0
C      1  0.5066490000000  0.5219750000000  0.4529100000000 1.0
C      1  0.5167060000000  0.4593820000000  0.4148000000000 1.0
C      1  0.4624170000000  0.5619920000000  0.5646010000000 1.0
C      1  0.4473260000000  0.5037810000000  0.4880390000000 1.0
C      1  0.4871060000000  0.5755230000000  0.5499070000000 1.0
C      1  0.4385640000000  0.5196510000000  0.5678460000000 1.0
C      1  0.5201440000000  0.4020350000000  0.5180780000000 1.0
C      1  0.4260600000000  0.5807150000000  0.5212880000000 1.0
C      1  0.4531010000000  0.4763680000000  0.4792510000000 1.0
C      1  0.4560920000000  0.5324700000000  0.4405450000000 1.0
C      1  0.5370840000000  0.4169440000000  0.4731110000000 1.0
C      1  0.5667770000000  0.4692620000000  0.4934380000000 1.0
C      1  0.4728930000000  0.4937500000000  0.5593930000000 1.0
C      1  0.4885530000000  0.4714200000000  0.6001070000000 1.0
C      1  0.5391230000000  0.4622250000000  0.5804930000000 1.0
C      1  0.4264230000000  0.4243390000000  0.5265160000000 1.0
C      1  0.5691890000000  0.5427760000000  0.4910740000000 1.0
C      1  0.5524640000000  0.5228600000000  0.4709380000000 1.0
C      1  0.5897460000000  0.5375580000000  0.5125030000000 1.0
C      1  0.5409960000000  0.4213830000000  0.5596590000000 1.0
C      1  0.4899110000000  0.4715410000000  0.5134190000000 1.0
C      1  0.5787190000000  0.4829840000000  0.5459610000000 1.0
C      1  0.5293150000000  0.4914520000000  0.5375690000000 1.0
C      1  0.4468620000000  0.4353070000000  0.4262710000000 1.0
C      1  0.4957660000000  0.4652120000000  0.4601060000000 1.0
C      1  0.4631660000000  0.5180560000000  0.5877760000000 1.0
END
