TITL C-951345-2650-86 -5.37497123141708e-07 125000 -126.947655015229 0 0 22 (C1) n - 1
REM
REM in /home/bkarasulu/work/CARBON/AIRSS/Generating-Clusters/EDIP-Nigel-Params/with-SteepDescent/Only-C1/SD-CG/HFTN-CG
REM
REM
REM
REM
REM
REM ./C.cell (11c1c37f851c82e70ff6c80c92926a4b)
REM
REM compiler GCC version 9.2.1 20190827 (Red Hat 9.2.1-1)
REM options -cpp -mtune=generic -march=x86-64 -g -O0 -fpre-include=/usr/include/finclude/math-vector-fortran.h
REM seed -1571282366 546372479 -1009589331 2044367201 683205581 -1378881350 323206892 -450046721 -780833784 1613641748 135061272 -1454905188 -831471406 -772650748 -511622242 -1687805837 1367474321 1215578660 1590916784 623175222 -1159910936 1183310036 -506721243 1212106544 615903189 -575561353 -1072823730 266123399 1340823336 294724003 -692326729 1028386053 -698329240
REM
CELL 1.54180   50.00000   50.00000   50.00000   90.00000   90.00000   90.00000
LATT -1
SFAC C  
C      1  0.5099630000000  0.5560870000000  0.5352820000000 1.0
C      1  0.5300140000000  0.5179010000000  0.5157610000000 1.0
C      1  0.5128860000000  0.4324690000000  0.5216430000000 1.0
C      1  0.5169840000000  0.4449330000000  0.5450800000000 1.0
C      1  0.5247240000000  0.4905620000000  0.5118190000000 1.0
C      1  0.5147040000000  0.4747630000000  0.4715080000000 1.0
C      1  0.4887290000000  0.4755250000000  0.4851880000000 1.0
C      1  0.4893770000000  0.5177420000000  0.4431800000000 1.0
C      1  0.5225690000000  0.5449320000000  0.5124930000000 1.0
C      1  0.4771970000000  0.4992280000000  0.5282630000000 1.0
C      1  0.4959690000000  0.4798770000000  0.5142600000000 1.0
C      1  0.4843480000000  0.5465820000000  0.5349160000000 1.0
C      1  0.5364220000000  0.4790160000000  0.4889370000000 1.0
C      1  0.4647080000000  0.4936080000000  0.5510880000000 1.0
C      1  0.4668320000000  0.4888670000000  0.4731230000000 1.0
C      1  0.4766430000000  0.5146410000000  0.4678180000000 1.0
C      1  0.5158430000000  0.4821770000000  0.4446460000000 1.0
C      1  0.5070680000000  0.5496530000000  0.4888260000000 1.0
C      1  0.4873940000000  0.5292130000000  0.4906580000000 1.0
C      1  0.4954060000000  0.4536480000000  0.5288100000000 1.0
C      1  0.5067110000000  0.5023910000000  0.4292810000000 1.0
C      1  0.4755080000000  0.5261830000000  0.5174200000000 1.0
END
