TITL C-950533-5798-364 7.85866708005844e-06 125000 -998.83818663345 0 0 162 (C1) n - 1
REM
REM in /home/bkarasulu/work/CARBON/AIRSS/Generating-Clusters/EDIP-Nigel-Params/with-SteepDescent/Only-C1/SD-CG/HFTN-CG
REM
REM
REM
REM
REM
REM ./C.cell (11c1c37f851c82e70ff6c80c92926a4b)
REM
REM compiler GCC version 9.2.1 20190827 (Red Hat 9.2.1-1)
REM options -cpp -mtune=generic -march=x86-64 -g -O0 -fpre-include=/usr/include/finclude/math-vector-fortran.h
REM seed 307610372 -397685023 1466350945 1100692043 -1007488843 -1376932867 314341142 -1193040683 -683811871 1392867126 -50134085 -1913988689 -1010945053 -1262338110 -238685004 -372721558 -1751018148 -1099152478 224939759 -2075135079 981468698 1756602685 -941269321 411787025 851892861 -477916155 -131787947 -214930192 -1411385781 1754254179 -2056378816 1742346707 371872249
REM
CELL 1.54180   50.00000   50.00000   50.00000   90.00000   90.00000   90.00000
LATT -1
SFAC C  
C      1  0.3958760000000  0.5026360000000  0.5393130000000 1.0
C      1  0.4970590000000  0.6078410000000  0.5534550000000 1.0
C      1  0.5964150000000  0.5241140000000  0.5225640000000 1.0
C      1  0.4687830000000  0.5086170000000  0.4935000000000 1.0
C      1  0.5391610000000  0.5301430000000  0.3895040000000 1.0
C      1  0.4178250000000  0.5269010000000  0.5782360000000 1.0
C      1  0.4180220000000  0.4823000000000  0.5429130000000 1.0
C      1  0.5141040000000  0.6015750000000  0.5131510000000 1.0
C      1  0.5132800000000  0.5478620000000  0.4469340000000 1.0
C      1  0.4808650000000  0.5068640000000  0.5675070000000 1.0
C      1  0.5896940000000  0.5442680000000  0.5014660000000 1.0
C      1  0.5198950000000  0.4781230000000  0.4283600000000 1.0
C      1  0.5685920000000  0.4903040000000  0.5857160000000 1.0
C      1  0.4916610000000  0.4710910000000  0.4328910000000 1.0
C      1  0.4265260000000  0.5305350000000  0.4434350000000 1.0
C      1  0.5190770000000  0.5858720000000  0.5581180000000 1.0
C      1  0.5029670000000  0.6215390000000  0.5298030000000 1.0
C      1  0.4413180000000  0.4738720000000  0.5721440000000 1.0
C      1  0.4787570000000  0.4661190000000  0.4071240000000 1.0
C      1  0.5508470000000  0.4584170000000  0.4049060000000 1.0
C      1  0.4898400000000  0.5161900000000  0.5146530000000 1.0
C      1  0.4066850000000  0.5272700000000  0.5526400000000 1.0
C      1  0.4853520000000  0.5381490000000  0.4568630000000 1.0
C      1  0.4513140000000  0.5842630000000  0.5434450000000 1.0
C      1  0.5030750000000  0.4902440000000  0.5226030000000 1.0
C      1  0.5450970000000  0.5890450000000  0.5427120000000 1.0
C      1  0.5070890000000  0.4672840000000  0.5604460000000 1.0
C      1  0.4863660000000  0.5715080000000  0.4170140000000 1.0
C      1  0.5434120000000  0.6014580000000  0.5164500000000 1.0
C      1  0.4769310000000  0.4709630000000  0.6000310000000 1.0
C      1  0.4517210000000  0.5313310000000  0.4849270000000 1.0
C      1  0.5487090000000  0.4372070000000  0.5640650000000 1.0
C      1  0.5978320000000  0.4978250000000  0.5102240000000 1.0
C      1  0.5110760000000  0.3914830000000  0.4584430000000 1.0
C      1  0.4278100000000  0.5072550000000  0.4287840000000 1.0
C      1  0.4428380000000  0.4979090000000  0.5268130000000 1.0
C      1  0.5837050000000  0.5236750000000  0.5494040000000 1.0
C      1  0.4630040000000  0.5140320000000  0.5909830000000 1.0
C      1  0.5428960000000  0.4843860000000  0.3918290000000 1.0
C      1  0.5472990000000  0.4687670000000  0.4998820000000 1.0
C      1  0.5671310000000  0.4836270000000  0.4433460000000 1.0
C      1  0.5848910000000  0.4474690000000  0.5058720000000 1.0
C      1  0.5123220000000  0.4380070000000  0.5932700000000 1.0
C      1  0.4337140000000  0.4742420000000  0.5025040000000 1.0
C      1  0.4834080000000  0.4062400000000  0.5659610000000 1.0
C      1  0.5715740000000  0.4588780000000  0.4263570000000 1.0
C      1  0.4045590000000  0.5080290000000  0.4848330000000 1.0
C      1  0.4684360000000  0.5193320000000  0.4352970000000 1.0
C      1  0.5796720000000  0.5695570000000  0.5131350000000 1.0
C      1  0.4564570000000  0.5599790000000  0.5906330000000 1.0
C      1  0.4593240000000  0.4057340000000  0.4716600000000 1.0
C      1  0.4156030000000  0.4819260000000  0.4800040000000 1.0
C      1  0.5577080000000  0.5519860000000  0.4342490000000 1.0
C      1  0.4997740000000  0.5276700000000  0.5462530000000 1.0
C      1  0.4282400000000  0.5712780000000  0.5258410000000 1.0
C      1  0.5221780000000  0.5242860000000  0.6052700000000 1.0
C      1  0.4871160000000  0.4969380000000  0.4728170000000 1.0
C      1  0.5296740000000  0.5237100000000  0.5505630000000 1.0
C      1  0.5235370000000  0.5634850000000  0.5780680000000 1.0
C      1  0.5395190000000  0.4487980000000  0.5903770000000 1.0
C      1  0.4553220000000  0.5528040000000  0.5051460000000 1.0
C      1  0.5238440000000  0.4221520000000  0.4293480000000 1.0
C      1  0.3947730000000  0.5091150000000  0.5115040000000 1.0
C      1  0.5273680000000  0.5146850000000  0.4762120000000 1.0
C      1  0.4440130000000  0.5348160000000  0.5849940000000 1.0
C      1  0.5074680000000  0.5301780000000  0.4939620000000 1.0
C      1  0.4761630000000  0.4460940000000  0.5834690000000 1.0
C      1  0.5198610000000  0.5533380000000  0.5048020000000 1.0
C      1  0.5246590000000  0.4264510000000  0.4723800000000 1.0
C      1  0.4148630000000  0.4661100000000  0.4531550000000 1.0
C      1  0.4728010000000  0.4220200000000  0.4502600000000 1.0
C      1  0.4586760000000  0.4662480000000  0.4876980000000 1.0
C      1  0.4613120000000  0.5986250000000  0.4958630000000 1.0
C      1  0.4284630000000  0.4664750000000  0.4045320000000 1.0
C      1  0.5527280000000  0.4087880000000  0.4915630000000 1.0
C      1  0.5560270000000  0.5096150000000  0.4006360000000 1.0
C      1  0.4260240000000  0.4365900000000  0.4542810000000 1.0
C      1  0.5150180000000  0.5947860000000  0.4513710000000 1.0
C      1  0.4198680000000  0.4807810000000  0.4270230000000 1.0
C      1  0.5489530000000  0.5774490000000  0.4433670000000 1.0
C      1  0.4165130000000  0.4587050000000  0.5232320000000 1.0
C      1  0.4694750000000  0.4392380000000  0.4900010000000 1.0
C      1  0.4617000000000  0.4862570000000  0.5515120000000 1.0
C      1  0.5073320000000  0.4431850000000  0.5124350000000 1.0
C      1  0.4741070000000  0.4898140000000  0.4480650000000 1.0
C      1  0.5369190000000  0.4480170000000  0.5198270000000 1.0
C      1  0.5047980000000  0.3905350000000  0.4873920000000 1.0
C      1  0.5438660000000  0.4040530000000  0.4419050000000 1.0
C      1  0.4366510000000  0.4234970000000  0.4788830000000 1.0
C      1  0.5271700000000  0.4012830000000  0.5319600000000 1.0
C      1  0.4384880000000  0.5898910000000  0.4804570000000 1.0
C      1  0.4825210000000  0.5184140000000  0.4041280000000 1.0
C      1  0.4528740000000  0.4443000000000  0.4415340000000 1.0
C      1  0.5614950000000  0.4290610000000  0.5119620000000 1.0
C      1  0.4693590000000  0.6033010000000  0.5540640000000 1.0
C      1  0.5014120000000  0.5731350000000  0.5159500000000 1.0
C      1  0.4797060000000  0.4609890000000  0.5474710000000 1.0
C      1  0.5491430000000  0.5285630000000  0.5968020000000 1.0
C      1  0.4762720000000  0.5669080000000  0.4635710000000 1.0
C      1  0.5825270000000  0.4743380000000  0.5226210000000 1.0
C      1  0.5754550000000  0.5334870000000  0.4460530000000 1.0
C      1  0.5859220000000  0.5370670000000  0.4732010000000 1.0
C      1  0.4528620000000  0.4713500000000  0.4588360000000 1.0
C      1  0.5370470000000  0.4787320000000  0.4537100000000 1.0
C      1  0.5692720000000  0.5094720000000  0.4287970000000 1.0
C      1  0.5891440000000  0.4533270000000  0.4759320000000 1.0
C      1  0.5307370000000  0.4133840000000  0.5575210000000 1.0
C      1  0.4482710000000  0.4444780000000  0.5728950000000 1.0
C      1  0.5326190000000  0.5252920000000  0.4474790000000 1.0
C      1  0.4937190000000  0.5586960000000  0.5459590000000 1.0
C      1  0.4226600000000  0.5304840000000  0.4738450000000 1.0
C      1  0.5515360000000  0.5242660000000  0.4936930000000 1.0
C      1  0.4878350000000  0.5870360000000  0.4435320000000 1.0
C      1  0.5197950000000  0.5090230000000  0.4260530000000 1.0
C      1  0.5653150000000  0.5684540000000  0.5385960000000 1.0
C      1  0.5130870000000  0.5293290000000  0.4043080000000 1.0
C      1  0.5592270000000  0.5836840000000  0.4972300000000 1.0
C      1  0.5200710000000  0.4949800000000  0.5994530000000 1.0
C      1  0.5611080000000  0.4848650000000  0.5435020000000 1.0
C      1  0.4637560000000  0.5511980000000  0.4139070000000 1.0
C      1  0.4974310000000  0.4855400000000  0.5830110000000 1.0
C      1  0.4263240000000  0.5329580000000  0.5305670000000 1.0
C      1  0.5385380000000  0.4609310000000  0.5477040000000 1.0
C      1  0.4468590000000  0.5678150000000  0.4602790000000 1.0
C      1  0.5113970000000  0.5558450000000  0.4182720000000 1.0
C      1  0.5849600000000  0.4820160000000  0.4672640000000 1.0
C      1  0.5016000000000  0.4447210000000  0.4833570000000 1.0
C      1  0.5703510000000  0.5483070000000  0.5583760000000 1.0
C      1  0.4684810000000  0.3956640000000  0.5212510000000 1.0
C      1  0.5751330000000  0.4979080000000  0.4901200000000 1.0
C      1  0.5417900000000  0.5608580000000  0.4872490000000 1.0
C      1  0.5440560000000  0.5417570000000  0.5708140000000 1.0
C      1  0.5440420000000  0.4785240000000  0.5930490000000 1.0
C      1  0.5442290000000  0.4526240000000  0.4699560000000 1.0
C      1  0.4636320000000  0.5592970000000  0.5535700000000 1.0
C      1  0.4255210000000  0.4341840000000  0.5319590000000 1.0
C      1  0.5274740000000  0.5704430000000  0.4610730000000 1.0
C      1  0.4983460000000  0.4117210000000  0.4404810000000 1.0
C      1  0.4519450000000  0.4535810000000  0.4126570000000 1.0
C      1  0.4770510000000  0.3963080000000  0.4946490000000 1.0
C      1  0.4477580000000  0.4305750000000  0.5477800000000 1.0
C      1  0.4639790000000  0.4071670000000  0.5461200000000 1.0
C      1  0.5267730000000  0.4442310000000  0.4112860000000 1.0
C      1  0.5864950000000  0.5011160000000  0.5676280000000 1.0
C      1  0.4812370000000  0.5579740000000  0.6029040000000 1.0
C      1  0.5301510000000  0.4914040000000  0.5121210000000 1.0
C      1  0.4872930000000  0.4900840000000  0.3901170000000 1.0
C      1  0.5283460000000  0.3960920000000  0.5042390000000 1.0
C      1  0.5077820000000  0.4163050000000  0.5748550000000 1.0
C      1  0.5467250000000  0.5098200000000  0.5298220000000 1.0
C      1  0.4883150000000  0.4650970000000  0.5202670000000 1.0
C      1  0.5152900000000  0.4871350000000  0.3834330000000 1.0
C      1  0.5051490000000  0.5468090000000  0.5938380000000 1.0
C      1  0.4515760000000  0.4870680000000  0.5975580000000 1.0
C      1  0.4408110000000  0.5540750000000  0.4340610000000 1.0
C      1  0.4190210000000  0.5772770000000  0.4977670000000 1.0
C      1  0.5695620000000  0.4406320000000  0.4572130000000 1.0
C      1  0.5641300000000  0.4113300000000  0.4615540000000 1.0
C      1  0.4565070000000  0.5386110000000  0.5331240000000 1.0
C      1  0.4105110000000  0.5552860000000  0.4824840000000 1.0
C      1  0.5093610000000  0.4779220000000  0.4805210000000 1.0
C      1  0.4764880000000  0.5733740000000  0.4962520000000 1.0
END
