TITL C-950525-1983-79 -3.26891649121632e-07 125000 -979.608123909795 0 0 156 (C1) n - 1
REM
REM in /home/bkarasulu/work/CARBON/AIRSS/Generating-Clusters/EDIP-Nigel-Params/with-SteepDescent/Only-C1/SD-CG/HFTN-CG
REM
REM
REM
REM
REM
REM ./C.cell (11c1c37f851c82e70ff6c80c92926a4b)
REM
REM compiler GCC version 9.2.1 20190827 (Red Hat 9.2.1-1)
REM options -cpp -mtune=generic -march=x86-64 -g -O0 -fpre-include=/usr/include/finclude/math-vector-fortran.h
REM seed -2087248037 106349454 1684308773 116640446 -386498772 -709099483 -747086416 1955210505 -2129202018 1740835361 797076011 102843808 -865988343 1957871779 -699501311 -663652064 640202650 921929704 -467268954 1607311491 1249156391 -1782690036 351664940 -1755180421 22087731 1165014569 43253208 1091997254 -1894314418 1152093285 114812615 390579778 564584203
REM
CELL 1.54180   50.00000   50.00000   50.00000   90.00000   90.00000   90.00000
LATT -1
SFAC C  
C      1  0.5320910000000  0.4179390000000  0.5549990000000 1.0
C      1  0.5123570000000  0.5235730000000  0.5791640000000 1.0
C      1  0.4634500000000  0.4850510000000  0.4137270000000 1.0
C      1  0.4993140000000  0.5348680000000  0.5235240000000 1.0
C      1  0.4917070000000  0.5727130000000  0.4367620000000 1.0
C      1  0.5548840000000  0.4859150000000  0.5512740000000 1.0
C      1  0.4391930000000  0.4990230000000  0.5874100000000 1.0
C      1  0.5882640000000  0.4671970000000  0.5186610000000 1.0
C      1  0.4435950000000  0.5847870000000  0.5208510000000 1.0
C      1  0.5623990000000  0.5301500000000  0.5728850000000 1.0
C      1  0.4289430000000  0.5538130000000  0.5592560000000 1.0
C      1  0.5066040000000  0.4193250000000  0.5118520000000 1.0
C      1  0.5237790000000  0.4888850000000  0.3980140000000 1.0
C      1  0.5589950000000  0.5683390000000  0.4536000000000 1.0
C      1  0.5699930000000  0.4366080000000  0.4497790000000 1.0
C      1  0.4557040000000  0.5212920000000  0.5307860000000 1.0
C      1  0.4267490000000  0.5637610000000  0.5316220000000 1.0
C      1  0.5178570000000  0.5990090000000  0.5272340000000 1.0
C      1  0.5641220000000  0.4590310000000  0.4302420000000 1.0
C      1  0.4541920000000  0.4759880000000  0.5973150000000 1.0
C      1  0.6054480000000  0.4595790000000  0.4734110000000 1.0
C      1  0.4705530000000  0.4463090000000  0.4643090000000 1.0
C      1  0.4731570000000  0.5343340000000  0.4056730000000 1.0
C      1  0.4654550000000  0.5867290000000  0.4762500000000 1.0
C      1  0.4392210000000  0.4361210000000  0.4344700000000 1.0
C      1  0.5036360000000  0.5725470000000  0.5677840000000 1.0
C      1  0.5467760000000  0.5306170000000  0.4084330000000 1.0
C      1  0.4909090000000  0.6000710000000  0.5164530000000 1.0
C      1  0.5702680000000  0.5362000000000  0.5220040000000 1.0
C      1  0.5533540000000  0.4535510000000  0.5811330000000 1.0
C      1  0.5122070000000  0.5408900000000  0.4439150000000 1.0
C      1  0.5439840000000  0.5485080000000  0.5241860000000 1.0
C      1  0.4795590000000  0.4883950000000  0.5589570000000 1.0
C      1  0.5094430000000  0.4851900000000  0.5515890000000 1.0
C      1  0.4884740000000  0.4381460000000  0.5524500000000 1.0
C      1  0.5475620000000  0.5027810000000  0.4079600000000 1.0
C      1  0.5149010000000  0.5885390000000  0.4749580000000 1.0
C      1  0.4287090000000  0.4245840000000  0.5507990000000 1.0
C      1  0.5200750000000  0.5524000000000  0.5825240000000 1.0
C      1  0.5819530000000  0.4273780000000  0.4985870000000 1.0
C      1  0.5293090000000  0.5491480000000  0.4200320000000 1.0
C      1  0.5397740000000  0.5736990000000  0.4333470000000 1.0
C      1  0.4479640000000  0.4655720000000  0.4706320000000 1.0
C      1  0.4721960000000  0.4831260000000  0.5070200000000 1.0
C      1  0.4662060000000  0.5772460000000  0.4490060000000 1.0
C      1  0.4380190000000  0.4857110000000  0.4285750000000 1.0
C      1  0.5071830000000  0.4902210000000  0.4387990000000 1.0
C      1  0.4020870000000  0.4492610000000  0.5065710000000 1.0
C      1  0.5741100000000  0.5071620000000  0.4883230000000 1.0
C      1  0.5125080000000  0.5584040000000  0.4840970000000 1.0
C      1  0.5386470000000  0.5570740000000  0.4958380000000 1.0
C      1  0.5273830000000  0.5102000000000  0.5551080000000 1.0
C      1  0.4622370000000  0.4927860000000  0.5334290000000 1.0
C      1  0.4763750000000  0.5665150000000  0.5545070000000 1.0
C      1  0.4116740000000  0.5224090000000  0.5527010000000 1.0
C      1  0.4818510000000  0.4033630000000  0.5052440000000 1.0
C      1  0.5251620000000  0.5272310000000  0.5311250000000 1.0
C      1  0.4046890000000  0.4733440000000  0.5223400000000 1.0
C      1  0.4539380000000  0.5602050000000  0.5740590000000 1.0
C      1  0.5860340000000  0.5538730000000  0.5003100000000 1.0
C      1  0.4753360000000  0.5066910000000  0.3972940000000 1.0
C      1  0.4029320000000  0.4455400000000  0.4775450000000 1.0
C      1  0.4376280000000  0.4141980000000  0.5263320000000 1.0
C      1  0.4485040000000  0.5463670000000  0.4147150000000 1.0
C      1  0.4713780000000  0.4547740000000  0.5120430000000 1.0
C      1  0.5578230000000  0.4118240000000  0.4427410000000 1.0
C      1  0.4464320000000  0.5574910000000  0.4418770000000 1.0
C      1  0.5663720000000  0.5911840000000  0.5287400000000 1.0
C      1  0.4424030000000  0.5227310000000  0.6015050000000 1.0
C      1  0.6047880000000  0.5074980000000  0.4927310000000 1.0
C      1  0.5388050000000  0.4733200000000  0.4773630000000 1.0
C      1  0.4186830000000  0.4142160000000  0.5047720000000 1.0
C      1  0.4356110000000  0.4141080000000  0.4531400000000 1.0
C      1  0.4165620000000  0.4725820000000  0.5503630000000 1.0
C      1  0.5119330000000  0.4063770000000  0.4250560000000 1.0
C      1  0.4027610000000  0.4992620000000  0.5084810000000 1.0
C      1  0.5111990000000  0.4336310000000  0.5701690000000 1.0
C      1  0.4403260000000  0.5851650000000  0.4914910000000 1.0
C      1  0.5666920000000  0.4800260000000  0.5787480000000 1.0
C      1  0.5603790000000  0.5074840000000  0.5127030000000 1.0
C      1  0.5588940000000  0.5743730000000  0.4817750000000 1.0
C      1  0.5436120000000  0.6053000000000  0.5141280000000 1.0
C      1  0.5545220000000  0.5055820000000  0.5908300000000 1.0
C      1  0.5768670000000  0.4913410000000  0.5322220000000 1.0
C      1  0.5105370000000  0.4774290000000  0.5996700000000 1.0
C      1  0.4926770000000  0.4905330000000  0.4683200000000 1.0
C      1  0.6047190000000  0.4760170000000  0.4956970000000 1.0
C      1  0.4461290000000  0.5252470000000  0.5026710000000 1.0
C      1  0.5220650000000  0.4059960000000  0.5318700000000 1.0
C      1  0.5231510000000  0.5887480000000  0.5532650000000 1.0
C      1  0.4032240000000  0.5234880000000  0.5242240000000 1.0
C      1  0.5841810000000  0.5319150000000  0.4529880000000 1.0
C      1  0.6035920000000  0.5377690000000  0.4770940000000 1.0
C      1  0.5427090000000  0.5999190000000  0.4850340000000 1.0
C      1  0.5204010000000  0.4503040000000  0.4732800000000 1.0
C      1  0.4195270000000  0.5640740000000  0.4851670000000 1.0
C      1  0.4821510000000  0.4778880000000  0.6020970000000 1.0
C      1  0.6131980000000  0.5149470000000  0.5197670000000 1.0
C      1  0.5556300000000  0.4372110000000  0.5524090000000 1.0
C      1  0.4679580000000  0.4131960000000  0.4823840000000 1.0
C      1  0.4783060000000  0.5364540000000  0.5436750000000 1.0
C      1  0.5177750000000  0.4696370000000  0.5262210000000 1.0
C      1  0.5884300000000  0.4376540000000  0.4727650000000 1.0
C      1  0.4744570000000  0.4596870000000  0.4123470000000 1.0
C      1  0.4505230000000  0.4552390000000  0.5335840000000 1.0
C      1  0.4200060000000  0.5446700000000  0.5093430000000 1.0
C      1  0.5403870000000  0.4474430000000  0.4177290000000 1.0
C      1  0.5440600000000  0.4614170000000  0.5384780000000 1.0
C      1  0.5180170000000  0.4022790000000  0.4704890000000 1.0
C      1  0.4552210000000  0.4921370000000  0.4840040000000 1.0
C      1  0.5240010000000  0.4239710000000  0.4873960000000 1.0
C      1  0.4349680000000  0.5125540000000  0.4396670000000 1.0
C      1  0.5322560000000  0.5210550000000  0.4628750000000 1.0
C      1  0.4940480000000  0.4615420000000  0.4749560000000 1.0
C      1  0.5303650000000  0.4900980000000  0.5023100000000 1.0
C      1  0.5113590000000  0.5096100000000  0.4853910000000 1.0
C      1  0.4968810000000  0.4453040000000  0.5244550000000 1.0
C      1  0.4651220000000  0.5198490000000  0.4555520000000 1.0
C      1  0.5494580000000  0.5752970000000  0.5515050000000 1.0
C      1  0.4910870000000  0.5197810000000  0.4360550000000 1.0
C      1  0.4185320000000  0.4211810000000  0.4762590000000 1.0
C      1  0.4960400000000  0.5351290000000  0.4943010000000 1.0
C      1  0.5611380000000  0.5280060000000  0.4719680000000 1.0
C      1  0.4620380000000  0.4003760000000  0.5246450000000 1.0
C      1  0.4891230000000  0.6005310000000  0.4868920000000 1.0
C      1  0.5985690000000  0.5091760000000  0.5430530000000 1.0
C      1  0.5879480000000  0.5803170000000  0.5131210000000 1.0
C      1  0.5011310000000  0.5016160000000  0.3877290000000 1.0
C      1  0.5233300000000  0.4600860000000  0.5778840000000 1.0
C      1  0.5790740000000  0.4394850000000  0.5241200000000 1.0
C      1  0.4686130000000  0.4406080000000  0.4320300000000 1.0
C      1  0.4826160000000  0.5207480000000  0.5706250000000 1.0
C      1  0.4633020000000  0.5362830000000  0.5891570000000 1.0
C      1  0.5833760000000  0.5058960000000  0.4406970000000 1.0
C      1  0.5485150000000  0.5558360000000  0.5757320000000 1.0
C      1  0.4243380000000  0.4478710000000  0.5664750000000 1.0
C      1  0.4435770000000  0.4505440000000  0.5885550000000 1.0
C      1  0.5184240000000  0.4648020000000  0.4119500000000 1.0
C      1  0.4306030000000  0.4630280000000  0.4467500000000 1.0
C      1  0.5152220000000  0.5866620000000  0.4448980000000 1.0
C      1  0.4034560000000  0.5053620000000  0.4808840000000 1.0
C      1  0.4225240000000  0.5504300000000  0.4594320000000 1.0
C      1  0.5363420000000  0.4923140000000  0.4521070000000 1.0
C      1  0.4701500000000  0.5861560000000  0.5319560000000 1.0
C      1  0.4195250000000  0.4974490000000  0.5655990000000 1.0
C      1  0.4131870000000  0.5210710000000  0.4592750000000 1.0
C      1  0.4672100000000  0.4576760000000  0.5596390000000 1.0
C      1  0.4026480000000  0.4633510000000  0.4554470000000 1.0
C      1  0.5366980000000  0.4198610000000  0.4257480000000 1.0
C      1  0.5243180000000  0.5043510000000  0.5997470000000 1.0
C      1  0.5003380000000  0.3981350000000  0.4492140000000 1.0
C      1  0.5830280000000  0.5328110000000  0.5509680000000 1.0
C      1  0.4284780000000  0.5270760000000  0.4145990000000 1.0
C      1  0.4678120000000  0.5340860000000  0.4831510000000 1.0
C      1  0.5601440000000  0.4898410000000  0.4321780000000 1.0
C      1  0.4724280000000  0.4037450000000  0.4558560000000 1.0
END
