TITL C-950522-5749-92 -2.88753187611635e-06 125000 -999.481178238154 0 0 159 (C1) n - 1
REM
REM in /home/bkarasulu/work/CARBON/AIRSS/Generating-Clusters/EDIP-Nigel-Params/with-SteepDescent/Only-C1/SD-CG/HFTN-CG
REM
REM
REM
REM
REM
REM ./C.cell (11c1c37f851c82e70ff6c80c92926a4b)
REM
REM compiler GCC version 9.2.1 20190827 (Red Hat 9.2.1-1)
REM options -cpp -mtune=generic -march=x86-64 -g -O0 -fpre-include=/usr/include/finclude/math-vector-fortran.h
REM seed 746504582 1253397438 319494409 -648647559 -268295644 -883778428 844806183 -232702412 -1443233493 599854221 -1762890163 -2083621221 2050217898 -1637256347 -231515577 435415412 664556741 1816280352 2074701001 -1654657539 38454688 -1802017306 -1200624812 1774218488 1438359339 -1873742517 -942082762 2127549108 -1578668696 496942831 -541517364 697137967 387423254
REM
CELL 1.54180   50.00000   50.00000   50.00000   90.00000   90.00000   90.00000
LATT -1
SFAC C  
C      1  0.5563050000000  0.5093790000000  0.4871020000000 1.0
C      1  0.5177870000000  0.5696960000000  0.4292880000000 1.0
C      1  0.5499790000000  0.5314510000000  0.4688460000000 1.0
C      1  0.5068990000000  0.6036890000000  0.5161900000000 1.0
C      1  0.4112410000000  0.4662460000000  0.5179550000000 1.0
C      1  0.5052510000000  0.4536870000000  0.4124000000000 1.0
C      1  0.4878190000000  0.3975240000000  0.4870950000000 1.0
C      1  0.5307160000000  0.5215290000000  0.6042500000000 1.0
C      1  0.5165550000000  0.4585980000000  0.5712950000000 1.0
C      1  0.6069400000000  0.4881870000000  0.4870190000000 1.0
C      1  0.4324780000000  0.5918200000000  0.4881510000000 1.0
C      1  0.4557320000000  0.4534830000000  0.4114900000000 1.0
C      1  0.5283280000000  0.4513100000000  0.4552160000000 1.0
C      1  0.4573340000000  0.5104240000000  0.5552810000000 1.0
C      1  0.4325060000000  0.4479850000000  0.4573010000000 1.0
C      1  0.5728340000000  0.5342630000000  0.5244170000000 1.0
C      1  0.5063750000000  0.4656990000000  0.5438920000000 1.0
C      1  0.4290010000000  0.4510130000000  0.4269510000000 1.0
C      1  0.4459480000000  0.5494310000000  0.5718160000000 1.0
C      1  0.5988740000000  0.5183500000000  0.5276000000000 1.0
C      1  0.5851840000000  0.4621650000000  0.4484690000000 1.0
C      1  0.5021740000000  0.5021030000000  0.5454880000000 1.0
C      1  0.4917410000000  0.4642280000000  0.5858170000000 1.0
C      1  0.4796590000000  0.5939210000000  0.5123220000000 1.0
C      1  0.5629630000000  0.4010760000000  0.5073100000000 1.0
C      1  0.5112770000000  0.5466910000000  0.5243180000000 1.0
C      1  0.5389590000000  0.4235010000000  0.5563650000000 1.0
C      1  0.5727200000000  0.4426980000000  0.4676270000000 1.0
C      1  0.5523290000000  0.5585930000000  0.4856860000000 1.0
C      1  0.5490980000000  0.5946590000000  0.4508940000000 1.0
C      1  0.4103630000000  0.5268750000000  0.5434710000000 1.0
C      1  0.4522340000000  0.4836680000000  0.5165220000000 1.0
C      1  0.5692980000000  0.4691170000000  0.4249050000000 1.0
C      1  0.5208930000000  0.5060210000000  0.4299740000000 1.0
C      1  0.4747910000000  0.5589510000000  0.4856000000000 1.0
C      1  0.5169070000000  0.4289470000000  0.5731190000000 1.0
C      1  0.4025420000000  0.5375610000000  0.4956960000000 1.0
C      1  0.5221530000000  0.5952390000000  0.4431420000000 1.0
C      1  0.4354010000000  0.5242000000000  0.5828330000000 1.0
C      1  0.5711980000000  0.5362560000000  0.4455750000000 1.0
C      1  0.5481680000000  0.4843500000000  0.4799590000000 1.0
C      1  0.4474810000000  0.4449620000000  0.5799200000000 1.0
C      1  0.5844100000000  0.5617430000000  0.4510150000000 1.0
C      1  0.4702470000000  0.5821040000000  0.5358720000000 1.0
C      1  0.5211060000000  0.5259860000000  0.4559570000000 1.0
C      1  0.5045180000000  0.5951430000000  0.4678080000000 1.0
C      1  0.5885730000000  0.4403880000000  0.4925880000000 1.0
C      1  0.6005680000000  0.4649540000000  0.5034170000000 1.0
C      1  0.4329050000000  0.4214270000000  0.4959020000000 1.0
C      1  0.3914390000000  0.5327040000000  0.4675250000000 1.0
C      1  0.4396290000000  0.4438320000000  0.5504600000000 1.0
C      1  0.5890480000000  0.5108810000000  0.4417760000000 1.0
C      1  0.5036200000000  0.5666780000000  0.4766580000000 1.0
C      1  0.4125430000000  0.4438020000000  0.4986240000000 1.0
C      1  0.5645610000000  0.5747290000000  0.5473480000000 1.0
C      1  0.5386110000000  0.5595060000000  0.4139020000000 1.0
C      1  0.4203060000000  0.5898080000000  0.5128470000000 1.0
C      1  0.4755160000000  0.4390970000000  0.5853080000000 1.0
C      1  0.4577140000000  0.5096990000000  0.5077540000000 1.0
C      1  0.4994340000000  0.4965030000000  0.3864520000000 1.0
C      1  0.5621430000000  0.4150750000000  0.4578640000000 1.0
C      1  0.4548210000000  0.5552070000000  0.5136190000000 1.0
C      1  0.4726400000000  0.5320300000000  0.4702280000000 1.0
C      1  0.5242590000000  0.5669110000000  0.4991430000000 1.0
C      1  0.4035270000000  0.4852100000000  0.4775960000000 1.0
C      1  0.5473140000000  0.4562700000000  0.4776310000000 1.0
C      1  0.4492590000000  0.4833880000000  0.4049930000000 1.0
C      1  0.5302820000000  0.4711820000000  0.5235640000000 1.0
C      1  0.4978600000000  0.3980450000000  0.5393030000000 1.0
C      1  0.4638680000000  0.4639380000000  0.4968180000000 1.0
C      1  0.5215880000000  0.4253200000000  0.5078420000000 1.0
C      1  0.5486760000000  0.4940280000000  0.5352470000000 1.0
C      1  0.4235240000000  0.5293350000000  0.4316250000000 1.0
C      1  0.4522300000000  0.4152940000000  0.5187710000000 1.0
C      1  0.4437800000000  0.4208210000000  0.4687620000000 1.0
C      1  0.4104290000000  0.5492360000000  0.4499710000000 1.0
C      1  0.4838950000000  0.5158850000000  0.5685930000000 1.0
C      1  0.5297440000000  0.5087220000000  0.5531480000000 1.0
C      1  0.5506010000000  0.4774510000000  0.5762900000000 1.0
C      1  0.5726390000000  0.4974620000000  0.4204020000000 1.0
C      1  0.5018830000000  0.4849010000000  0.6032330000000 1.0
C      1  0.4471140000000  0.5199470000000  0.4826360000000 1.0
C      1  0.5511940000000  0.3985370000000  0.4802900000000 1.0
C      1  0.4009930000000  0.5171880000000  0.5168600000000 1.0
C      1  0.4149540000000  0.4608830000000  0.5459940000000 1.0
C      1  0.4719840000000  0.4785120000000  0.4463920000000 1.0
C      1  0.5918480000000  0.4686990000000  0.5308820000000 1.0
C      1  0.4127990000000  0.5023630000000  0.4365310000000 1.0
C      1  0.5698340000000  0.5306480000000  0.5740860000000 1.0
C      1  0.4602420000000  0.5279760000000  0.5287690000000 1.0
C      1  0.4877490000000  0.5598050000000  0.5424000000000 1.0
C      1  0.5000020000000  0.5169430000000  0.5137050000000 1.0
C      1  0.4300900000000  0.5678850000000  0.4682430000000 1.0
C      1  0.5303100000000  0.5383570000000  0.5490090000000 1.0
C      1  0.4231700000000  0.5751600000000  0.5349510000000 1.0
C      1  0.5169020000000  0.5498800000000  0.5738460000000 1.0
C      1  0.4906730000000  0.4211680000000  0.5601710000000 1.0
C      1  0.5201950000000  0.6050400000000  0.4917060000000 1.0
C      1  0.4545170000000  0.4799640000000  0.5472870000000 1.0
C      1  0.5778220000000  0.4446490000000  0.5394400000000 1.0
C      1  0.4935700000000  0.4695010000000  0.4891510000000 1.0
C      1  0.3975020000000  0.4896040000000  0.5070140000000 1.0
C      1  0.5119900000000  0.4866040000000  0.5052740000000 1.0
C      1  0.4167350000000  0.4809730000000  0.5685760000000 1.0
C      1  0.5047180000000  0.5306980000000  0.6110050000000 1.0
C      1  0.4150100000000  0.5106650000000  0.5670000000000 1.0
C      1  0.5473640000000  0.5119060000000  0.4136380000000 1.0
C      1  0.4686850000000  0.5455430000000  0.4438520000000 1.0
C      1  0.4312140000000  0.5458680000000  0.4904220000000 1.0
C      1  0.4567830000000  0.5720670000000  0.4535390000000 1.0
C      1  0.5175290000000  0.4789290000000  0.4459550000000 1.0
C      1  0.4323080000000  0.4953970000000  0.4693440000000 1.0
C      1  0.5649740000000  0.5766510000000  0.4650260000000 1.0
C      1  0.4527750000000  0.5269570000000  0.4291020000000 1.0
C      1  0.5690490000000  0.4310480000000  0.5134190000000 1.0
C      1  0.4738040000000  0.5972200000000  0.4637790000000 1.0
C      1  0.4886840000000  0.4413210000000  0.5379230000000 1.0
C      1  0.4609980000000  0.6008480000000  0.4897200000000 1.0
C      1  0.4794270000000  0.4534320000000  0.4294920000000 1.0
C      1  0.5364640000000  0.4156030000000  0.4404980000000 1.0
C      1  0.5437990000000  0.4588070000000  0.4164200000000 1.0
C      1  0.4275580000000  0.5509220000000  0.5479390000000 1.0
C      1  0.5114050000000  0.5527580000000  0.4520110000000 1.0
C      1  0.5293010000000  0.4936770000000  0.5946930000000 1.0
C      1  0.5605530000000  0.5452760000000  0.5496060000000 1.0
C      1  0.5568100000000  0.4473470000000  0.5587170000000 1.0
C      1  0.5916100000000  0.4948150000000  0.5445180000000 1.0
C      1  0.5531840000000  0.5152630000000  0.5146560000000 1.0
C      1  0.5946460000000  0.4877710000000  0.4600420000000 1.0
C      1  0.4788800000000  0.5472480000000  0.5681300000000 1.0
C      1  0.4881520000000  0.5104320000000  0.5993800000000 1.0
C      1  0.5494840000000  0.5418200000000  0.5933500000000 1.0
C      1  0.4684430000000  0.4071100000000  0.4687650000000 1.0
C      1  0.5266540000000  0.4079540000000  0.5322060000000 1.0
C      1  0.5421110000000  0.4460180000000  0.5062180000000 1.0
C      1  0.5732530000000  0.5581680000000  0.5070320000000 1.0
C      1  0.4952280000000  0.4858930000000  0.4640710000000 1.0
C      1  0.5320050000000  0.5737250000000  0.5814240000000 1.0
C      1  0.5218390000000  0.5978910000000  0.5393980000000 1.0
C      1  0.5567450000000  0.5390090000000  0.4190030000000 1.0
C      1  0.4408780000000  0.4730350000000  0.5827970000000 1.0
C      1  0.5738820000000  0.5819730000000  0.5218870000000 1.0
C      1  0.4986230000000  0.5152830000000  0.4747080000000 1.0
C      1  0.4502140000000  0.4710320000000  0.4672690000000 1.0
C      1  0.4614560000000  0.4420340000000  0.5268790000000 1.0
C      1  0.4953780000000  0.5072720000000  0.4118910000000 1.0
C      1  0.5022180000000  0.4698510000000  0.3891920000000 1.0
C      1  0.5461690000000  0.3874040000000  0.5255200000000 1.0
C      1  0.6110770000000  0.5108840000000  0.5031430000000 1.0
C      1  0.4208210000000  0.4798800000000  0.4170000000000 1.0
C      1  0.4066320000000  0.4549330000000  0.4720170000000 1.0
C      1  0.5162910000000  0.4086690000000  0.4834410000000 1.0
C      1  0.5361800000000  0.4317190000000  0.4160480000000 1.0
C      1  0.5412690000000  0.5890270000000  0.5583150000000 1.0
C      1  0.4671660000000  0.5005500000000  0.4231150000000 1.0
C      1  0.5131350000000  0.4245970000000  0.4584410000000 1.0
C      1  0.4774270000000  0.3971290000000  0.5153120000000 1.0
C      1  0.5712090000000  0.5005280000000  0.5663820000000 1.0
C      1  0.3901950000000  0.5036140000000  0.4577110000000 1.0
END
