TITL C-951348-1603-414 -1.54469131907601e-07 125000 -353.638091304709 0 0 57 (C1) n - 1
REM
REM in /home/bkarasulu/work/CARBON/AIRSS/Generating-Clusters/EDIP-Nigel-Params/with-SteepDescent/Only-C1/SD-CG/HFTN-CG
REM
REM
REM
REM
REM
REM ./C.cell (11c1c37f851c82e70ff6c80c92926a4b)
REM
REM compiler GCC version 9.2.1 20190827 (Red Hat 9.2.1-1)
REM options -cpp -mtune=generic -march=x86-64 -g -O0 -fpre-include=/usr/include/finclude/math-vector-fortran.h
REM seed -1182812405 -2140553375 1069836772 395917642 2054591030 1853132624 434544578 377421096 -1487265607 -1446754080 1228572461 -496292589 -1893820859 527688732 -1002107687 -711781612 -696965917 -1420771803 606309647 -187847750 -856857815 167211244 1869253024 1550964734 -1219041050 1160607211 637726331 155263275 1245780378 -559649713 -4805884 -937335185 899284066
REM
CELL 1.54180   50.00000   50.00000   50.00000   90.00000   90.00000   90.00000
LATT -1
SFAC C  
C      1  0.5334550000000  0.4486560000000  0.4892570000000 1.0
C      1  0.5575030000000  0.4653750000000  0.4920110000000 1.0
C      1  0.5575170000000  0.4790900000000  0.5186300000000 1.0
C      1  0.5718040000000  0.5056090000000  0.5249800000000 1.0
C      1  0.5297730000000  0.5047770000000  0.5483490000000 1.0
C      1  0.5186440000000  0.5026350000000  0.5005860000000 1.0
C      1  0.5052880000000  0.4624250000000  0.4282890000000 1.0
C      1  0.4581080000000  0.4992370000000  0.5681320000000 1.0
C      1  0.5031640000000  0.5335030000000  0.5791420000000 1.0
C      1  0.5355740000000  0.5532750000000  0.4945600000000 1.0
C      1  0.4860190000000  0.4695070000000  0.5414160000000 1.0
C      1  0.4667230000000  0.4350290000000  0.5117680000000 1.0
C      1  0.4682460000000  0.5240430000000  0.4487710000000 1.0
C      1  0.4409610000000  0.5233680000000  0.4598250000000 1.0
C      1  0.5125410000000  0.4622630000000  0.5312290000000 1.0
C      1  0.5063750000000  0.5092310000000  0.5650290000000 1.0
C      1  0.4852770000000  0.5582560000000  0.5117170000000 1.0
C      1  0.5555520000000  0.5193350000000  0.5473820000000 1.0
C      1  0.4929370000000  0.4934530000000  0.4815350000000 1.0
C      1  0.4472150000000  0.5041200000000  0.5201780000000 1.0
C      1  0.4963050000000  0.4882740000000  0.4306900000000 1.0
C      1  0.4615760000000  0.4564390000000  0.5309570000000 1.0
C      1  0.4835730000000  0.5438400000000  0.4635720000000 1.0
C      1  0.4275800000000  0.5192620000000  0.5056760000000 1.0
C      1  0.5283110000000  0.5603950000000  0.5493690000000 1.0
C      1  0.5097240000000  0.5445490000000  0.4539490000000 1.0
C      1  0.4809950000000  0.5111420000000  0.5028360000000 1.0
C      1  0.5030680000000  0.5530950000000  0.5588030000000 1.0
C      1  0.4945560000000  0.4241400000000  0.4787840000000 1.0
C      1  0.4784330000000  0.4955710000000  0.4538770000000 1.0
C      1  0.4836300000000  0.4920960000000  0.5594440000000 1.0
C      1  0.5204220000000  0.4340210000000  0.4672350000000 1.0
C      1  0.4490920000000  0.4579990000000  0.4738530000000 1.0
C      1  0.5456820000000  0.5158980000000  0.4589110000000 1.0
C      1  0.5402760000000  0.5222830000000  0.4874290000000 1.0
C      1  0.5201190000000  0.4396820000000  0.5136800000000 1.0
C      1  0.4476940000000  0.5153820000000  0.5477800000000 1.0
C      1  0.4728000000000  0.4444480000000  0.4847560000000 1.0
C      1  0.4809950000000  0.5517730000000  0.5397160000000 1.0
C      1  0.5531310000000  0.5489640000000  0.5418580000000 1.0
C      1  0.5264830000000  0.5266870000000  0.4407050000000 1.0
C      1  0.4407680000000  0.4745450000000  0.5193730000000 1.0
C      1  0.4563250000000  0.5417800000000  0.5479420000000 1.0
C      1  0.5186640000000  0.4433990000000  0.4411580000000 1.0
C      1  0.4518230000000  0.4804050000000  0.4549610000000 1.0
C      1  0.4309820000000  0.4642260000000  0.4947830000000 1.0
C      1  0.4294070000000  0.4977630000000  0.4556640000000 1.0
C      1  0.5292490000000  0.4860470000000  0.5256710000000 1.0
C      1  0.4429330000000  0.5341650000000  0.4876270000000 1.0
C      1  0.5142400000000  0.5083680000000  0.4236340000000 1.0
C      1  0.4731370000000  0.5384890000000  0.4919970000000 1.0
C      1  0.5005750000000  0.4186350000000  0.5076500000000 1.0
C      1  0.5686920000000  0.5246600000000  0.5022750000000 1.0
C      1  0.5634080000000  0.4955200000000  0.4522410000000 1.0
C      1  0.5703790000000  0.4766270000000  0.4699810000000 1.0
C      1  0.5119350000000  0.5637170000000  0.5055550000000 1.0
C      1  0.5603630000000  0.5525260000000  0.5128200000000 1.0
END
