TITL C-950524-1808-288 -5.46343284242391e-06 125000 -1135.82868558283 0 0 180 (C1) n - 1
REM
REM in /home/bkarasulu/work/CARBON/AIRSS/Generating-Clusters/EDIP-Nigel-Params/with-SteepDescent/Only-C1/SD-CG/HFTN-CG
REM
REM
REM
REM
REM
REM ./C.cell (11c1c37f851c82e70ff6c80c92926a4b)
REM
REM compiler GCC version 9.2.1 20190827 (Red Hat 9.2.1-1)
REM options -cpp -mtune=generic -march=x86-64 -g -O0 -fpre-include=/usr/include/finclude/math-vector-fortran.h
REM seed -1701756838 -333759749 -801290196 -492111902 -1416591558 358946687 1580372776 1005286611 -1760638126 329939646 -43489551 1248875091 125138120 2079667794 1951193785 -1625608358 -1669824691 -140913443 -936427596 -402639899 1344345318 639233774 -1551459154 1646826126 360484609 82738652 1097235897 -1359546669 147447288 917444159 1370363767 -266177727 -1181625615
REM
CELL 1.54180   50.00000   50.00000   50.00000   90.00000   90.00000   90.00000
LATT -1
SFAC C  
C      1  0.4840380000000  0.4364890000000  0.5002810000000 1.0
C      1  0.5600730000000  0.4236680000000  0.4555320000000 1.0
C      1  0.4359280000000  0.6018420000000  0.5308610000000 1.0
C      1  0.6094440000000  0.5185170000000  0.5051450000000 1.0
C      1  0.5662240000000  0.4325450000000  0.5569700000000 1.0
C      1  0.4624760000000  0.4955080000000  0.4687800000000 1.0
C      1  0.5669760000000  0.4844820000000  0.5013020000000 1.0
C      1  0.4966450000000  0.4215650000000  0.4208170000000 1.0
C      1  0.4787000000000  0.4345380000000  0.5312760000000 1.0
C      1  0.4335380000000  0.5187910000000  0.5822600000000 1.0
C      1  0.5080630000000  0.4254960000000  0.5952930000000 1.0
C      1  0.4579860000000  0.4769370000000  0.5898350000000 1.0
C      1  0.4703460000000  0.5045010000000  0.5473520000000 1.0
C      1  0.4589240000000  0.4524890000000  0.4935790000000 1.0
C      1  0.5082330000000  0.4706060000000  0.6005270000000 1.0
C      1  0.4709700000000  0.4774280000000  0.5616020000000 1.0
C      1  0.4320710000000  0.4618310000000  0.5852720000000 1.0
C      1  0.5622330000000  0.5333960000000  0.5093190000000 1.0
C      1  0.4908310000000  0.5392090000000  0.3986570000000 1.0
C      1  0.5033330000000  0.6082580000000  0.4631980000000 1.0
C      1  0.4076750000000  0.5629390000000  0.5104480000000 1.0
C      1  0.4964860000000  0.5184880000000  0.4436910000000 1.0
C      1  0.5332370000000  0.5762460000000  0.5553560000000 1.0
C      1  0.4283380000000  0.4312510000000  0.4459450000000 1.0
C      1  0.4212570000000  0.5034250000000  0.4090280000000 1.0
C      1  0.5376680000000  0.5431000000000  0.4733570000000 1.0
C      1  0.4075270000000  0.4708820000000  0.5168750000000 1.0
C      1  0.4496120000000  0.5028840000000  0.4429530000000 1.0
C      1  0.6019870000000  0.4622850000000  0.4625650000000 1.0
C      1  0.4708660000000  0.4725520000000  0.3977510000000 1.0
C      1  0.5273480000000  0.5774490000000  0.4410000000000 1.0
C      1  0.5862200000000  0.5350620000000  0.4632200000000 1.0
C      1  0.4231680000000  0.5131150000000  0.4519880000000 1.0
C      1  0.5424840000000  0.4670830000000  0.5419550000000 1.0
C      1  0.4851660000000  0.5972620000000  0.4424100000000 1.0
C      1  0.4311920000000  0.4610040000000  0.4507600000000 1.0
C      1  0.5505920000000  0.4099240000000  0.5592410000000 1.0
C      1  0.4681370000000  0.4063000000000  0.5365380000000 1.0
C      1  0.4500450000000  0.5031620000000  0.5983380000000 1.0
C      1  0.5085020000000  0.5795170000000  0.4183080000000 1.0
C      1  0.5634600000000  0.5316650000000  0.5862990000000 1.0
C      1  0.4879440000000  0.4586080000000  0.4552520000000 1.0
C      1  0.4592180000000  0.5848990000000  0.4479270000000 1.0
C      1  0.4398530000000  0.4168110000000  0.4693710000000 1.0
C      1  0.4355020000000  0.4326390000000  0.4960630000000 1.0
C      1  0.5336670000000  0.4065300000000  0.5034430000000 1.0
C      1  0.5343460000000  0.4086570000000  0.4534440000000 1.0
C      1  0.4247520000000  0.4763040000000  0.4179620000000 1.0
C      1  0.6081880000000  0.4904290000000  0.4668610000000 1.0
C      1  0.4291100000000  0.5589770000000  0.5565830000000 1.0
C      1  0.5353830000000  0.5142170000000  0.4747380000000 1.0
C      1  0.4973760000000  0.4694470000000  0.4080150000000 1.0
C      1  0.4891450000000  0.4073580000000  0.4815150000000 1.0
C      1  0.5850190000000  0.4970300000000  0.4232070000000 1.0
C      1  0.4963500000000  0.5122520000000  0.3878860000000 1.0
C      1  0.5042860000000  0.5789240000000  0.5610570000000 1.0
C      1  0.4972820000000  0.5337730000000  0.5740230000000 1.0
C      1  0.5055420000000  0.4587950000000  0.5011680000000 1.0
C      1  0.5265620000000  0.4489510000000  0.5929780000000 1.0
C      1  0.4367650000000  0.4348430000000  0.5749320000000 1.0
C      1  0.4325800000000  0.5299760000000  0.4121140000000 1.0
C      1  0.5896140000000  0.5394650000000  0.4938320000000 1.0
C      1  0.4724160000000  0.6000860000000  0.4989700000000 1.0
C      1  0.5150270000000  0.5368840000000  0.5278590000000 1.0
C      1  0.4093880000000  0.5583320000000  0.4589530000000 1.0
C      1  0.5485560000000  0.5561490000000  0.5724440000000 1.0
C      1  0.5193030000000  0.4859440000000  0.5472340000000 1.0
C      1  0.5211560000000  0.5345610000000  0.5573620000000 1.0
C      1  0.4450170000000  0.5053070000000  0.5337990000000 1.0
C      1  0.3993640000000  0.4992880000000  0.5143380000000 1.0
C      1  0.4746970000000  0.4048240000000  0.5655110000000 1.0
C      1  0.4906410000000  0.5845840000000  0.5367360000000 1.0
C      1  0.5799630000000  0.4660910000000  0.4422980000000 1.0
C      1  0.4431600000000  0.5337030000000  0.5223910000000 1.0
C      1  0.4597240000000  0.5498200000000  0.4816600000000 1.0
C      1  0.5731440000000  0.4355010000000  0.5279610000000 1.0
C      1  0.5918350000000  0.5085510000000  0.4503500000000 1.0
C      1  0.5627900000000  0.5543130000000  0.4597330000000 1.0
C      1  0.5305530000000  0.5988560000000  0.5056830000000 1.0
C      1  0.5007490000000  0.4497660000000  0.4290660000000 1.0
C      1  0.4177200000000  0.5447310000000  0.5330190000000 1.0
C      1  0.4864760000000  0.5378050000000  0.4896190000000 1.0
C      1  0.5072650000000  0.4725270000000  0.4728650000000 1.0
C      1  0.5507340000000  0.4557870000000  0.5713560000000 1.0
C      1  0.5017710000000  0.5945940000000  0.4903430000000 1.0
C      1  0.4474990000000  0.4590600000000  0.4099320000000 1.0
C      1  0.5721610000000  0.5749660000000  0.5254970000000 1.0
C      1  0.5163750000000  0.3988070000000  0.5255950000000 1.0
C      1  0.5648860000000  0.4800350000000  0.5845460000000 1.0
C      1  0.5148830000000  0.4937290000000  0.4047020000000 1.0
C      1  0.4925460000000  0.4765000000000  0.5214260000000 1.0
C      1  0.4801880000000  0.4638690000000  0.6073980000000 1.0
C      1  0.4785190000000  0.6096530000000  0.5447070000000 1.0
C      1  0.4104900000000  0.5451310000000  0.4862880000000 1.0
C      1  0.4701340000000  0.4140560000000  0.4309980000000 1.0
C      1  0.4689480000000  0.5013490000000  0.3923720000000 1.0
C      1  0.4384760000000  0.5324290000000  0.4932290000000 1.0
C      1  0.5624070000000  0.5046580000000  0.4055970000000 1.0
C      1  0.4230730000000  0.5040340000000  0.5572820000000 1.0
C      1  0.4606190000000  0.4654000000000  0.4655190000000 1.0
C      1  0.4609970000000  0.4738380000000  0.5168080000000 1.0
C      1  0.5507860000000  0.4583460000000  0.4934140000000 1.0
C      1  0.5140000000000  0.5553310000000  0.4032940000000 1.0
C      1  0.5517500000000  0.5612630000000  0.4328100000000 1.0
C      1  0.5953180000000  0.4528970000000  0.5182150000000 1.0
C      1  0.5241690000000  0.4059310000000  0.5519900000000 1.0
C      1  0.5338630000000  0.4587960000000  0.4635610000000 1.0
C      1  0.5612860000000  0.4176790000000  0.5064180000000 1.0
C      1  0.5032670000000  0.4098080000000  0.5709550000000 1.0
C      1  0.5222810000000  0.5122790000000  0.4296690000000 1.0
C      1  0.4985370000000  0.5371520000000  0.6017140000000 1.0
C      1  0.4608340000000  0.5182770000000  0.4175360000000 1.0
C      1  0.5001900000000  0.4685280000000  0.5637930000000 1.0
C      1  0.4812240000000  0.3837470000000  0.4961420000000 1.0
C      1  0.5346910000000  0.5513130000000  0.5096940000000 1.0
C      1  0.5973450000000  0.4816830000000  0.5399650000000 1.0
C      1  0.5317430000000  0.4481710000000  0.5177870000000 1.0
C      1  0.4674960000000  0.4106610000000  0.4602790000000 1.0
C      1  0.4259490000000  0.4328290000000  0.5466790000000 1.0
C      1  0.4432730000000  0.5844210000000  0.5542750000000 1.0
C      1  0.4868740000000  0.5456500000000  0.4369130000000 1.0
C      1  0.4468740000000  0.4309570000000  0.4221120000000 1.0
C      1  0.4678800000000  0.5861970000000  0.5739120000000 1.0
C      1  0.5135680000000  0.5564530000000  0.4586140000000 1.0
C      1  0.5695320000000  0.5788750000000  0.4768320000000 1.0
C      1  0.4628690000000  0.4251230000000  0.5816850000000 1.0
C      1  0.5511860000000  0.5083250000000  0.4979240000000 1.0
C      1  0.5471420000000  0.5044530000000  0.5885860000000 1.0
C      1  0.5480880000000  0.6000620000000  0.4809570000000 1.0
C      1  0.5860050000000  0.5701240000000  0.5002640000000 1.0
C      1  0.4426790000000  0.5030090000000  0.4900920000000 1.0
C      1  0.5315020000000  0.6034430000000  0.4561760000000 1.0
C      1  0.5611230000000  0.5102220000000  0.5471650000000 1.0
C      1  0.4804380000000  0.4345060000000  0.6034660000000 1.0
C      1  0.4112450000000  0.4691790000000  0.4711750000000 1.0
C      1  0.4117500000000  0.4525270000000  0.4947500000000 1.0
C      1  0.4790760000000  0.5537320000000  0.6095020000000 1.0
C      1  0.4883750000000  0.3898500000000  0.5220920000000 1.0
C      1  0.5911650000000  0.5223340000000  0.5762810000000 1.0
C      1  0.5667230000000  0.4841490000000  0.5318400000000 1.0
C      1  0.5182520000000  0.4060230000000  0.4303610000000 1.0
C      1  0.4280970000000  0.5846840000000  0.5068400000000 1.0
C      1  0.4026570000000  0.5176580000000  0.5381440000000 1.0
C      1  0.5987030000000  0.5336030000000  0.5495560000000 1.0
C      1  0.5879610000000  0.4923560000000  0.5701930000000 1.0
C      1  0.5929150000000  0.4477270000000  0.4877420000000 1.0
C      1  0.5429410000000  0.4836520000000  0.3987770000000 1.0
C      1  0.5417920000000  0.5018410000000  0.4504630000000 1.0
C      1  0.5013890000000  0.5650430000000  0.4839380000000 1.0
C      1  0.5564920000000  0.4778350000000  0.4598800000000 1.0
C      1  0.6030860000000  0.4928670000000  0.4944130000000 1.0
C      1  0.4615940000000  0.6161370000000  0.5227330000000 1.0
C      1  0.5198140000000  0.4049380000000  0.4779970000000 1.0
C      1  0.5295130000000  0.4483720000000  0.4346210000000 1.0
C      1  0.6104730000000  0.5115080000000  0.5336020000000 1.0
C      1  0.5043590000000  0.4444750000000  0.5433360000000 1.0
C      1  0.5749970000000  0.4247610000000  0.4814020000000 1.0
C      1  0.5723660000000  0.4382420000000  0.4331530000000 1.0
C      1  0.5423580000000  0.5772450000000  0.5248070000000 1.0
C      1  0.4131320000000  0.4589020000000  0.5419130000000 1.0
C      1  0.4135140000000  0.5859660000000  0.4571700000000 1.0
C      1  0.4596170000000  0.5636450000000  0.5925990000000 1.0
C      1  0.4585180000000  0.5549910000000  0.4508080000000 1.0
C      1  0.4710280000000  0.5625150000000  0.5280020000000 1.0
C      1  0.5345490000000  0.5086700000000  0.5611190000000 1.0
C      1  0.4570690000000  0.5743620000000  0.5020200000000 1.0
C      1  0.5372710000000  0.5399940000000  0.4155640000000 1.0
C      1  0.4289920000000  0.5423880000000  0.4415860000000 1.0
C      1  0.4918130000000  0.5080870000000  0.4714440000000 1.0
C      1  0.4862880000000  0.5357070000000  0.5204860000000 1.0
C      1  0.4571120000000  0.4558700000000  0.5417220000000 1.0
C      1  0.5567300000000  0.5306410000000  0.3960510000000 1.0
C      1  0.4728090000000  0.5325760000000  0.5578110000000 1.0
C      1  0.4140160000000  0.4977640000000  0.4796040000000 1.0
C      1  0.5474250000000  0.4582610000000  0.4127150000000 1.0
C      1  0.4352200000000  0.5990920000000  0.4480400000000 1.0
C      1  0.4156930000000  0.4758810000000  0.5646990000000 1.0
C      1  0.4477750000000  0.5431490000000  0.5735020000000 1.0
C      1  0.4385670000000  0.4166600000000  0.5237040000000 1.0
C      1  0.5708780000000  0.5395320000000  0.5392570000000 1.0
END
