TITL C-950527-2551-514 -1.32534394038767e-06 125000 -913.286720686305 0 0 145 (C1) n - 1
REM
REM in /home/bkarasulu/work/CARBON/AIRSS/Generating-Clusters/EDIP-Nigel-Params/with-SteepDescent/Only-C1/SD-CG/HFTN-CG
REM
REM
REM
REM
REM
REM ./C.cell (11c1c37f851c82e70ff6c80c92926a4b)
REM
REM compiler GCC version 9.2.1 20190827 (Red Hat 9.2.1-1)
REM options -cpp -mtune=generic -march=x86-64 -g -O0 -fpre-include=/usr/include/finclude/math-vector-fortran.h
REM seed -1919317233 1284904552 -1178020073 1945497216 260038744 1683225269 732143612 -65975592 1931328693 -1433829726 704130357 263261831 1105582341 -1219997631 -688059369 -1481924543 -562581848 -104142496 2092145549 859960132 1642524046 -1733897162 -2001906601 -212835478 -245372395 1137305899 959118580 1812117988 -1663256325 111344636 -1820611910 1776768257 1475645012
REM
CELL 1.54180   50.00000   50.00000   50.00000   90.00000   90.00000   90.00000
LATT -1
SFAC C  
C      1  0.5081780000000  0.4065630000000  0.4681920000000 1.0
C      1  0.4691720000000  0.3944490000000  0.4963420000000 1.0
C      1  0.5195860000000  0.6063360000000  0.5362290000000 1.0
C      1  0.5225600000000  0.4532190000000  0.4481330000000 1.0
C      1  0.5810630000000  0.4915590000000  0.5523180000000 1.0
C      1  0.5101290000000  0.4378640000000  0.4704680000000 1.0
C      1  0.5058670000000  0.5563190000000  0.5761140000000 1.0
C      1  0.4530320000000  0.4174950000000  0.4573800000000 1.0
C      1  0.5552130000000  0.5072370000000  0.5431380000000 1.0
C      1  0.4338200000000  0.5590190000000  0.4342300000000 1.0
C      1  0.5101790000000  0.4149670000000  0.5316140000000 1.0
C      1  0.5408940000000  0.4920370000000  0.4826470000000 1.0
C      1  0.5936170000000  0.5248940000000  0.5091130000000 1.0
C      1  0.4794050000000  0.6040150000000  0.4792850000000 1.0
C      1  0.5484950000000  0.5846940000000  0.5498630000000 1.0
C      1  0.4489560000000  0.4101560000000  0.4852630000000 1.0
C      1  0.4579490000000  0.5250850000000  0.4925690000000 1.0
C      1  0.4818550000000  0.4252750000000  0.5673040000000 1.0
C      1  0.4394620000000  0.4450290000000  0.5505280000000 1.0
C      1  0.4446750000000  0.4360070000000  0.4991030000000 1.0
C      1  0.5670660000000  0.4848940000000  0.5995670000000 1.0
C      1  0.4098350000000  0.4686700000000  0.5175910000000 1.0
C      1  0.5295310000000  0.4716930000000  0.5645750000000 1.0
C      1  0.4954430000000  0.5031600000000  0.5477400000000 1.0
C      1  0.5663560000000  0.5325980000000  0.4962490000000 1.0
C      1  0.5176010000000  0.3954180000000  0.5094790000000 1.0
C      1  0.4659210000000  0.4503370000000  0.5667510000000 1.0
C      1  0.4586790000000  0.4985940000000  0.4541310000000 1.0
C      1  0.5389600000000  0.4043020000000  0.4916970000000 1.0
C      1  0.4149040000000  0.4835950000000  0.4709710000000 1.0
C      1  0.5153690000000  0.5261680000000  0.4625130000000 1.0
C      1  0.4802560000000  0.4822270000000  0.4402080000000 1.0
C      1  0.5325660000000  0.5326610000000  0.4021490000000 1.0
C      1  0.4467860000000  0.5725600000000  0.5085780000000 1.0
C      1  0.4179630000000  0.5192770000000  0.5490080000000 1.0
C      1  0.4119650000000  0.4964430000000  0.5050410000000 1.0
C      1  0.4714870000000  0.4863040000000  0.4116080000000 1.0
C      1  0.4590710000000  0.5453350000000  0.5665520000000 1.0
C      1  0.4795230000000  0.5595150000000  0.5105200000000 1.0
C      1  0.5502040000000  0.4399760000000  0.5230580000000 1.0
C      1  0.5448990000000  0.6001530000000  0.5271780000000 1.0
C      1  0.5697510000000  0.4833340000000  0.4373000000000 1.0
C      1  0.4598890000000  0.5847220000000  0.4645510000000 1.0
C      1  0.5459770000000  0.5653440000000  0.4655340000000 1.0
C      1  0.5239980000000  0.5464130000000  0.4823030000000 1.0
C      1  0.5527600000000  0.4542890000000  0.5705730000000 1.0
C      1  0.4638440000000  0.5243590000000  0.5855880000000 1.0
C      1  0.4469130000000  0.6007670000000  0.5160890000000 1.0
C      1  0.4550700000000  0.4938350000000  0.5311200000000 1.0
C      1  0.5178500000000  0.4801520000000  0.6101820000000 1.0
C      1  0.5060480000000  0.5908840000000  0.4807100000000 1.0
C      1  0.5531540000000  0.5543050000000  0.4382460000000 1.0
C      1  0.4558940000000  0.4327340000000  0.5277350000000 1.0
C      1  0.5357960000000  0.5059410000000  0.5656320000000 1.0
C      1  0.5108260000000  0.4878170000000  0.5266790000000 1.0
C      1  0.4338540000000  0.5441930000000  0.5501710000000 1.0
C      1  0.4783510000000  0.5309690000000  0.5112670000000 1.0
C      1  0.4902200000000  0.5198090000000  0.5973040000000 1.0
C      1  0.4677420000000  0.4815950000000  0.5971920000000 1.0
C      1  0.5717250000000  0.5317690000000  0.4319830000000 1.0
C      1  0.5174590000000  0.4987650000000  0.4670200000000 1.0
C      1  0.5858210000000  0.5209100000000  0.5625150000000 1.0
C      1  0.4363130000000  0.5060370000000  0.4335370000000 1.0
C      1  0.5790350000000  0.4356180000000  0.4879230000000 1.0
C      1  0.5537690000000  0.5560100000000  0.5476820000000 1.0
C      1  0.5867280000000  0.4773930000000  0.5250220000000 1.0
C      1  0.5203520000000  0.4418040000000  0.5215970000000 1.0
C      1  0.5588130000000  0.5189540000000  0.4084390000000 1.0
C      1  0.5107240000000  0.4631830000000  0.5848990000000 1.0
C      1  0.5527410000000  0.4906810000000  0.4145440000000 1.0
C      1  0.4378040000000  0.4426940000000  0.4500600000000 1.0
C      1  0.4849630000000  0.4756290000000  0.5726040000000 1.0
C      1  0.4416800000000  0.5348910000000  0.4190440000000 1.0
C      1  0.5102780000000  0.4814730000000  0.4440720000000 1.0
C      1  0.4112860000000  0.5052710000000  0.4501510000000 1.0
C      1  0.5646200000000  0.5397930000000  0.5710160000000 1.0
C      1  0.4960940000000  0.3900990000000  0.4906720000000 1.0
C      1  0.5133820000000  0.4633560000000  0.5403650000000 1.0
C      1  0.5110280000000  0.5126780000000  0.4038780000000 1.0
C      1  0.4215930000000  0.4679580000000  0.5454290000000 1.0
C      1  0.5708690000000  0.5591710000000  0.4836670000000 1.0
C      1  0.4231790000000  0.5537420000000  0.4609810000000 1.0
C      1  0.5196220000000  0.5846930000000  0.4556710000000 1.0
C      1  0.4342780000000  0.4946900000000  0.5546900000000 1.0
C      1  0.5307030000000  0.5429250000000  0.5340740000000 1.0
C      1  0.4816050000000  0.4124830000000  0.4482210000000 1.0
C      1  0.4145910000000  0.4531590000000  0.4674090000000 1.0
C      1  0.5466060000000  0.4615700000000  0.4768070000000 1.0
C      1  0.5043430000000  0.5638950000000  0.4357510000000 1.0
C      1  0.5007850000000  0.5642010000000  0.4903030000000 1.0
C      1  0.5093680000000  0.4288360000000  0.5777610000000 1.0
C      1  0.4865000000000  0.5200620000000  0.4188780000000 1.0
C      1  0.5959720000000  0.4851470000000  0.4763050000000 1.0
C      1  0.5278670000000  0.4151350000000  0.5576220000000 1.0
C      1  0.4684940000000  0.5235150000000  0.4649930000000 1.0
C      1  0.5401510000000  0.4918660000000  0.5192770000000 1.0
C      1  0.4803130000000  0.4161500000000  0.5392920000000 1.0
C      1  0.5082100000000  0.4513300000000  0.4963520000000 1.0
C      1  0.5299200000000  0.5559000000000  0.4203440000000 1.0
C      1  0.5434850000000  0.4976800000000  0.6086170000000 1.0
C      1  0.4434400000000  0.5004460000000  0.5023220000000 1.0
C      1  0.4790310000000  0.5878260000000  0.5522540000000 1.0
C      1  0.4795720000000  0.5658060000000  0.5689590000000 1.0
C      1  0.4886350000000  0.4264680000000  0.4232290000000 1.0
C      1  0.5375140000000  0.5338310000000  0.5066010000000 1.0
C      1  0.4382760000000  0.5724000000000  0.4794960000000 1.0
C      1  0.5154540000000  0.4395480000000  0.4211890000000 1.0
C      1  0.4431750000000  0.4531640000000  0.4221480000000 1.0
C      1  0.4159880000000  0.4456840000000  0.4975020000000 1.0
C      1  0.6106050000000  0.5440330000000  0.4965750000000 1.0
C      1  0.4407030000000  0.4829590000000  0.4135680000000 1.0
C      1  0.5131350000000  0.4615930000000  0.4006780000000 1.0
C      1  0.5401360000000  0.5231430000000  0.5919550000000 1.0
C      1  0.4461150000000  0.4829600000000  0.4772920000000 1.0
C      1  0.4734260000000  0.6080540000000  0.5093480000000 1.0
C      1  0.4837060000000  0.4641800000000  0.3944450000000 1.0
C      1  0.5226010000000  0.4871490000000  0.4149260000000 1.0
C      1  0.4042450000000  0.5457800000000  0.5126940000000 1.0
C      1  0.5657810000000  0.4580620000000  0.4516970000000 1.0
C      1  0.4562390000000  0.5788200000000  0.4354600000000 1.0
C      1  0.5985370000000  0.5634010000000  0.4814730000000 1.0
C      1  0.5541900000000  0.4307830000000  0.5523330000000 1.0
C      1  0.4606640000000  0.4576140000000  0.4849380000000 1.0
C      1  0.4479310000000  0.4999310000000  0.5838500000000 1.0
C      1  0.5151980000000  0.5256480000000  0.5550350000000 1.0
C      1  0.4682210000000  0.4420170000000  0.4079210000000 1.0
C      1  0.5598630000000  0.4210400000000  0.5027680000000 1.0
C      1  0.5602160000000  0.4671030000000  0.5129890000000 1.0
C      1  0.5753850000000  0.4723930000000  0.5756740000000 1.0
C      1  0.4926820000000  0.5971520000000  0.5298210000000 1.0
C      1  0.4035030000000  0.5196170000000  0.5233800000000 1.0
C      1  0.4721360000000  0.4677320000000  0.5320740000000 1.0
C      1  0.4263060000000  0.5579050000000  0.5254130000000 1.0
C      1  0.5611380000000  0.5123540000000  0.4752440000000 1.0
C      1  0.4913130000000  0.4950750000000  0.6122190000000 1.0
C      1  0.4823700000000  0.4641350000000  0.5026050000000 1.0
C      1  0.4728070000000  0.5166720000000  0.5358280000000 1.0
C      1  0.4688240000000  0.5414020000000  0.4075170000000 1.0
C      1  0.5130460000000  0.5375510000000  0.5965670000000 1.0
C      1  0.4922150000000  0.5345940000000  0.4477850000000 1.0
C      1  0.4786780000000  0.5684920000000  0.4183840000000 1.0
C      1  0.4067700000000  0.5305980000000  0.4615260000000 1.0
C      1  0.5890930000000  0.4555330000000  0.4701970000000 1.0
C      1  0.6003760000000  0.4950550000000  0.5050850000000 1.0
C      1  0.5812690000000  0.5056130000000  0.4543950000000 1.0
END
