TITL C-951334-9093-100 1.05322558696772e-07 125000 -777.158346564437 0 0 125 (C1) n - 1
REM
REM in /home/bkarasulu/work/CARBON/AIRSS/Generating-Clusters/EDIP-Nigel-Params/with-SteepDescent/Only-C1/SD-CG/HFTN-CG
REM
REM
REM
REM
REM
REM ./C.cell (11c1c37f851c82e70ff6c80c92926a4b)
REM
REM compiler GCC version 9.2.1 20190827 (Red Hat 9.2.1-1)
REM options -cpp -mtune=generic -march=x86-64 -g -O0 -fpre-include=/usr/include/finclude/math-vector-fortran.h
REM seed -1376215235 -224034152 719908455 -1065161120 -1430036151 -1431283511 436813930 1391851838 -850354248 -1554024489 -559961885 -453166007 2064793193 2094398463 -1505886851 1037140169 -2056227370 1538581130 -151109783 -52719149 1038494631 -1447171693 790050991 -86374464 -909805578 860339500 300332990 -972476445 -1522224596 -1017091351 341442778 7055747 -566772090
REM
CELL 1.54180   50.00000   50.00000   50.00000   90.00000   90.00000   90.00000
LATT -1
SFAC C  
C      1  0.5469050000000  0.5588120000000  0.5315030000000 1.0
C      1  0.5718040000000  0.4747410000000  0.5049990000000 1.0
C      1  0.4809680000000  0.4227640000000  0.5247470000000 1.0
C      1  0.4555390000000  0.5279300000000  0.4828590000000 1.0
C      1  0.4670360000000  0.4349070000000  0.4525700000000 1.0
C      1  0.4254990000000  0.5589500000000  0.4727800000000 1.0
C      1  0.5237230000000  0.4761380000000  0.5870900000000 1.0
C      1  0.5267430000000  0.5372800000000  0.4936370000000 1.0
C      1  0.4295460000000  0.5462530000000  0.5251930000000 1.0
C      1  0.6061150000000  0.5199270000000  0.5033830000000 1.0
C      1  0.5336100000000  0.5688770000000  0.4536320000000 1.0
C      1  0.4885150000000  0.5078290000000  0.5039880000000 1.0
C      1  0.4174810000000  0.4785230000000  0.5543660000000 1.0
C      1  0.4971620000000  0.4617900000000  0.5891050000000 1.0
C      1  0.4441330000000  0.5181480000000  0.5619170000000 1.0
C      1  0.5050590000000  0.5323030000000  0.4271810000000 1.0
C      1  0.4571800000000  0.5130310000000  0.5357570000000 1.0
C      1  0.5359100000000  0.4144660000000  0.5252500000000 1.0
C      1  0.5927570000000  0.4763080000000  0.4812400000000 1.0
C      1  0.5347740000000  0.5781870000000  0.5087880000000 1.0
C      1  0.4108770000000  0.4887270000000  0.5036290000000 1.0
C      1  0.4307010000000  0.5173150000000  0.4447060000000 1.0
C      1  0.4081220000000  0.5137570000000  0.4897520000000 1.0
C      1  0.5104750000000  0.5120500000000  0.4832730000000 1.0
C      1  0.4519160000000  0.4219870000000  0.5145470000000 1.0
C      1  0.5271130000000  0.4842160000000  0.4163590000000 1.0
C      1  0.4766000000000  0.4304470000000  0.5562330000000 1.0
C      1  0.4775110000000  0.5251190000000  0.5809040000000 1.0
C      1  0.4479370000000  0.5329440000000  0.4265860000000 1.0
C      1  0.4940770000000  0.5551440000000  0.4824940000000 1.0
C      1  0.4995020000000  0.4949980000000  0.5393420000000 1.0
C      1  0.5229880000000  0.4218220000000  0.5723880000000 1.0
C      1  0.5354010000000  0.4598080000000  0.4302290000000 1.0
C      1  0.4849590000000  0.4459920000000  0.4297230000000 1.0
C      1  0.4733420000000  0.5547080000000  0.5043460000000 1.0
C      1  0.5980130000000  0.5195890000000  0.4580510000000 1.0
C      1  0.4726640000000  0.4556000000000  0.4744830000000 1.0
C      1  0.5453570000000  0.5753690000000  0.4805730000000 1.0
C      1  0.4337420000000  0.4248540000000  0.4687330000000 1.0
C      1  0.5157560000000  0.5614740000000  0.5706890000000 1.0
C      1  0.3997600000000  0.4564180000000  0.4566620000000 1.0
C      1  0.5127110000000  0.4414250000000  0.4388390000000 1.0
C      1  0.5735890000000  0.4487910000000  0.5207880000000 1.0
C      1  0.4585930000000  0.5002250000000  0.5845360000000 1.0
C      1  0.4143280000000  0.4444170000000  0.4772170000000 1.0
C      1  0.4404520000000  0.4503120000000  0.5200650000000 1.0
C      1  0.5194250000000  0.4735020000000  0.5365120000000 1.0
C      1  0.5721800000000  0.4930650000000  0.4177400000000 1.0
C      1  0.5278830000000  0.5372550000000  0.5239680000000 1.0
C      1  0.4774410000000  0.5376970000000  0.4636740000000 1.0
C      1  0.4399860000000  0.4884640000000  0.4438990000000 1.0
C      1  0.5703900000000  0.4976770000000  0.5225220000000 1.0
C      1  0.4611830000000  0.5135680000000  0.4082260000000 1.0
C      1  0.5419740000000  0.4404170000000  0.4887560000000 1.0
C      1  0.4976570000000  0.4340930000000  0.5769950000000 1.0
C      1  0.6067980000000  0.5040910000000  0.4798660000000 1.0
C      1  0.5464800000000  0.5056330000000  0.4147130000000 1.0
C      1  0.5700090000000  0.5622470000000  0.4831710000000 1.0
C      1  0.4884290000000  0.5806480000000  0.5371880000000 1.0
C      1  0.4650420000000  0.4670290000000  0.5167080000000 1.0
C      1  0.4490950000000  0.4099350000000  0.4882100000000 1.0
C      1  0.5076390000000  0.5795240000000  0.4456290000000 1.0
C      1  0.4801820000000  0.4727430000000  0.4198870000000 1.0
C      1  0.5499610000000  0.5335620000000  0.5758660000000 1.0
C      1  0.5216560000000  0.4841460000000  0.4869310000000 1.0
C      1  0.5777880000000  0.4507860000000  0.5496750000000 1.0
C      1  0.5643250000000  0.4716090000000  0.4373710000000 1.0
C      1  0.4643010000000  0.5537380000000  0.4412020000000 1.0
C      1  0.4593770000000  0.5833540000000  0.5349970000000 1.0
C      1  0.5004140000000  0.4881350000000  0.4068740000000 1.0
C      1  0.5623950000000  0.4920160000000  0.4619050000000 1.0
C      1  0.5736200000000  0.5422840000000  0.5350680000000 1.0
C      1  0.5177390000000  0.4241890000000  0.4857280000000 1.0
C      1  0.5163710000000  0.4623490000000  0.5071790000000 1.0
C      1  0.4203530000000  0.4610960000000  0.5003710000000 1.0
C      1  0.4866590000000  0.4505830000000  0.5035680000000 1.0
C      1  0.5096760000000  0.4185180000000  0.4583210000000 1.0
C      1  0.5700890000000  0.5204620000000  0.4615620000000 1.0
C      1  0.5389380000000  0.5694600000000  0.5574080000000 1.0
C      1  0.5704620000000  0.5241070000000  0.5590560000000 1.0
C      1  0.4709020000000  0.4864560000000  0.5380390000000 1.0
C      1  0.4550990000000  0.5800240000000  0.5063310000000 1.0
C      1  0.4602360000000  0.4816340000000  0.4677120000000 1.0
C      1  0.4982030000000  0.5184180000000  0.4549130000000 1.0
C      1  0.5674060000000  0.4940280000000  0.5514760000000 1.0
C      1  0.4923100000000  0.5611050000000  0.4276730000000 1.0
C      1  0.5891320000000  0.4756610000000  0.5583850000000 1.0
C      1  0.4630360000000  0.5011540000000  0.4889880000000 1.0
C      1  0.4815490000000  0.4091690000000  0.4579210000000 1.0
C      1  0.4795780000000  0.5319000000000  0.5235890000000 1.0
C      1  0.4903810000000  0.5817910000000  0.4696450000000 1.0
C      1  0.4447750000000  0.5711060000000  0.4552230000000 1.0
C      1  0.5039630000000  0.5392050000000  0.5412380000000 1.0
C      1  0.4320290000000  0.4549960000000  0.5487780000000 1.0
C      1  0.4901260000000  0.5725630000000  0.5653260000000 1.0
C      1  0.4712400000000  0.3944670000000  0.4797230000000 1.0
C      1  0.5101550000000  0.4098570000000  0.5103160000000 1.0
C      1  0.4285520000000  0.5663210000000  0.5017580000000 1.0
C      1  0.5515750000000  0.4467570000000  0.5632710000000 1.0
C      1  0.5271420000000  0.4999130000000  0.6015140000000 1.0
C      1  0.4558630000000  0.4501460000000  0.5661460000000 1.0
C      1  0.5393000000000  0.4742070000000  0.5602070000000 1.0
C      1  0.5478860000000  0.5551050000000  0.4332810000000 1.0
C      1  0.5784390000000  0.5238750000000  0.5116270000000 1.0
C      1  0.4704900000000  0.4727850000000  0.5798370000000 1.0
C      1  0.5349710000000  0.5322330000000  0.4228030000000 1.0
C      1  0.5827220000000  0.4545980000000  0.4586000000000 1.0
C      1  0.5612260000000  0.5346310000000  0.4867990000000 1.0
C      1  0.4546910000000  0.4858680000000  0.4178710000000 1.0
C      1  0.5262310000000  0.5199110000000  0.5821750000000 1.0
C      1  0.4167140000000  0.4720670000000  0.4428900000000 1.0
C      1  0.4668330000000  0.5538550000000  0.5709040000000 1.0
C      1  0.5027030000000  0.5179000000000  0.5633910000000 1.0
C      1  0.5079690000000  0.5907100000000  0.5152650000000 1.0
C      1  0.5589170000000  0.4261760000000  0.5085160000000 1.0
C      1  0.4912890000000  0.5160700000000  0.4050380000000 1.0
C      1  0.4275370000000  0.5290040000000  0.4720110000000 1.0
C      1  0.4173000000000  0.5065410000000  0.5539180000000 1.0
C      1  0.4959120000000  0.6034280000000  0.4911460000000 1.0
C      1  0.4464820000000  0.5593350000000  0.5476090000000 1.0
C      1  0.5494820000000  0.4834880000000  0.4861570000000 1.0
C      1  0.4663130000000  0.6031000000000  0.4911390000000 1.0
C      1  0.5308040000000  0.4319210000000  0.5473090000000 1.0
C      1  0.5652900000000  0.4339360000000  0.4708760000000 1.0
C      1  0.4143880000000  0.5199330000000  0.5267910000000 1.0
END
