TITL C-951334-9093-87 -2.97802654302768e-06 125000 -1242.67496613045 0 0 198 (C1) n - 1
REM
REM in /home/bkarasulu/work/CARBON/AIRSS/Generating-Clusters/EDIP-Nigel-Params/with-SteepDescent/Only-C1/SD-CG/HFTN-CG
REM
REM
REM
REM
REM
REM ./C.cell (11c1c37f851c82e70ff6c80c92926a4b)
REM
REM compiler GCC version 9.2.1 20190827 (Red Hat 9.2.1-1)
REM options -cpp -mtune=generic -march=x86-64 -g -O0 -fpre-include=/usr/include/finclude/math-vector-fortran.h
REM seed 630168376 -625453643 -1782163333 -969633508 1045281251 -1034139159 -768355311 1307580286 84181886 776813892 653097656 -709674396 -1267380891 308299583 -1694863721 -1996835458 278502576 -1208382366 697117422 -1321655498 -2146466558 -659169062 -1382936144 131902597 -1797354698 1452685077 651816456 1405916769 -1501386667 -2008360844 543422890 -10883144 -1070881454
REM
CELL 1.54180   50.00000   50.00000   50.00000   90.00000   90.00000   90.00000
LATT -1
SFAC C  
C      1  0.4181460000000  0.4164140000000  0.4696140000000 1.0
C      1  0.5234510000000  0.5909860000000  0.5481270000000 1.0
C      1  0.4294090000000  0.4780230000000  0.5944670000000 1.0
C      1  0.6014640000000  0.5136720000000  0.4855380000000 1.0
C      1  0.4808360000000  0.5278870000000  0.6008950000000 1.0
C      1  0.4572230000000  0.4920110000000  0.4017120000000 1.0
C      1  0.5255260000000  0.6033860000000  0.4896350000000 1.0
C      1  0.5732690000000  0.5468300000000  0.5006820000000 1.0
C      1  0.4375540000000  0.4583000000000  0.5315140000000 1.0
C      1  0.4312890000000  0.5815930000000  0.5375460000000 1.0
C      1  0.4680790000000  0.4775450000000  0.5575830000000 1.0
C      1  0.5488970000000  0.4905560000000  0.6055370000000 1.0
C      1  0.4846390000000  0.5115680000000  0.3862630000000 1.0
C      1  0.5081590000000  0.4555100000000  0.4962050000000 1.0
C      1  0.5500950000000  0.5508730000000  0.5423180000000 1.0
C      1  0.5118630000000  0.5032180000000  0.3975820000000 1.0
C      1  0.5071410000000  0.5085660000000  0.5803820000000 1.0
C      1  0.3746270000000  0.4959230000000  0.5502180000000 1.0
C      1  0.4838130000000  0.4689850000000  0.4626890000000 1.0
C      1  0.3880290000000  0.4856360000000  0.5030620000000 1.0
C      1  0.5622440000000  0.4776130000000  0.4830230000000 1.0
C      1  0.4534280000000  0.5813710000000  0.4272730000000 1.0
C      1  0.4298820000000  0.3937150000000  0.4821560000000 1.0
C      1  0.5570000000000  0.5047880000000  0.5254260000000 1.0
C      1  0.5492030000000  0.5009500000000  0.5527060000000 1.0
C      1  0.4202300000000  0.5157150000000  0.5084840000000 1.0
C      1  0.5909250000000  0.5753250000000  0.4552290000000 1.0
C      1  0.5256310000000  0.4400910000000  0.4764390000000 1.0
C      1  0.6094150000000  0.4799130000000  0.5246900000000 1.0
C      1  0.3983800000000  0.5610440000000  0.4863200000000 1.0
C      1  0.4529560000000  0.4511190000000  0.5581380000000 1.0
C      1  0.5478870000000  0.4543120000000  0.4063210000000 1.0
C      1  0.4917970000000  0.4008330000000  0.5186780000000 1.0
C      1  0.5843200000000  0.4413620000000  0.5409030000000 1.0
C      1  0.5095970000000  0.4232860000000  0.5259370000000 1.0
C      1  0.5474510000000  0.4808680000000  0.5100530000000 1.0
C      1  0.3980900000000  0.4738640000000  0.4520360000000 1.0
C      1  0.5782050000000  0.5154720000000  0.4157700000000 1.0
C      1  0.6087410000000  0.4859700000000  0.4969640000000 1.0
C      1  0.4294460000000  0.5142910000000  0.4485900000000 1.0
C      1  0.4544160000000  0.6022900000000  0.4682310000000 1.0
C      1  0.4004740000000  0.4653430000000  0.4812210000000 1.0
C      1  0.4652110000000  0.4052190000000  0.5332540000000 1.0
C      1  0.6111200000000  0.4346850000000  0.4745070000000 1.0
C      1  0.5504270000000  0.4106290000000  0.4219450000000 1.0
C      1  0.4596720000000  0.5168340000000  0.4586380000000 1.0
C      1  0.6024310000000  0.5107000000000  0.4323780000000 1.0
C      1  0.4567210000000  0.5799470000000  0.5525980000000 1.0
C      1  0.5281710000000  0.4812450000000  0.4451690000000 1.0
C      1  0.4783090000000  0.5844220000000  0.5329090000000 1.0
C      1  0.4584590000000  0.5347950000000  0.4132930000000 1.0
C      1  0.4395740000000  0.5559370000000  0.4240090000000 1.0
C      1  0.5687270000000  0.4731190000000  0.5904950000000 1.0
C      1  0.5167340000000  0.5306480000000  0.4917920000000 1.0
C      1  0.5460680000000  0.5045490000000  0.4445230000000 1.0
C      1  0.5409450000000  0.5044070000000  0.3892620000000 1.0
C      1  0.4104390000000  0.4772680000000  0.5739900000000 1.0
C      1  0.4187870000000  0.4702680000000  0.4313040000000 1.0
C      1  0.5581060000000  0.4803480000000  0.3972960000000 1.0
C      1  0.5307240000000  0.4355770000000  0.5929630000000 1.0
C      1  0.4167780000000  0.4776860000000  0.5432110000000 1.0
C      1  0.4261260000000  0.5531060000000  0.5349690000000 1.0
C      1  0.5564450000000  0.4464550000000  0.5823810000000 1.0
C      1  0.4816050000000  0.5545080000000  0.5901880000000 1.0
C      1  0.4784510000000  0.5407090000000  0.3906470000000 1.0
C      1  0.4775860000000  0.6070200000000  0.5114520000000 1.0
C      1  0.4357740000000  0.5349710000000  0.5803320000000 1.0
C      1  0.6080980000000  0.5340820000000  0.5365690000000 1.0
C      1  0.4860790000000  0.5687880000000  0.4901980000000 1.0
C      1  0.3830590000000  0.5160580000000  0.4960470000000 1.0
C      1  0.5037820000000  0.4554820000000  0.4005290000000 1.0
C      1  0.5222780000000  0.3920790000000  0.4879530000000 1.0
C      1  0.5439430000000  0.4136290000000  0.5522260000000 1.0
C      1  0.4575630000000  0.4008010000000  0.4904030000000 1.0
C      1  0.6010160000000  0.5361380000000  0.5066870000000 1.0
C      1  0.3877470000000  0.4993270000000  0.4506900000000 1.0
C      1  0.3980460000000  0.5458970000000  0.5366610000000 1.0
C      1  0.4765950000000  0.4526730000000  0.4965030000000 1.0
C      1  0.5361510000000  0.5473450000000  0.4158150000000 1.0
C      1  0.5270100000000  0.4424020000000  0.3919620000000 1.0
C      1  0.4926030000000  0.5591850000000  0.4477610000000 1.0
C      1  0.4461300000000  0.5726350000000  0.4641370000000 1.0
C      1  0.5674510000000  0.5766300000000  0.4972620000000 1.0
C      1  0.5555920000000  0.5285830000000  0.4000050000000 1.0
C      1  0.5417320000000  0.5189900000000  0.6058170000000 1.0
C      1  0.4136790000000  0.5213370000000  0.5616050000000 1.0
C      1  0.5389620000000  0.4279520000000  0.5247990000000 1.0
C      1  0.5681280000000  0.4284590000000  0.5617700000000 1.0
C      1  0.4935120000000  0.4447690000000  0.5364600000000 1.0
C      1  0.5296480000000  0.5298000000000  0.4422210000000 1.0
C      1  0.3924990000000  0.5013980000000  0.5718810000000 1.0
C      1  0.4420590000000  0.4789620000000  0.4841950000000 1.0
C      1  0.5300550000000  0.5690960000000  0.5285510000000 1.0
C      1  0.4861980000000  0.4419820000000  0.4444050000000 1.0
C      1  0.4651190000000  0.5336110000000  0.5161620000000 1.0
C      1  0.4606090000000  0.3997500000000  0.4443850000000 1.0
C      1  0.5700030000000  0.5874690000000  0.4700380000000 1.0
C      1  0.4724720000000  0.4293710000000  0.5495260000000 1.0
C      1  0.5150680000000  0.5226460000000  0.6179980000000 1.0
C      1  0.5403610000000  0.5824560000000  0.5042920000000 1.0
C      1  0.4278010000000  0.5660470000000  0.4904470000000 1.0
C      1  0.5408590000000  0.4724810000000  0.5577410000000 1.0
C      1  0.4825520000000  0.6058820000000  0.4583710000000 1.0
C      1  0.5258790000000  0.4154380000000  0.4325590000000 1.0
C      1  0.5129990000000  0.4768920000000  0.5710800000000 1.0
C      1  0.4367230000000  0.5416290000000  0.5094480000000 1.0
C      1  0.4325170000000  0.4447940000000  0.4262150000000 1.0
C      1  0.5423850000000  0.5870460000000  0.5705380000000 1.0
C      1  0.4749540000000  0.3886250000000  0.4675830000000 1.0
C      1  0.5086250000000  0.5606430000000  0.5884730000000 1.0
C      1  0.4520770000000  0.5200120000000  0.6009550000000 1.0
C      1  0.5366330000000  0.5843020000000  0.4504720000000 1.0
C      1  0.4382390000000  0.4086520000000  0.5228430000000 1.0
C      1  0.4845210000000  0.4544530000000  0.6077030000000 1.0
C      1  0.4697220000000  0.5532690000000  0.4681480000000 1.0
C      1  0.4793600000000  0.5247160000000  0.5572690000000 1.0
C      1  0.4532780000000  0.4674500000000  0.3871390000000 1.0
C      1  0.5029770000000  0.3987770000000  0.4669410000000 1.0
C      1  0.5687690000000  0.4409450000000  0.4523960000000 1.0
C      1  0.5008280000000  0.4956810000000  0.5253460000000 1.0
C      1  0.4673920000000  0.4381460000000  0.5924470000000 1.0
C      1  0.4254270000000  0.4344040000000  0.5174880000000 1.0
C      1  0.5918070000000  0.4209580000000  0.4908920000000 1.0
C      1  0.5329990000000  0.5428960000000  0.4698210000000 1.0
C      1  0.4963390000000  0.5908700000000  0.5538480000000 1.0
C      1  0.5032800000000  0.5553330000000  0.3983810000000 1.0
C      1  0.5069460000000  0.5235370000000  0.5390450000000 1.0
C      1  0.3830730000000  0.5209580000000  0.4670300000000 1.0
C      1  0.5331380000000  0.5791380000000  0.4207160000000 1.0
C      1  0.4589240000000  0.5031620000000  0.5475300000000 1.0
C      1  0.4771440000000  0.5055900000000  0.5071970000000 1.0
C      1  0.5028400000000  0.4960030000000  0.6224520000000 1.0
C      1  0.4598720000000  0.4857750000000  0.4635070000000 1.0
C      1  0.4545720000000  0.4464720000000  0.4058950000000 1.0
C      1  0.4954710000000  0.5127870000000  0.4825970000000 1.0
C      1  0.4288360000000  0.5050420000000  0.5395850000000 1.0
C      1  0.5207460000000  0.4171140000000  0.5730690000000 1.0
C      1  0.5996350000000  0.5093730000000  0.5723560000000 1.0
C      1  0.4789380000000  0.4892420000000  0.4238340000000 1.0
C      1  0.5306990000000  0.5236920000000  0.5601860000000 1.0
C      1  0.5406680000000  0.4175000000000  0.4918080000000 1.0
C      1  0.6034950000000  0.5265480000000  0.4562620000000 1.0
C      1  0.4841530000000  0.4205670000000  0.5755130000000 1.0
C      1  0.5186230000000  0.4825300000000  0.5037840000000 1.0
C      1  0.5173510000000  0.5675070000000  0.4655600000000 1.0
C      1  0.5070530000000  0.4806510000000  0.4163290000000 1.0
C      1  0.4839130000000  0.5572380000000  0.5168900000000 1.0
C      1  0.5693250000000  0.5907770000000  0.5630470000000 1.0
C      1  0.5077220000000  0.3793590000000  0.5090870000000 1.0
C      1  0.4502450000000  0.4920390000000  0.6067040000000 1.0
C      1  0.5959660000000  0.4533950000000  0.4581390000000 1.0
C      1  0.5001730000000  0.5328490000000  0.4363860000000 1.0
C      1  0.3953780000000  0.5469720000000  0.4600220000000 1.0
C      1  0.5064680000000  0.4879960000000  0.4668710000000 1.0
C      1  0.5746570000000  0.5688920000000  0.5462670000000 1.0
C      1  0.4203860000000  0.4406560000000  0.4879320000000 1.0
C      1  0.5553190000000  0.5331540000000  0.5194490000000 1.0
C      1  0.5902590000000  0.4651450000000  0.4868140000000 1.0
C      1  0.3864950000000  0.5437860000000  0.5092040000000 1.0
C      1  0.5459700000000  0.4596490000000  0.4629160000000 1.0
C      1  0.5818330000000  0.5333000000000  0.5767280000000 1.0
C      1  0.6200230000000  0.5131650000000  0.5519840000000 1.0
C      1  0.5127500000000  0.4585910000000  0.5973610000000 1.0
C      1  0.3892390000000  0.4795510000000  0.5318220000000 1.0
C      1  0.5360000000000  0.5611830000000  0.5826910000000 1.0
C      1  0.4826930000000  0.4402720000000  0.4142520000000 1.0
C      1  0.4207420000000  0.4995130000000  0.4799450000000 1.0
C      1  0.4610390000000  0.5510860000000  0.5679650000000 1.0
C      1  0.4751180000000  0.5179240000000  0.4333260000000 1.0
C      1  0.4945180000000  0.4730680000000  0.5472240000000 1.0
C      1  0.4620090000000  0.4284440000000  0.4538060000000 1.0
C      1  0.5098210000000  0.4246290000000  0.4540630000000 1.0
C      1  0.4829100000000  0.5849920000000  0.4340510000000 1.0
C      1  0.5866880000000  0.4835660000000  0.5691020000000 1.0
C      1  0.5043830000000  0.5819500000000  0.4112790000000 1.0
C      1  0.5637480000000  0.4353210000000  0.4226390000000 1.0
C      1  0.4580480000000  0.4750020000000  0.5086440000000 1.0
C      1  0.5837640000000  0.4885800000000  0.4069930000000 1.0
C      1  0.5976330000000  0.4667800000000  0.5470150000000 1.0
C      1  0.5944690000000  0.5510230000000  0.5568400000000 1.0
C      1  0.4946820000000  0.5990910000000  0.4869440000000 1.0
C      1  0.5640500000000  0.5370860000000  0.4738980000000 1.0
C      1  0.4306940000000  0.4959020000000  0.4217510000000 1.0
C      1  0.5663310000000  0.5055200000000  0.4680830000000 1.0
C      1  0.5913910000000  0.4262070000000  0.5184780000000 1.0
C      1  0.4580080000000  0.4308030000000  0.4831810000000 1.0
C      1  0.5253060000000  0.4770280000000  0.6169490000000 1.0
C      1  0.4268240000000  0.4182120000000  0.4404710000000 1.0
C      1  0.4772670000000  0.4819390000000  0.6135490000000 1.0
C      1  0.4315510000000  0.5895970000000  0.5086400000000 1.0
C      1  0.5831900000000  0.5485320000000  0.4534410000000 1.0
C      1  0.5393840000000  0.6103130000000  0.4646230000000 1.0
C      1  0.5106680000000  0.5454910000000  0.5187570000000 1.0
C      1  0.5668000000000  0.4186890000000  0.4754140000000 1.0
C      1  0.5448670000000  0.4583070000000  0.5301100000000 1.0
C      1  0.4512730000000  0.6090860000000  0.4977770000000 1.0
C      1  0.4212410000000  0.5426190000000  0.4448820000000 1.0
C      1  0.5557810000000  0.5403490000000  0.5916100000000 1.0
END
