TITL C-950526-5686-544 7.35197788934751e-06 125000 -1170.96374173567 0 0 187 (C1) n - 1
REM
REM in /home/bkarasulu/work/CARBON/AIRSS/Generating-Clusters/EDIP-Nigel-Params/with-SteepDescent/Only-C1/SD-CG/HFTN-CG
REM
REM
REM
REM
REM
REM ./C.cell (11c1c37f851c82e70ff6c80c92926a4b)
REM
REM compiler GCC version 9.2.1 20190827 (Red Hat 9.2.1-1)
REM options -cpp -mtune=generic -march=x86-64 -g -O0 -fpre-include=/usr/include/finclude/math-vector-fortran.h
REM seed 741606791 1152085919 1226046675 33168266 -2096044289 -1459562424 -129141616 1341737095 -1679583986 719181056 -492211145 -842064971 -340515224 67838581 -465304545 -1763488860 -646479963 -616927448 -1735842733 -1835260708 1460375977 1331949612 -1479399273 -48327009 -1531285231 -1315667170 1354746910 1045877640 201649529 2126028955 -1843831135 1257217015 -2142496767
REM
CELL 1.54180   50.00000   50.00000   50.00000   90.00000   90.00000   90.00000
LATT -1
SFAC C  
C      1  0.5376060000000  0.5457830000000  0.5794230000000 1.0
C      1  0.3833440000000  0.5173870000000  0.4856830000000 1.0
C      1  0.4662790000000  0.4817980000000  0.4520440000000 1.0
C      1  0.3845300000000  0.5255930000000  0.4579640000000 1.0
C      1  0.5302070000000  0.3879030000000  0.5008570000000 1.0
C      1  0.4537000000000  0.5962860000000  0.5167970000000 1.0
C      1  0.4757690000000  0.4151160000000  0.5374150000000 1.0
C      1  0.5003700000000  0.4146160000000  0.5195630000000 1.0
C      1  0.4716820000000  0.5884630000000  0.4672800000000 1.0
C      1  0.5270120000000  0.5519490000000  0.5330480000000 1.0
C      1  0.5252880000000  0.4927170000000  0.4906700000000 1.0
C      1  0.5933030000000  0.5161060000000  0.5375060000000 1.0
C      1  0.4395650000000  0.4930970000000  0.4624390000000 1.0
C      1  0.4185360000000  0.5309230000000  0.4403990000000 1.0
C      1  0.4899590000000  0.5178870000000  0.5093890000000 1.0
C      1  0.5850080000000  0.4888390000000  0.5291870000000 1.0
C      1  0.5304630000000  0.5715400000000  0.5116720000000 1.0
C      1  0.4131460000000  0.4258880000000  0.5354440000000 1.0
C      1  0.4165280000000  0.5337370000000  0.5520290000000 1.0
C      1  0.4438030000000  0.4488790000000  0.5322230000000 1.0
C      1  0.4454970000000  0.4294540000000  0.5717370000000 1.0
C      1  0.4310660000000  0.5772500000000  0.5269950000000 1.0
C      1  0.5431920000000  0.5646610000000  0.5558230000000 1.0
C      1  0.5710870000000  0.5499960000000  0.4145810000000 1.0
C      1  0.4492970000000  0.5177770000000  0.4063920000000 1.0
C      1  0.4689760000000  0.5413020000000  0.6092780000000 1.0
C      1  0.4533090000000  0.6034590000000  0.4878180000000 1.0
C      1  0.4807080000000  0.5851650000000  0.4187490000000 1.0
C      1  0.4453540000000  0.4567800000000  0.6103570000000 1.0
C      1  0.4834370000000  0.5355330000000  0.4272860000000 1.0
C      1  0.4944300000000  0.4414660000000  0.5820250000000 1.0
C      1  0.5004470000000  0.4472360000000  0.4651270000000 1.0
C      1  0.5996620000000  0.4387570000000  0.5000090000000 1.0
C      1  0.4752370000000  0.4607350000000  0.4210770000000 1.0
C      1  0.4739330000000  0.4459510000000  0.5372770000000 1.0
C      1  0.5083290000000  0.4940160000000  0.4397590000000 1.0
C      1  0.4389950000000  0.5227920000000  0.4601060000000 1.0
C      1  0.4613420000000  0.5887420000000  0.4381570000000 1.0
C      1  0.5130610000000  0.4403750000000  0.4929710000000 1.0
C      1  0.5426420000000  0.3975380000000  0.5273140000000 1.0
C      1  0.4925010000000  0.6036110000000  0.5686420000000 1.0
C      1  0.5003780000000  0.3887750000000  0.5050660000000 1.0
C      1  0.4895840000000  0.5021080000000  0.5356680000000 1.0
C      1  0.5094860000000  0.4346020000000  0.3984420000000 1.0
C      1  0.4172840000000  0.5787430000000  0.4805160000000 1.0
C      1  0.4670430000000  0.5348400000000  0.4556020000000 1.0
C      1  0.5355010000000  0.6000710000000  0.5251760000000 1.0
C      1  0.5360190000000  0.4062360000000  0.4784520000000 1.0
C      1  0.4148440000000  0.4849820000000  0.5565620000000 1.0
C      1  0.4945160000000  0.5244680000000  0.5547440000000 1.0
C      1  0.5773900000000  0.5117580000000  0.5826580000000 1.0
C      1  0.5452470000000  0.4483050000000  0.4861550000000 1.0
C      1  0.5687700000000  0.4340260000000  0.4585030000000 1.0
C      1  0.4951620000000  0.4974550000000  0.4880350000000 1.0
C      1  0.5623160000000  0.5352800000000  0.5867910000000 1.0
C      1  0.5179130000000  0.4677670000000  0.4507220000000 1.0
C      1  0.4843130000000  0.4030630000000  0.5637340000000 1.0
C      1  0.3787460000000  0.4889100000000  0.4880500000000 1.0
C      1  0.3852170000000  0.4771930000000  0.4608740000000 1.0
C      1  0.5643540000000  0.5133260000000  0.4804330000000 1.0
C      1  0.4373870000000  0.4880170000000  0.4914940000000 1.0
C      1  0.4711100000000  0.4105470000000  0.4657260000000 1.0
C      1  0.5436700000000  0.4770100000000  0.4027130000000 1.0
C      1  0.6027210000000  0.5091880000000  0.5655280000000 1.0
C      1  0.5508690000000  0.4510790000000  0.4146770000000 1.0
C      1  0.5299650000000  0.5533830000000  0.4284130000000 1.0
C      1  0.4258730000000  0.6053450000000  0.4824100000000 1.0
C      1  0.5383350000000  0.5199730000000  0.4940740000000 1.0
C      1  0.5338140000000  0.4281910000000  0.4103600000000 1.0
C      1  0.4700080000000  0.4722780000000  0.6097740000000 1.0
C      1  0.4633260000000  0.5269310000000  0.5039720000000 1.0
C      1  0.5395720000000  0.4757680000000  0.4686410000000 1.0
C      1  0.4182680000000  0.5721620000000  0.4536870000000 1.0
C      1  0.5138260000000  0.4815890000000  0.5396620000000 1.0
C      1  0.5312590000000  0.4786180000000  0.5152380000000 1.0
C      1  0.4488060000000  0.4017420000000  0.5286330000000 1.0
C      1  0.4611330000000  0.4759550000000  0.5798710000000 1.0
C      1  0.5515010000000  0.6018770000000  0.4803100000000 1.0
C      1  0.4795330000000  0.5153370000000  0.6073630000000 1.0
C      1  0.3799590000000  0.5332610000000  0.5095630000000 1.0
C      1  0.5072570000000  0.5083410000000  0.5996820000000 1.0
C      1  0.4540180000000  0.4367920000000  0.4715700000000 1.0
C      1  0.4406640000000  0.5430480000000  0.4209540000000 1.0
C      1  0.5781500000000  0.4332300000000  0.5412380000000 1.0
C      1  0.4974680000000  0.5463420000000  0.5358320000000 1.0
C      1  0.5151710000000  0.5364990000000  0.4492570000000 1.0
C      1  0.4712070000000  0.5593100000000  0.4748010000000 1.0
C      1  0.6030040000000  0.4436590000000  0.5296530000000 1.0
C      1  0.5822740000000  0.4128520000000  0.4985570000000 1.0
C      1  0.5236810000000  0.5310630000000  0.3918110000000 1.0
C      1  0.4283940000000  0.4968190000000  0.4073870000000 1.0
C      1  0.4179220000000  0.5319720000000  0.5084040000000 1.0
C      1  0.4506680000000  0.5688960000000  0.5702830000000 1.0
C      1  0.5741210000000  0.5679590000000  0.5127130000000 1.0
C      1  0.4900080000000  0.5602090000000  0.4116480000000 1.0
C      1  0.5889880000000  0.4719680000000  0.4388150000000 1.0
C      1  0.5115590000000  0.4120270000000  0.5671960000000 1.0
C      1  0.4863050000000  0.5041530000000  0.4584420000000 1.0
C      1  0.4405470000000  0.5102480000000  0.5115670000000 1.0
C      1  0.5539440000000  0.4588650000000  0.5151450000000 1.0
C      1  0.4949660000000  0.4207800000000  0.4515710000000 1.0
C      1  0.4348100000000  0.4456150000000  0.4489480000000 1.0
C      1  0.5319310000000  0.5134270000000  0.4378190000000 1.0
C      1  0.5435310000000  0.4472110000000  0.5740010000000 1.0
C      1  0.5362970000000  0.5015890000000  0.5525500000000 1.0
C      1  0.4191470000000  0.4648680000000  0.4931420000000 1.0
C      1  0.4135350000000  0.4644910000000  0.4626340000000 1.0
C      1  0.4958920000000  0.4590370000000  0.4005010000000 1.0
C      1  0.5146460000000  0.4820590000000  0.3976010000000 1.0
C      1  0.5716400000000  0.5594880000000  0.5414850000000 1.0
C      1  0.5125930000000  0.5654120000000  0.4892700000000 1.0
C      1  0.5993910000000  0.5236310000000  0.4940890000000 1.0
C      1  0.3899740000000  0.4758600000000  0.5122030000000 1.0
C      1  0.5618020000000  0.5959630000000  0.5080610000000 1.0
C      1  0.4529650000000  0.5073100000000  0.5807030000000 1.0
C      1  0.6026640000000  0.4762780000000  0.4643920000000 1.0
C      1  0.5869950000000  0.4633080000000  0.4860520000000 1.0
C      1  0.4104950000000  0.4641710000000  0.5763920000000 1.0
C      1  0.4120730000000  0.5042520000000  0.4299440000000 1.0
C      1  0.4381490000000  0.4412790000000  0.4997740000000 1.0
C      1  0.4240580000000  0.5107920000000  0.5698770000000 1.0
C      1  0.5518120000000  0.5279570000000  0.4035940000000 1.0
C      1  0.5583160000000  0.5806460000000  0.4606940000000 1.0
C      1  0.4325780000000  0.5596490000000  0.5503060000000 1.0
C      1  0.4259430000000  0.4158670000000  0.5097680000000 1.0
C      1  0.5798610000000  0.5609330000000  0.4639040000000 1.0
C      1  0.5218010000000  0.6120040000000  0.4819830000000 1.0
C      1  0.5853810000000  0.4968730000000  0.4250450000000 1.0
C      1  0.5797460000000  0.4900040000000  0.4994810000000 1.0
C      1  0.5852560000000  0.4669680000000  0.5765600000000 1.0
C      1  0.5688350000000  0.5303140000000  0.5432870000000 1.0
C      1  0.4759150000000  0.5147520000000  0.3952140000000 1.0
C      1  0.4934780000000  0.4573300000000  0.5145150000000 1.0
C      1  0.4379690000000  0.5707110000000  0.4337920000000 1.0
C      1  0.4471150000000  0.4545260000000  0.4228590000000 1.0
C      1  0.5345470000000  0.4080950000000  0.4297200000000 1.0
C      1  0.4294330000000  0.4469340000000  0.5885130000000 1.0
C      1  0.5720490000000  0.4411260000000  0.5685700000000 1.0
C      1  0.5854570000000  0.5506290000000  0.4907070000000 1.0
C      1  0.5610030000000  0.4783020000000  0.5479520000000 1.0
C      1  0.3918690000000  0.5223760000000  0.5355000000000 1.0
C      1  0.4292260000000  0.5606380000000  0.5024930000000 1.0
C      1  0.5196740000000  0.4034830000000  0.4532340000000 1.0
C      1  0.6105000000000  0.4794600000000  0.5645670000000 1.0
C      1  0.5232180000000  0.4171010000000  0.5400350000000 1.0
C      1  0.4320590000000  0.4119740000000  0.5530500000000 1.0
C      1  0.5382570000000  0.5946150000000  0.5554490000000 1.0
C      1  0.4888890000000  0.6121060000000  0.5208290000000 1.0
C      1  0.5173230000000  0.4806060000000  0.6036410000000 1.0
C      1  0.5645790000000  0.4109880000000  0.4743480000000 1.0
C      1  0.5155110000000  0.6185020000000  0.5113540000000 1.0
C      1  0.6060960000000  0.5070330000000  0.4681910000000 1.0
C      1  0.4735430000000  0.5679090000000  0.5364360000000 1.0
C      1  0.5359460000000  0.4457920000000  0.5436700000000 1.0
C      1  0.5191110000000  0.6047970000000  0.5726520000000 1.0
C      1  0.5193080000000  0.5211360000000  0.5743490000000 1.0
C      1  0.3920110000000  0.4919080000000  0.5373700000000 1.0
C      1  0.4887540000000  0.5935930000000  0.5425560000000 1.0
C      1  0.5675360000000  0.4854560000000  0.5910350000000 1.0
C      1  0.4607230000000  0.4940880000000  0.5401070000000 1.0
C      1  0.4602230000000  0.5557530000000  0.5020510000000 1.0
C      1  0.4829490000000  0.3916790000000  0.4831020000000 1.0
C      1  0.5693890000000  0.4100880000000  0.5251770000000 1.0
C      1  0.5407190000000  0.4740160000000  0.5869020000000 1.0
C      1  0.5721580000000  0.4490470000000  0.4344760000000 1.0
C      1  0.5608240000000  0.5000780000000  0.4085630000000 1.0
C      1  0.5040460000000  0.5888620000000  0.4725420000000 1.0
C      1  0.5044030000000  0.5097190000000  0.3985910000000 1.0
C      1  0.5226740000000  0.5409080000000  0.4776000000000 1.0
C      1  0.4824580000000  0.4607460000000  0.5624490000000 1.0
C      1  0.3858450000000  0.5006930000000  0.4420390000000 1.0
C      1  0.5573740000000  0.4993950000000  0.4525160000000 1.0
C      1  0.4321530000000  0.4693700000000  0.4043170000000 1.0
C      1  0.5420160000000  0.5255000000000  0.5272010000000 1.0
C      1  0.5824780000000  0.5433590000000  0.4409330000000 1.0
C      1  0.4789040000000  0.4738240000000  0.4962790000000 1.0
C      1  0.4694300000000  0.5519770000000  0.5832940000000 1.0
C      1  0.4706710000000  0.4199660000000  0.5833280000000 1.0
C      1  0.5127800000000  0.5576910000000  0.3946990000000 1.0
C      1  0.5637300000000  0.5773580000000  0.4129400000000 1.0
C      1  0.4377160000000  0.4767990000000  0.5392200000000 1.0
C      1  0.4740840000000  0.4596540000000  0.4712980000000 1.0
C      1  0.4688330000000  0.5287850000000  0.5665190000000 1.0
C      1  0.5956270000000  0.5181460000000  0.4428670000000 1.0
C      1  0.4965480000000  0.4590080000000  0.6074000000000 1.0
C      1  0.6096590000000  0.4720750000000  0.5353560000000 1.0
C      1  0.5451480000000  0.5799900000000  0.4342480000000 1.0
END
