TITL C-950528-5794-734 -1.62658454237865e-06 125000 -912.687137971446 0 0 145 (C1) n - 1
REM
REM in /home/bkarasulu/work/CARBON/AIRSS/Generating-Clusters/EDIP-Nigel-Params/with-SteepDescent/Only-C1/SD-CG/HFTN-CG
REM
REM
REM
REM
REM
REM ./C.cell (11c1c37f851c82e70ff6c80c92926a4b)
REM
REM compiler GCC version 9.2.1 20190827 (Red Hat 9.2.1-1)
REM options -cpp -mtune=generic -march=x86-64 -g -O0 -fpre-include=/usr/include/finclude/math-vector-fortran.h
REM seed -347586893 -708241248 -1775518588 -1189802631 -1834979391 -1110790751 991298492 -123997762 -23341735 -878789739 -993602151 -1416493712 1654275026 -156244109 -1896693790 -596695496 -1557442921 1014273749 120928277 -127997761 1787943471 920533562 -1280387005 -1582567416 670796659 489981902 132283658 -268830670 635128132 -13334521 -1564510500 -489107086 -1597026907
REM
CELL 1.54180   50.00000   50.00000   50.00000   90.00000   90.00000   90.00000
LATT -1
SFAC C  
C      1  0.4013710000000  0.4833820000000  0.4870870000000 1.0
C      1  0.5362930000000  0.5339730000000  0.5819800000000 1.0
C      1  0.5206910000000  0.5199500000000  0.5381250000000 1.0
C      1  0.5722150000000  0.4882310000000  0.4644350000000 1.0
C      1  0.4697060000000  0.4397560000000  0.5432510000000 1.0
C      1  0.4993190000000  0.4394400000000  0.5519450000000 1.0
C      1  0.5121950000000  0.4628970000000  0.5373290000000 1.0
C      1  0.4642660000000  0.5849710000000  0.4894810000000 1.0
C      1  0.4848990000000  0.5873640000000  0.5368930000000 1.0
C      1  0.5032320000000  0.4439910000000  0.5812950000000 1.0
C      1  0.4665260000000  0.5615290000000  0.5712670000000 1.0
C      1  0.4183270000000  0.4402920000000  0.5359320000000 1.0
C      1  0.5611190000000  0.5309170000000  0.4486620000000 1.0
C      1  0.4567070000000  0.4316430000000  0.4338400000000 1.0
C      1  0.4030000000000  0.4997290000000  0.5183890000000 1.0
C      1  0.5125830000000  0.5997980000000  0.4571450000000 1.0
C      1  0.5027680000000  0.4051440000000  0.4975240000000 1.0
C      1  0.4319100000000  0.5286700000000  0.4308120000000 1.0
C      1  0.5140240000000  0.4827420000000  0.3987640000000 1.0
C      1  0.5488590000000  0.5458010000000  0.5049850000000 1.0
C      1  0.4672980000000  0.3977900000000  0.5289100000000 1.0
C      1  0.5497970000000  0.4424210000000  0.5648100000000 1.0
C      1  0.4381000000000  0.5045210000000  0.4161090000000 1.0
C      1  0.4631680000000  0.4753090000000  0.5659560000000 1.0
C      1  0.4250690000000  0.5335720000000  0.5644730000000 1.0
C      1  0.4103500000000  0.5238490000000  0.4502150000000 1.0
C      1  0.5019180000000  0.4376980000000  0.4646520000000 1.0
C      1  0.5975460000000  0.5073800000000  0.5336050000000 1.0
C      1  0.4679540000000  0.5713500000000  0.4608350000000 1.0
C      1  0.5377940000000  0.5493030000000  0.4431070000000 1.0
C      1  0.4107740000000  0.4549910000000  0.4858310000000 1.0
C      1  0.4527010000000  0.4449900000000  0.4757780000000 1.0
C      1  0.5847330000000  0.5529280000000  0.5287770000000 1.0
C      1  0.4880520000000  0.5796640000000  0.5077360000000 1.0
C      1  0.4389480000000  0.5803410000000  0.5036500000000 1.0
C      1  0.5509520000000  0.4946000000000  0.5110750000000 1.0
C      1  0.4225150000000  0.4392960000000  0.5071420000000 1.0
C      1  0.4490310000000  0.4776950000000  0.4095940000000 1.0
C      1  0.4143320000000  0.4437800000000  0.4601510000000 1.0
C      1  0.5498450000000  0.5545850000000  0.5654810000000 1.0
C      1  0.6017200000000  0.4805400000000  0.5215620000000 1.0
C      1  0.5179460000000  0.6028840000000  0.4847650000000 1.0
C      1  0.5971770000000  0.4982050000000  0.4773030000000 1.0
C      1  0.4691490000000  0.5203600000000  0.4532960000000 1.0
C      1  0.4975730000000  0.5745400000000  0.4506870000000 1.0
C      1  0.4954520000000  0.5068890000000  0.4639990000000 1.0
C      1  0.4956650000000  0.4616460000000  0.4244790000000 1.0
C      1  0.4499400000000  0.5442270000000  0.4975870000000 1.0
C      1  0.4219640000000  0.5450860000000  0.5377480000000 1.0
C      1  0.4446390000000  0.4979340000000  0.4592940000000 1.0
C      1  0.4322410000000  0.4646080000000  0.5450680000000 1.0
C      1  0.5735700000000  0.4561830000000  0.5564480000000 1.0
C      1  0.5262990000000  0.5479720000000  0.5247840000000 1.0
C      1  0.5496500000000  0.5085220000000  0.4644610000000 1.0
C      1  0.4867930000000  0.4795920000000  0.4684280000000 1.0
C      1  0.4450170000000  0.4939770000000  0.5829770000000 1.0
C      1  0.5074440000000  0.5797500000000  0.5558040000000 1.0
C      1  0.5754560000000  0.5014980000000  0.5791980000000 1.0
C      1  0.4233100000000  0.5315070000000  0.4921300000000 1.0
C      1  0.4559360000000  0.3998830000000  0.5013700000000 1.0
C      1  0.4548420000000  0.4959870000000  0.5080750000000 1.0
C      1  0.4669970000000  0.4927980000000  0.3926080000000 1.0
C      1  0.5463810000000  0.4173950000000  0.4738080000000 1.0
C      1  0.4605370000000  0.4714640000000  0.4589780000000 1.0
C      1  0.5524990000000  0.5766950000000  0.4415100000000 1.0
C      1  0.5347670000000  0.4766290000000  0.5539560000000 1.0
C      1  0.5488550000000  0.5075450000000  0.5908530000000 1.0
C      1  0.4852870000000  0.4667790000000  0.5876410000000 1.0
C      1  0.4327720000000  0.4150890000000  0.4982220000000 1.0
C      1  0.5336010000000  0.5698540000000  0.5445760000000 1.0
C      1  0.5142010000000  0.4145440000000  0.5425220000000 1.0
C      1  0.4723620000000  0.4244820000000  0.4602760000000 1.0
C      1  0.4914290000000  0.5155800000000  0.5867810000000 1.0
C      1  0.5361350000000  0.5994170000000  0.4421050000000 1.0
C      1  0.4920700000000  0.5004610000000  0.4037280000000 1.0
C      1  0.5169680000000  0.5544860000000  0.4659930000000 1.0
C      1  0.4960870000000  0.5141690000000  0.5573180000000 1.0
C      1  0.6111500000000  0.4814920000000  0.4950390000000 1.0
C      1  0.4481470000000  0.5414730000000  0.5814500000000 1.0
C      1  0.5764650000000  0.4433900000000  0.5044150000000 1.0
C      1  0.4593270000000  0.5778850000000  0.5486030000000 1.0
C      1  0.4993770000000  0.4372640000000  0.4962560000000 1.0
C      1  0.5737230000000  0.5131680000000  0.5522370000000 1.0
C      1  0.5414510000000  0.5679880000000  0.4839540000000 1.0
C      1  0.4648140000000  0.4605830000000  0.4298480000000 1.0
C      1  0.4136450000000  0.4879950000000  0.5441250000000 1.0
C      1  0.4299970000000  0.4311810000000  0.4416900000000 1.0
C      1  0.4966950000000  0.3975080000000  0.5256900000000 1.0
C      1  0.5072750000000  0.4372070000000  0.4138810000000 1.0
C      1  0.5817630000000  0.4745260000000  0.5758670000000 1.0
C      1  0.4932780000000  0.4829590000000  0.5255760000000 1.0
C      1  0.5457900000000  0.5170370000000  0.4931930000000 1.0
C      1  0.5085230000000  0.5061110000000  0.5142450000000 1.0
C      1  0.4216940000000  0.5045980000000  0.5673110000000 1.0
C      1  0.4950890000000  0.5638150000000  0.5778760000000 1.0
C      1  0.5829460000000  0.4588700000000  0.5279970000000 1.0
C      1  0.5997620000000  0.5313160000000  0.5152010000000 1.0
C      1  0.5733550000000  0.5427300000000  0.5535500000000 1.0
C      1  0.5706280000000  0.5210560000000  0.4229520000000 1.0
C      1  0.5228660000000  0.4996570000000  0.4528500000000 1.0
C      1  0.5244270000000  0.5357060000000  0.4185350000000 1.0
C      1  0.4651100000000  0.5232290000000  0.5140020000000 1.0
C      1  0.5345760000000  0.4052240000000  0.4984010000000 1.0
C      1  0.5820500000000  0.5453530000000  0.4649650000000 1.0
C      1  0.5366130000000  0.4228680000000  0.5231260000000 1.0
C      1  0.4056850000000  0.4957040000000  0.4575590000000 1.0
C      1  0.5314280000000  0.4353950000000  0.4287110000000 1.0
C      1  0.5050900000000  0.5539840000000  0.5024490000000 1.0
C      1  0.5655180000000  0.4609770000000  0.4557720000000 1.0
C      1  0.4667370000000  0.4425450000000  0.5053490000000 1.0
C      1  0.4374890000000  0.5697140000000  0.5307120000000 1.0
C      1  0.5244770000000  0.4203720000000  0.4535310000000 1.0
C      1  0.5676610000000  0.5719570000000  0.4672500000000 1.0
C      1  0.4609620000000  0.5175360000000  0.5931290000000 1.0
C      1  0.5181570000000  0.5607580000000  0.4045600000000 1.0
C      1  0.5416790000000  0.4692330000000  0.5022530000000 1.0
C      1  0.5461250000000  0.5015810000000  0.5396330000000 1.0
C      1  0.4554270000000  0.4147190000000  0.5504270000000 1.0
C      1  0.5460180000000  0.4609630000000  0.4329510000000 1.0
C      1  0.4274960000000  0.4173000000000  0.5491170000000 1.0
C      1  0.5646400000000  0.4404430000000  0.4779760000000 1.0
C      1  0.4506130000000  0.5518990000000  0.4316270000000 1.0
C      1  0.4654290000000  0.5443010000000  0.4719300000000 1.0
C      1  0.5351720000000  0.6021020000000  0.5062210000000 1.0
C      1  0.4072570000000  0.5294910000000  0.5168920000000 1.0
C      1  0.5938800000000  0.5264960000000  0.4861330000000 1.0
C      1  0.4761670000000  0.4000310000000  0.4796660000000 1.0
C      1  0.4947810000000  0.5230370000000  0.4236820000000 1.0
C      1  0.4761790000000  0.5469180000000  0.4185040000000 1.0
C      1  0.5069770000000  0.4659210000000  0.4524650000000 1.0
C      1  0.5496470000000  0.5882330000000  0.5262630000000 1.0
C      1  0.4079700000000  0.5428480000000  0.4702900000000 1.0
C      1  0.5303820000000  0.4825670000000  0.5871480000000 1.0
C      1  0.5238860000000  0.4491570000000  0.5134250000000 1.0
C      1  0.5725170000000  0.5748160000000  0.5153110000000 1.0
C      1  0.4771300000000  0.4953950000000  0.5464670000000 1.0
C      1  0.5463370000000  0.5143790000000  0.4102300000000 1.0
C      1  0.5384160000000  0.4854590000000  0.4139700000000 1.0
C      1  0.4913860000000  0.5268510000000  0.5030470000000 1.0
C      1  0.4953510000000  0.5691190000000  0.4201460000000 1.0
C      1  0.5087250000000  0.5401450000000  0.5910310000000 1.0
C      1  0.4348680000000  0.5032730000000  0.4880640000000 1.0
C      1  0.5024130000000  0.4892160000000  0.5961160000000 1.0
C      1  0.5325600000000  0.4496180000000  0.5878360000000 1.0
C      1  0.4532160000000  0.4678970000000  0.5219540000000 1.0
END
