TITL C-950535-5962-325 0.000178552371417572 125000 -604.305305907919 0 0 99 (C1) n - 1
REM
REM in /home/bkarasulu/work/CARBON/AIRSS/Generating-Clusters/EDIP-Nigel-Params/with-SteepDescent/Only-C1/SD-CG/HFTN-CG
REM
REM
REM
REM
REM
REM ./C.cell (11c1c37f851c82e70ff6c80c92926a4b)
REM
REM compiler GCC version 9.2.1 20190827 (Red Hat 9.2.1-1)
REM options -cpp -mtune=generic -march=x86-64 -g -O0 -fpre-include=/usr/include/finclude/math-vector-fortran.h
REM seed 1436438327 -277034301 -1431316445 -1153533030 -1970179941 -293190442 -689841579 -2064466598 1746089563 1346324751 1771119077 37753460 -1467483695 -411364800 1146172981 -298058704 -169289458 1274970559 1574395093 893651782 -1057258174 -2055974273 645248780 1392494583 -1788447990 -1812254325 1626155919 -847876150 -173879287 -617213284 -1658504793 -382080946 -961790766
REM
CELL 1.54180   50.00000   50.00000   50.00000   90.00000   90.00000   90.00000
LATT -1
SFAC C  
C      1  0.4928640000000  0.5589900000000  0.4343330000000 1.0
C      1  0.5294660000000  0.5019180000000  0.5175780000000 1.0
C      1  0.4192670000000  0.4953700000000  0.5090900000000 1.0
C      1  0.4133980000000  0.4656280000000  0.5052460000000 1.0
C      1  0.5654440000000  0.4409900000000  0.5253380000000 1.0
C      1  0.5824920000000  0.4867160000000  0.5207510000000 1.0
C      1  0.5093300000000  0.5960860000000  0.4942110000000 1.0
C      1  0.4564090000000  0.5428960000000  0.5586040000000 1.0
C      1  0.4918560000000  0.5301440000000  0.4414170000000 1.0
C      1  0.4876690000000  0.4071080000000  0.4985780000000 1.0
C      1  0.4059910000000  0.5112630000000  0.4892520000000 1.0
C      1  0.5795860000000  0.4628260000000  0.5350930000000 1.0
C      1  0.6120810000000  0.4943750000000  0.4353560000000 1.0
C      1  0.5191850000000  0.5634980000000  0.5554420000000 1.0
C      1  0.4310940000000  0.4480400000000  0.5219610000000 1.0
C      1  0.4312070000000  0.5559390000000  0.5204960000000 1.0
C      1  0.5903330000000  0.4970460000000  0.4534290000000 1.0
C      1  0.5019400000000  0.5171680000000  0.5186660000000 1.0
C      1  0.5117210000000  0.5150220000000  0.4259100000000 1.0
C      1  0.5491220000000  0.4858070000000  0.4296880000000 1.0
C      1  0.4645380000000  0.5693360000000  0.5558830000000 1.0
C      1  0.6162660000000  0.4885530000000  0.4613150000000 1.0
C      1  0.5620910000000  0.5295310000000  0.5360090000000 1.0
C      1  0.5759740000000  0.4678970000000  0.5622370000000 1.0
C      1  0.5277280000000  0.5769270000000  0.4550210000000 1.0
C      1  0.4832960000000  0.4630090000000  0.4876640000000 1.0
C      1  0.4177770000000  0.5172680000000  0.4642950000000 1.0
C      1  0.4747630000000  0.5727400000000  0.5086080000000 1.0
C      1  0.4566690000000  0.4712730000000  0.4455760000000 1.0
C      1  0.5043280000000  0.5767610000000  0.4732570000000 1.0
C      1  0.4292200000000  0.5438950000000  0.4621960000000 1.0
C      1  0.5327710000000  0.4455750000000  0.4599200000000 1.0
C      1  0.4800960000000  0.4323680000000  0.5402180000000 1.0
C      1  0.5219080000000  0.5037020000000  0.5949040000000 1.0
C      1  0.5174550000000  0.5718290000000  0.4298070000000 1.0
C      1  0.4731670000000  0.4776360000000  0.5185760000000 1.0
C      1  0.5452210000000  0.5106310000000  0.5522270000000 1.0
C      1  0.5369260000000  0.5095010000000  0.4421020000000 1.0
C      1  0.5809020000000  0.5147740000000  0.5173230000000 1.0
C      1  0.5074220000000  0.4901270000000  0.5615830000000 1.0
C      1  0.4973460000000  0.4343830000000  0.4301470000000 1.0
C      1  0.5113560000000  0.4411220000000  0.5709740000000 1.0
C      1  0.5482580000000  0.4197040000000  0.5205670000000 1.0
C      1  0.4463010000000  0.4301430000000  0.5041240000000 1.0
C      1  0.5355650000000  0.5734180000000  0.5346660000000 1.0
C      1  0.5257350000000  0.4718070000000  0.4211640000000 1.0
C      1  0.4868670000000  0.5109330000000  0.4932120000000 1.0
C      1  0.4759690000000  0.4310690000000  0.5092620000000 1.0
C      1  0.4822250000000  0.5747970000000  0.5352690000000 1.0
C      1  0.5231200000000  0.5918090000000  0.5173260000000 1.0
C      1  0.4375750000000  0.5352260000000  0.5381020000000 1.0
C      1  0.4729020000000  0.5034970000000  0.5854280000000 1.0
C      1  0.4317600000000  0.4818250000000  0.4587060000000 1.0
C      1  0.5560630000000  0.5329920000000  0.4474640000000 1.0
C      1  0.5617040000000  0.4907750000000  0.5642190000000 1.0
C      1  0.4470870000000  0.5597510000000  0.4441630000000 1.0
C      1  0.5303610000000  0.5240600000000  0.5759230000000 1.0
C      1  0.5798000000000  0.5224030000000  0.4623780000000 1.0
C      1  0.4528910000000  0.4822350000000  0.5765850000000 1.0
C      1  0.4826560000000  0.4279840000000  0.4530780000000 1.0
C      1  0.5266620000000  0.4141590000000  0.5371160000000 1.0
C      1  0.5076620000000  0.5414440000000  0.5692150000000 1.0
C      1  0.4798360000000  0.5253390000000  0.5647550000000 1.0
C      1  0.4620020000000  0.4559660000000  0.5640400000000 1.0
C      1  0.4434810000000  0.4957890000000  0.4925860000000 1.0
C      1  0.5228620000000  0.4733100000000  0.5088490000000 1.0
C      1  0.5428040000000  0.5091330000000  0.4918290000000 1.0
C      1  0.5478950000000  0.5509770000000  0.5210200000000 1.0
C      1  0.4199290000000  0.4593100000000  0.4761640000000 1.0
C      1  0.5015630000000  0.5243890000000  0.4718830000000 1.0
C      1  0.5241550000000  0.5029810000000  0.4698060000000 1.0
C      1  0.5228070000000  0.4456710000000  0.4328500000000 1.0
C      1  0.5014180000000  0.4881700000000  0.4220110000000 1.0
C      1  0.4709270000000  0.4844090000000  0.4220790000000 1.0
C      1  0.4730350000000  0.5713940000000  0.4509920000000 1.0
C      1  0.5138860000000  0.4635710000000  0.5538500000000 1.0
C      1  0.5141440000000  0.4715900000000  0.4798040000000 1.0
C      1  0.5022750000000  0.4615400000000  0.5267500000000 1.0
C      1  0.4961630000000  0.4922210000000  0.5980410000000 1.0
C      1  0.4989610000000  0.4158280000000  0.4745040000000 1.0
C      1  0.5599430000000  0.5537070000000  0.4942130000000 1.0
C      1  0.4600780000000  0.5192260000000  0.4930960000000 1.0
C      1  0.5275470000000  0.4206970000000  0.4728470000000 1.0
C      1  0.4485330000000  0.5656880000000  0.5007370000000 1.0
C      1  0.5450530000000  0.5546290000000  0.4667410000000 1.0
C      1  0.4646880000000  0.5201950000000  0.4354150000000 1.0
C      1  0.4262440000000  0.5084510000000  0.5361860000000 1.0
C      1  0.4872730000000  0.5046910000000  0.5422130000000 1.0
C      1  0.5042370000000  0.5494000000000  0.5172840000000 1.0
C      1  0.5046280000000  0.4204110000000  0.5530160000000 1.0
C      1  0.4539110000000  0.5460340000000  0.4797300000000 1.0
C      1  0.4570850000000  0.5076920000000  0.4119390000000 1.0
C      1  0.4512920000000  0.4647890000000  0.5365000000000 1.0
C      1  0.5436270000000  0.4138120000000  0.4942180000000 1.0
C      1  0.5685730000000  0.5243110000000  0.4909520000000 1.0
C      1  0.4321100000000  0.4908760000000  0.5577660000000 1.0
C      1  0.4408520000000  0.4383180000000  0.4765250000000 1.0
C      1  0.4659870000000  0.4499310000000  0.4645870000000 1.0
C      1  0.5113600000000  0.5498580000000  0.4859750000000 1.0
END
