TITL C-950521-2237-508 -3.38671763760024e-06 125000 -634.176925902188 0 0 102 (C1) n - 1
REM
REM in /home/bkarasulu/work/CARBON/AIRSS/Generating-Clusters/EDIP-Nigel-Params/with-SteepDescent/Only-C1/SD-CG/HFTN-CG
REM
REM
REM
REM
REM
REM ./C.cell (11c1c37f851c82e70ff6c80c92926a4b)
REM
REM compiler GCC version 9.2.1 20190827 (Red Hat 9.2.1-1)
REM options -cpp -mtune=generic -march=x86-64 -g -O0 -fpre-include=/usr/include/finclude/math-vector-fortran.h
REM seed 756024438 806339923 -552649614 -197473862 1825950395 1346707122 -88084545 1110453978 -416395659 -2021904558 2123626260 -929443282 -767975473 1760235449 379178970 1630578359 -1936761647 -1648894052 1568930784 1743146776 57371270 -1324946494 390760613 564916970 -268739210 -1283610652 841927153 -538845397 1567200586 -1388686393 -797821723 -1784177830 -95632419
REM
CELL 1.54180   50.00000   50.00000   50.00000   90.00000   90.00000   90.00000
LATT -1
SFAC C  
C      1  0.5109620000000  0.4398770000000  0.5449040000000 1.0
C      1  0.5750050000000  0.4669140000000  0.5118170000000 1.0
C      1  0.5801990000000  0.4902110000000  0.5289890000000 1.0
C      1  0.5982040000000  0.4954170000000  0.4795270000000 1.0
C      1  0.5212960000000  0.5422720000000  0.4145870000000 1.0
C      1  0.4315810000000  0.5613950000000  0.4926040000000 1.0
C      1  0.5136720000000  0.5146980000000  0.5373250000000 1.0
C      1  0.5420580000000  0.5558520000000  0.4270660000000 1.0
C      1  0.4330590000000  0.4546530000000  0.4887510000000 1.0
C      1  0.4453180000000  0.5580650000000  0.5532540000000 1.0
C      1  0.5283040000000  0.5295060000000  0.4654920000000 1.0
C      1  0.4178590000000  0.5380980000000  0.5032740000000 1.0
C      1  0.4827580000000  0.5180140000000  0.4743960000000 1.0
C      1  0.5139650000000  0.4232410000000  0.4568930000000 1.0
C      1  0.5879250000000  0.4703170000000  0.4860150000000 1.0
C      1  0.5453240000000  0.4718120000000  0.5608600000000 1.0
C      1  0.4995060000000  0.5534230000000  0.5076140000000 1.0
C      1  0.5372380000000  0.4515250000000  0.5408650000000 1.0
C      1  0.4158460000000  0.4959140000000  0.5296970000000 1.0
C      1  0.4718540000000  0.4365950000000  0.4694110000000 1.0
C      1  0.5179040000000  0.5773990000000  0.5075340000000 1.0
C      1  0.4564620000000  0.5265440000000  0.4363720000000 1.0
C      1  0.5234150000000  0.5812670000000  0.4771060000000 1.0
C      1  0.4551650000000  0.5689260000000  0.5294230000000 1.0
C      1  0.4909460000000  0.5388340000000  0.5932980000000 1.0
C      1  0.5572640000000  0.4829760000000  0.4275650000000 1.0
C      1  0.4304060000000  0.4919440000000  0.4457010000000 1.0
C      1  0.4690580000000  0.5706170000000  0.4551350000000 1.0
C      1  0.4006540000000  0.4912810000000  0.5034330000000 1.0
C      1  0.4387940000000  0.5117710000000  0.5194640000000 1.0
C      1  0.4976110000000  0.4219080000000  0.5067750000000 1.0
C      1  0.4707410000000  0.4263060000000  0.4970050000000 1.0
C      1  0.5671420000000  0.5139910000000  0.5691290000000 1.0
C      1  0.4940010000000  0.4766640000000  0.5702330000000 1.0
C      1  0.5453020000000  0.4316140000000  0.4938420000000 1.0
C      1  0.4553480000000  0.5269090000000  0.4655050000000 1.0
C      1  0.4968400000000  0.4725050000000  0.4994820000000 1.0
C      1  0.4822570000000  0.4773980000000  0.4487500000000 1.0
C      1  0.5040370000000  0.5498470000000  0.5716440000000 1.0
C      1  0.4284000000000  0.4734300000000  0.5453130000000 1.0
C      1  0.5753740000000  0.5275460000000  0.4508130000000 1.0
C      1  0.4934510000000  0.5692010000000  0.5551410000000 1.0
C      1  0.5323760000000  0.4840970000000  0.4730790000000 1.0
C      1  0.5629960000000  0.4314590000000  0.4711220000000 1.0
C      1  0.5026810000000  0.5410040000000  0.4790500000000 1.0
C      1  0.4097090000000  0.5152220000000  0.4862250000000 1.0
C      1  0.5464650000000  0.4561920000000  0.5123560000000 1.0
C      1  0.5456810000000  0.5515860000000  0.5461420000000 1.0
C      1  0.4375600000000  0.5812880000000  0.5113090000000 1.0
C      1  0.4439000000000  0.4470170000000  0.4630660000000 1.0
C      1  0.4342800000000  0.4867210000000  0.5693380000000 1.0
C      1  0.4855670000000  0.5031360000000  0.5366680000000 1.0
C      1  0.4798010000000  0.4985340000000  0.4983650000000 1.0
C      1  0.4849270000000  0.5729860000000  0.5282680000000 1.0
C      1  0.4532180000000  0.4563070000000  0.5354690000000 1.0
C      1  0.5393350000000  0.5160480000000  0.5796500000000 1.0
C      1  0.4555850000000  0.4361860000000  0.5556310000000 1.0
C      1  0.5720020000000  0.5315920000000  0.4985300000000 1.0
C      1  0.4988230000000  0.5400150000000  0.4339460000000 1.0
C      1  0.5228430000000  0.5030910000000  0.4532790000000 1.0
C      1  0.5294910000000  0.4877050000000  0.5826210000000 1.0
C      1  0.4590990000000  0.5192780000000  0.5418880000000 1.0
C      1  0.5036510000000  0.4153640000000  0.5332830000000 1.0
C      1  0.4704110000000  0.5519860000000  0.4292320000000 1.0
C      1  0.5512670000000  0.5695070000000  0.4723880000000 1.0
C      1  0.4377800000000  0.5373780000000  0.5699300000000 1.0
C      1  0.5000510000000  0.5649960000000  0.4593720000000 1.0
C      1  0.4920980000000  0.5138770000000  0.6030360000000 1.0
C      1  0.5501740000000  0.5459850000000  0.4530860000000 1.0
C      1  0.5319590000000  0.4967720000000  0.4249990000000 1.0
C      1  0.5745940000000  0.5040550000000  0.4350920000000 1.0
C      1  0.5189250000000  0.4206200000000  0.4866660000000 1.0
C      1  0.4928630000000  0.4594790000000  0.4697240000000 1.0
C      1  0.4745660000000  0.4623960000000  0.4244550000000 1.0
C      1  0.4483330000000  0.4414720000000  0.5097670000000 1.0
C      1  0.4930190000000  0.5050260000000  0.4494860000000 1.0
C      1  0.4486240000000  0.5107940000000  0.5692260000000 1.0
C      1  0.4807210000000  0.4348750000000  0.4241920000000 1.0
C      1  0.4852060000000  0.4200860000000  0.4480600000000 1.0
C      1  0.5335040000000  0.5053270000000  0.5179030000000 1.0
C      1  0.4508800000000  0.4941000000000  0.4980070000000 1.0
C      1  0.4079430000000  0.4663450000000  0.4924980000000 1.0
C      1  0.4353670000000  0.5049800000000  0.4735700000000 1.0
C      1  0.5012440000000  0.4885140000000  0.5964960000000 1.0
C      1  0.4964340000000  0.4477470000000  0.5682370000000 1.0
C      1  0.5830470000000  0.4505120000000  0.4664860000000 1.0
C      1  0.4357810000000  0.5107970000000  0.4248850000000 1.0
C      1  0.5523990000000  0.4578010000000  0.4442730000000 1.0
C      1  0.5680620000000  0.5327300000000  0.5458480000000 1.0
C      1  0.5275190000000  0.4799390000000  0.5012750000000 1.0
C      1  0.4825630000000  0.4709050000000  0.5332590000000 1.0
C      1  0.5246410000000  0.5332240000000  0.5589110000000 1.0
C      1  0.5234100000000  0.4501230000000  0.4489300000000 1.0
C      1  0.5300190000000  0.5173370000000  0.4058890000000 1.0
C      1  0.5632990000000  0.5147570000000  0.5218910000000 1.0
C      1  0.5618500000000  0.5592130000000  0.4982010000000 1.0
C      1  0.4739250000000  0.4324240000000  0.5748420000000 1.0
C      1  0.5427940000000  0.5654120000000  0.5194930000000 1.0
C      1  0.5872890000000  0.5210830000000  0.4764670000000 1.0
C      1  0.4406900000000  0.4652190000000  0.4406830000000 1.0
C      1  0.5710680000000  0.4861490000000  0.5574060000000 1.0
C      1  0.4531880000000  0.5545530000000  0.4745490000000 1.0
END
