TITL C-950531-5884-190 0.000214777253748603 125000 -262.833168814596 0 0 45 (C1) n - 1
REM
REM in /home/bkarasulu/work/CARBON/AIRSS/Generating-Clusters/EDIP-Nigel-Params/with-SteepDescent/Only-C1/SD-CG/HFTN-CG
REM
REM
REM
REM
REM
REM ./C.cell (11c1c37f851c82e70ff6c80c92926a4b)
REM
REM compiler GCC version 9.2.1 20190827 (Red Hat 9.2.1-1)
REM options -cpp -mtune=generic -march=x86-64 -g -O0 -fpre-include=/usr/include/finclude/math-vector-fortran.h
REM seed -842646623 1402400887 -1070886880 -1907009393 -79155018 -15005970 -942869566 -40849497 -340186315 285479744 -1835038397 -1766174943 -1654339210 -916398496 -767870568 -446909578 -772278602 -951525180 1112570191 -1510013087 -27484115 1161668728 1278697472 -1501760953 298527866 -806990983 1641200559 -922273414 1036796662 -629312891 -533698874 -370733557 -1204827114
REM
CELL 1.54180   50.00000   50.00000   50.00000   90.00000   90.00000   90.00000
LATT -1
SFAC C  
C      1  0.4329760000000  0.4760910000000  0.5266050000000 1.0
C      1  0.5151330000000  0.4974450000000  0.5646590000000 1.0
C      1  0.5035180000000  0.5310580000000  0.5181480000000 1.0
C      1  0.5417780000000  0.4652100000000  0.4654680000000 1.0
C      1  0.4826730000000  0.4257030000000  0.5527780000000 1.0
C      1  0.4381430000000  0.4731020000000  0.4988410000000 1.0
C      1  0.4574210000000  0.4873180000000  0.4821860000000 1.0
C      1  0.5436310000000  0.5515240000000  0.5008910000000 1.0
C      1  0.5231890000000  0.5283690000000  0.4520330000000 1.0
C      1  0.4802060000000  0.5050290000000  0.4446100000000 1.0
C      1  0.4361380000000  0.5035550000000  0.5340060000000 1.0
C      1  0.4912980000000  0.4821730000000  0.5193240000000 1.0
C      1  0.5063330000000  0.5426430000000  0.4333730000000 1.0
C      1  0.5020000000000  0.5672380000000  0.4824800000000 1.0
C      1  0.4981930000000  0.4534300000000  0.4858820000000 1.0
C      1  0.5469600000000  0.4482790000000  0.5003170000000 1.0
C      1  0.4869330000000  0.4539830000000  0.5120790000000 1.0
C      1  0.4954730000000  0.5060990000000  0.5003400000000 1.0
C      1  0.4523940000000  0.4644330000000  0.5469480000000 1.0
C      1  0.5948030000000  0.5115230000000  0.4525290000000 1.0
C      1  0.4888990000000  0.5064030000000  0.5605750000000 1.0
C      1  0.5300490000000  0.5656480000000  0.4820120000000 1.0
C      1  0.5694280000000  0.5095670000000  0.4495320000000 1.0
C      1  0.4953640000000  0.4321170000000  0.5290560000000 1.0
C      1  0.4841230000000  0.5548960000000  0.4620800000000 1.0
C      1  0.4929030000000  0.5545660000000  0.5054330000000 1.0
C      1  0.4630020000000  0.5415850000000  0.5386970000000 1.0
C      1  0.4667910000000  0.5143100000000  0.4948650000000 1.0
C      1  0.5259360000000  0.4620780000000  0.4880270000000 1.0
C      1  0.5544710000000  0.4547650000000  0.5257230000000 1.0
C      1  0.5467890000000  0.5179260000000  0.5368210000000 1.0
C      1  0.5504080000000  0.4720620000000  0.5455690000000 1.0
C      1  0.4547300000000  0.4935230000000  0.4532060000000 1.0
C      1  0.4792320000000  0.4692000000000  0.4707620000000 1.0
C      1  0.5430470000000  0.5086960000000  0.4413580000000 1.0
C      1  0.5049220000000  0.5038430000000  0.4631910000000 1.0
C      1  0.5277240000000  0.4845460000000  0.4498060000000 1.0
C      1  0.4721740000000  0.4902480000000  0.5406270000000 1.0
C      1  0.4807100000000  0.5306180000000  0.4316610000000 1.0
C      1  0.4595000000000  0.4369230000000  0.5424740000000 1.0
C      1  0.4665280000000  0.5368050000000  0.4762420000000 1.0
C      1  0.5404280000000  0.4965930000000  0.5531950000000 1.0
C      1  0.4523030000000  0.5225820000000  0.5207100000000 1.0
C      1  0.4886370000000  0.5315400000000  0.5447120000000 1.0
C      1  0.5327110000000  0.5347550000000  0.5201720000000 1.0
END
