TITL C-951338-5626-378 3.89166758831509e-07 125000 -601.035317740003 0 0 96 (C1) n - 1
REM
REM in /home/bkarasulu/work/CARBON/AIRSS/Generating-Clusters/EDIP-Nigel-Params/with-SteepDescent/Only-C1/SD-CG/HFTN-CG
REM
REM
REM
REM
REM
REM ./C.cell (11c1c37f851c82e70ff6c80c92926a4b)
REM
REM compiler GCC version 9.2.1 20190827 (Red Hat 9.2.1-1)
REM options -cpp -mtune=generic -march=x86-64 -g -O0 -fpre-include=/usr/include/finclude/math-vector-fortran.h
REM seed 1387017711 7572916 1153652011 -689813783 -1120730414 460972170 -130674354 -674797752 -436533003 -671379887 -1082065805 2080488063 1667589102 159431566 -859060205 1403756464 16858342 -44705240 -1907710789 1415632587 -2064454864 -942325629 -578438370 754001042 1245867248 -1081517362 942902088 280130469 543873772 -1324929159 532747832 264893420 -2032980502
REM
CELL 1.54180   50.00000   50.00000   50.00000   90.00000   90.00000   90.00000
LATT -1
SFAC C  
C      1  0.4952900000000  0.5438580000000  0.5826430000000 1.0
C      1  0.4760090000000  0.4305130000000  0.4475420000000 1.0
C      1  0.5158650000000  0.5013800000000  0.5416800000000 1.0
C      1  0.4501970000000  0.5298160000000  0.5641180000000 1.0
C      1  0.4308360000000  0.4588210000000  0.4882490000000 1.0
C      1  0.5214500000000  0.5760570000000  0.4977130000000 1.0
C      1  0.4736440000000  0.5243500000000  0.5808510000000 1.0
C      1  0.4863570000000  0.5065990000000  0.4503760000000 1.0
C      1  0.4269930000000  0.4579620000000  0.5407700000000 1.0
C      1  0.5078490000000  0.4744300000000  0.4744890000000 1.0
C      1  0.5782790000000  0.5165720000000  0.4479140000000 1.0
C      1  0.5291650000000  0.4272930000000  0.5022060000000 1.0
C      1  0.4826540000000  0.5632980000000  0.4527170000000 1.0
C      1  0.5022680000000  0.5259280000000  0.4713250000000 1.0
C      1  0.5325580000000  0.4878700000000  0.4657890000000 1.0
C      1  0.4357440000000  0.5512410000000  0.4706850000000 1.0
C      1  0.5542220000000  0.4386010000000  0.4523300000000 1.0
C      1  0.4289290000000  0.5298190000000  0.5202040000000 1.0
C      1  0.5825540000000  0.4956240000000  0.5186710000000 1.0
C      1  0.4818390000000  0.5860720000000  0.5244780000000 1.0
C      1  0.4513100000000  0.5568450000000  0.5515470000000 1.0
C      1  0.5578540000000  0.5266130000000  0.4289480000000 1.0
C      1  0.5156320000000  0.5278530000000  0.5271630000000 1.0
C      1  0.4687310000000  0.4932380000000  0.5013410000000 1.0
C      1  0.5079790000000  0.4293770000000  0.5240930000000 1.0
C      1  0.4468140000000  0.4931690000000  0.4310320000000 1.0
C      1  0.4659570000000  0.4813970000000  0.5892360000000 1.0
C      1  0.5527710000000  0.5429510000000  0.4896390000000 1.0
C      1  0.5589410000000  0.5103690000000  0.5300120000000 1.0
C      1  0.4348450000000  0.4301180000000  0.5359510000000 1.0
C      1  0.5118530000000  0.4369760000000  0.4805590000000 1.0
C      1  0.4312830000000  0.4734570000000  0.4463110000000 1.0
C      1  0.4510750000000  0.4218000000000  0.4609480000000 1.0
C      1  0.4969010000000  0.4561160000000  0.5125570000000 1.0
C      1  0.5831330000000  0.4731670000000  0.4727680000000 1.0
C      1  0.4697550000000  0.4672550000000  0.5659150000000 1.0
C      1  0.5422980000000  0.5032130000000  0.4195230000000 1.0
C      1  0.5435100000000  0.4936960000000  0.4928880000000 1.0
C      1  0.5528780000000  0.4441400000000  0.5021870000000 1.0
C      1  0.4658680000000  0.4630340000000  0.5152510000000 1.0
C      1  0.5618800000000  0.5571350000000  0.5155800000000 1.0
C      1  0.5143210000000  0.4515830000000  0.4262180000000 1.0
C      1  0.4275540000000  0.4831970000000  0.4733960000000 1.0
C      1  0.5368680000000  0.5724670000000  0.5227820000000 1.0
C      1  0.4759600000000  0.5677500000000  0.4820280000000 1.0
C      1  0.5737720000000  0.4964870000000  0.4903230000000 1.0
C      1  0.5189920000000  0.5356490000000  0.5950810000000 1.0
C      1  0.4557130000000  0.5444060000000  0.4485490000000 1.0
C      1  0.4302720000000  0.5575670000000  0.5305720000000 1.0
C      1  0.4162930000000  0.4554920000000  0.5131010000000 1.0
C      1  0.4868800000000  0.4571120000000  0.4339480000000 1.0
C      1  0.5330680000000  0.5622120000000  0.4738690000000 1.0
C      1  0.5673550000000  0.5379360000000  0.5388600000000 1.0
C      1  0.5481620000000  0.4820770000000  0.4403430000000 1.0
C      1  0.5672260000000  0.4475560000000  0.4762160000000 1.0
C      1  0.5252450000000  0.5531900000000  0.5438350000000 1.0
C      1  0.4327110000000  0.5279800000000  0.4901120000000 1.0
C      1  0.4773430000000  0.4150480000000  0.5131900000000 1.0
C      1  0.4831320000000  0.5398890000000  0.4906340000000 1.0
C      1  0.5435850000000  0.5286090000000  0.5836660000000 1.0
C      1  0.4759690000000  0.4059400000000  0.4853620000000 1.0
C      1  0.4952150000000  0.4566020000000  0.5622810000000 1.0
C      1  0.4350350000000  0.5765510000000  0.5105420000000 1.0
C      1  0.5492270000000  0.5468150000000  0.5610450000000 1.0
C      1  0.4983950000000  0.4961820000000  0.4945010000000 1.0
C      1  0.4933070000000  0.5850830000000  0.4989180000000 1.0
C      1  0.5156160000000  0.4823950000000  0.5176270000000 1.0
C      1  0.5629930000000  0.4523870000000  0.5282830000000 1.0
C      1  0.5160250000000  0.5153240000000  0.4195590000000 1.0
C      1  0.4877780000000  0.4774950000000  0.4556250000000 1.0
C      1  0.5777760000000  0.4858640000000  0.4462970000000 1.0
C      1  0.5172080000000  0.4447200000000  0.5497010000000 1.0
C      1  0.5117230000000  0.5503820000000  0.4547810000000 1.0
C      1  0.4705460000000  0.4828210000000  0.4154620000000 1.0
C      1  0.5421030000000  0.4617710000000  0.5468070000000 1.0
C      1  0.4786960000000  0.5608000000000  0.5386750000000 1.0
C      1  0.5230410000000  0.5420230000000  0.4286130000000 1.0
C      1  0.4523130000000  0.4748230000000  0.5423420000000 1.0
C      1  0.4945770000000  0.4180660000000  0.4667990000000 1.0
C      1  0.5849510000000  0.4696490000000  0.5280150000000 1.0
C      1  0.5415590000000  0.4541560000000  0.4324090000000 1.0
C      1  0.5757220000000  0.5241210000000  0.4769780000000 1.0
C      1  0.5429180000000  0.4931230000000  0.5513830000000 1.0
C      1  0.4578960000000  0.5133170000000  0.4516170000000 1.0
C      1  0.5339250000000  0.5217910000000  0.5014760000000 1.0
C      1  0.4461680000000  0.5746360000000  0.4850020000000 1.0
C      1  0.4551270000000  0.4340700000000  0.5157440000000 1.0
C      1  0.4860900000000  0.5353020000000  0.5199440000000 1.0
C      1  0.4443950000000  0.5112770000000  0.5401540000000 1.0
C      1  0.5485180000000  0.5016300000000  0.5783050000000 1.0
C      1  0.4299360000000  0.4401880000000  0.4653640000000 1.0
C      1  0.5002730000000  0.5608540000000  0.5592140000000 1.0
C      1  0.4692050000000  0.5113220000000  0.5244530000000 1.0
C      1  0.4468800000000  0.5042180000000  0.4794120000000 1.0
C      1  0.4707250000000  0.5050730000000  0.6008360000000 1.0
C      1  0.4897470000000  0.5049950000000  0.4115530000000 1.0
END
