TITL C-950524-1808-657 -8.47260764767228e-08 125000 -146.079390052429 0 0 25 (C1) n - 1
REM
REM in /home/bkarasulu/work/CARBON/AIRSS/Generating-Clusters/EDIP-Nigel-Params/with-SteepDescent/Only-C1/SD-CG/HFTN-CG
REM
REM
REM
REM
REM
REM ./C.cell (11c1c37f851c82e70ff6c80c92926a4b)
REM
REM compiler GCC version 9.2.1 20190827 (Red Hat 9.2.1-1)
REM options -cpp -mtune=generic -march=x86-64 -g -O0 -fpre-include=/usr/include/finclude/math-vector-fortran.h
REM seed -1886279664 1825870400 1311413601 -1337302821 -116709800 -1599015588 -112352411 -1294239418 2098247008 2096207972 -889697296 -787306805 739976117 -51860928 2075829152 -737308883 923632661 994063246 1084596384 -2059597400 2052736979 1749733785 -157865092 -492499682 -1546504201 30798057 -367722237 -68114148 302840325 -1022798279 -1857128574 212346287 675907909
REM
CELL 1.54180   50.00000   50.00000   50.00000   90.00000   90.00000   90.00000
LATT -1
SFAC C  
C      1  0.5129110000000  0.4598770000000  0.5222190000000 1.0
C      1  0.5458420000000  0.5307040000000  0.5327630000000 1.0
C      1  0.4995990000000  0.4948670000000  0.5550120000000 1.0
C      1  0.4782110000000  0.5173540000000  0.5185380000000 1.0
C      1  0.5627050000000  0.5141230000000  0.5205660000000 1.0
C      1  0.4700840000000  0.4635000000000  0.5018820000000 1.0
C      1  0.4343020000000  0.5253520000000  0.5036540000000 1.0
C      1  0.5317520000000  0.4967950000000  0.4349260000000 1.0
C      1  0.5155110000000  0.4785420000000  0.4994410000000 1.0
C      1  0.4490610000000  0.4806710000000  0.5095320000000 1.0
C      1  0.4893020000000  0.5237200000000  0.4758440000000 1.0
C      1  0.5109970000000  0.5134910000000  0.4270450000000 1.0
C      1  0.5085020000000  0.4694160000000  0.5494550000000 1.0
C      1  0.4835610000000  0.4979550000000  0.4649450000000 1.0
C      1  0.4849170000000  0.4519050000000  0.5238950000000 1.0
C      1  0.4502960000000  0.5072360000000  0.5182060000000 1.0
C      1  0.5608290000000  0.4941420000000  0.5029680000000 1.0
C      1  0.4911110000000  0.4747060000000  0.4831110000000 1.0
C      1  0.4511320000000  0.5442730000000  0.4935460000000 1.0
C      1  0.4782450000000  0.5376260000000  0.4974840000000 1.0
C      1  0.4965170000000  0.5186960000000  0.5413700000000 1.0
C      1  0.5403590000000  0.4930450000000  0.4606980000000 1.0
C      1  0.5409380000000  0.4839160000000  0.4867550000000 1.0
C      1  0.4934540000000  0.4949560000000  0.4379550000000 1.0
C      1  0.5198600000000  0.5331310000000  0.5381920000000 1.0
END
