TITL C-950521-2237-604 0.000877468000800545 125000 -93.7363025494632 0 0 18 (C1) n - 1
REM
REM in /home/bkarasulu/work/CARBON/AIRSS/Generating-Clusters/EDIP-Nigel-Params/with-SteepDescent/Only-C1/SD-CG/HFTN-CG
REM
REM
REM
REM
REM
REM ./C.cell (11c1c37f851c82e70ff6c80c92926a4b)
REM
REM compiler GCC version 9.2.1 20190827 (Red Hat 9.2.1-1)
REM options -cpp -mtune=generic -march=x86-64 -g -O0 -fpre-include=/usr/include/finclude/math-vector-fortran.h
REM seed -803146253 -771554591 334865928 1960546588 -1594341320 -1497464278 -1990862168 -1411100155 -366627709 -1779399076 -573282545 139490139 -605132591 -89696961 201064949 -715691125 -475219678 884854668 322679156 -1411427053 1104530589 -1441508467 -1355468906 1348026513 1432478914 -241622463 662261084 858619145 -336977502 1854687175 1172690779 1975212503 1913403879
REM
CELL 1.54180   50.00000   50.00000   50.00000   90.00000   90.00000   90.00000
LATT -1
SFAC C  
C      1  0.5204890000000  0.5775520000000  0.4915780000000 1.0
C      1  0.5396930000000  0.5713260000000  0.5345170000000 1.0
C      1  0.4975530000000  0.4756230000000  0.5170200000000 1.0
C      1  0.4929630000000  0.4605180000000  0.5396800000000 1.0
C      1  0.5336770000000  0.5565290000000  0.4792370000000 1.0
C      1  0.4602310000000  0.4652300000000  0.4908470000000 1.0
C      1  0.4962230000000  0.5247720000000  0.4823920000000 1.0
C      1  0.4763270000000  0.4973910000000  0.4509540000000 1.0
C      1  0.5416620000000  0.5788010000000  0.5093640000000 1.0
C      1  0.4694350000000  0.4443450000000  0.5398900000000 1.0
C      1  0.5200990000000  0.4888510000000  0.4627430000000 1.0
C      1  0.5234720000000  0.5300400000000  0.4788440000000 1.0
C      1  0.4483460000000  0.4475280000000  0.5082740000000 1.0
C      1  0.4937280000000  0.4974570000000  0.4719500000000 1.0
C      1  0.4838810000000  0.4792120000000  0.4933390000000 1.0
C      1  0.4620400000000  0.4264900000000  0.5199570000000 1.0
C      1  0.5026050000000  0.4689450000000  0.5628030000000 1.0
C      1  0.5375800000000  0.5093920000000  0.4666100000000 1.0
END
