TITL C-950536-5891-520 -1.41269234612989e-07 125000 -250.376171315864 0 0 42 (C1) n - 1
REM
REM in /home/bkarasulu/work/CARBON/AIRSS/Generating-Clusters/EDIP-Nigel-Params/with-SteepDescent/Only-C1/SD-CG/HFTN-CG
REM
REM
REM
REM
REM
REM ./C.cell (11c1c37f851c82e70ff6c80c92926a4b)
REM
REM compiler GCC version 9.2.1 20190827 (Red Hat 9.2.1-1)
REM options -cpp -mtune=generic -march=x86-64 -g -O0 -fpre-include=/usr/include/finclude/math-vector-fortran.h
REM seed -974313379 -378200671 2084912598 1101393380 134342152 2067260426 -1213059005 -1776458035 790198187 -1119362568 -102307112 860480496 -1817466578 -967980623 -1011127 1653701255 628282595 118312273 -790199053 -1716757366 -1221941841 1227550598 -2064115337 262179795 170959589 -1617070900 -1594300174 -1570673293 -727732870 -1926474445 -275857721 1221233727 1600515333
REM
CELL 1.54180   50.00000   50.00000   50.00000   90.00000   90.00000   90.00000
LATT -1
SFAC C  
C      1  0.5012320000000  0.4367780000000  0.5096420000000 1.0
C      1  0.4375900000000  0.4862410000000  0.5329890000000 1.0
C      1  0.5568030000000  0.5219880000000  0.5308740000000 1.0
C      1  0.5532570000000  0.4787070000000  0.5511210000000 1.0
C      1  0.4787760000000  0.5209710000000  0.5088570000000 1.0
C      1  0.4927350000000  0.5136790000000  0.5338870000000 1.0
C      1  0.4383350000000  0.5346750000000  0.4779360000000 1.0
C      1  0.5342840000000  0.5354520000000  0.4442440000000 1.0
C      1  0.5415970000000  0.4592400000000  0.5345720000000 1.0
C      1  0.5262240000000  0.5029470000000  0.4986440000000 1.0
C      1  0.4554380000000  0.5140720000000  0.4657150000000 1.0
C      1  0.5253820000000  0.4646000000000  0.4635170000000 1.0
C      1  0.4722790000000  0.5491930000000  0.5510830000000 1.0
C      1  0.5500190000000  0.4601410000000  0.5076060000000 1.0
C      1  0.4976900000000  0.4755200000000  0.4599220000000 1.0
C      1  0.4590860000000  0.5446420000000  0.5084400000000 1.0
C      1  0.5164820000000  0.5644800000000  0.4770620000000 1.0
C      1  0.4992880000000  0.5012200000000  0.4458640000000 1.0
C      1  0.5379400000000  0.4766040000000  0.4881530000000 1.0
C      1  0.5492790000000  0.5208860000000  0.5040290000000 1.0
C      1  0.5268100000000  0.5089270000000  0.4396280000000 1.0
C      1  0.5408520000000  0.5027970000000  0.5436920000000 1.0
C      1  0.4555180000000  0.5589840000000  0.5327910000000 1.0
C      1  0.5406860000000  0.4606750000000  0.4390950000000 1.0
C      1  0.5165830000000  0.4968400000000  0.5273230000000 1.0
C      1  0.5003260000000  0.5496270000000  0.4936680000000 1.0
C      1  0.4774290000000  0.4460450000000  0.4935870000000 1.0
C      1  0.4842620000000  0.4321070000000  0.5348370000000 1.0
C      1  0.4992130000000  0.5215550000000  0.4856180000000 1.0
C      1  0.4832990000000  0.5220610000000  0.4587900000000 1.0
C      1  0.4566880000000  0.4918570000000  0.4851110000000 1.0
C      1  0.5121880000000  0.4657120000000  0.5305650000000 1.0
C      1  0.4402720000000  0.4994870000000  0.5083180000000 1.0
C      1  0.5457150000000  0.4875550000000  0.4394010000000 1.0
C      1  0.4788550000000  0.4728530000000  0.4820910000000 1.0
C      1  0.5389380000000  0.5521690000000  0.4660710000000 1.0
C      1  0.4589750000000  0.4439740000000  0.5182410000000 1.0
C      1  0.5549110000000  0.5409190000000  0.4857780000000 1.0
C      1  0.4271520000000  0.5242950000000  0.5022790000000 1.0
C      1  0.4864390000000  0.4596020000000  0.5490630000000 1.0
C      1  0.4602310000000  0.4693160000000  0.5341180000000 1.0
C      1  0.4909400000000  0.5306070000000  0.5557780000000 1.0
END
