TITL C-951344-124-545 9.74716124222881e-07 125000 -744.907238847848 0 0 121 (C1) n - 1
REM
REM in /home/bkarasulu/work/CARBON/AIRSS/Generating-Clusters/EDIP-Nigel-Params/with-SteepDescent/Only-C1/SD-CG/HFTN-CG
REM
REM
REM
REM
REM
REM ./C.cell (11c1c37f851c82e70ff6c80c92926a4b)
REM
REM compiler GCC version 9.2.1 20190827 (Red Hat 9.2.1-1)
REM options -cpp -mtune=generic -march=x86-64 -g -O0 -fpre-include=/usr/include/finclude/math-vector-fortran.h
REM seed -356324506 -1755321618 -2034367485 -339752605 1976175387 513188660 -918663396 931975629 540562754 488549593 36971725 819944297 -65909066 -750153165 558104547 -1167626658 817060788 -1809077791 -1641886342 -1326005141 273963306 460554861 -547187335 -862063686 -227383092 -1238580726 -797766373 -1425793615 -604155417 -77609952 -831736406 -1995103158 1334786193
REM
CELL 1.54180   50.00000   50.00000   50.00000   90.00000   90.00000   90.00000
LATT -1
SFAC C  
C      1  0.5519830000000  0.5079280000000  0.5676770000000 1.0
C      1  0.4493970000000  0.4049170000000  0.4879660000000 1.0
C      1  0.4415310000000  0.5114130000000  0.5775710000000 1.0
C      1  0.5019200000000  0.3912150000000  0.4881940000000 1.0
C      1  0.5180750000000  0.5417860000000  0.4373290000000 1.0
C      1  0.5046960000000  0.3970410000000  0.5170870000000 1.0
C      1  0.5639280000000  0.5750230000000  0.4905720000000 1.0
C      1  0.5506920000000  0.5070590000000  0.4544430000000 1.0
C      1  0.4391110000000  0.4544110000000  0.4615410000000 1.0
C      1  0.5612330000000  0.5583340000000  0.4654650000000 1.0
C      1  0.4964910000000  0.5970320000000  0.5294620000000 1.0
C      1  0.5261460000000  0.4495840000000  0.4367720000000 1.0
C      1  0.4754760000000  0.4984400000000  0.4403170000000 1.0
C      1  0.5470970000000  0.5488780000000  0.4398280000000 1.0
C      1  0.4864000000000  0.4199190000000  0.5184120000000 1.0
C      1  0.5151660000000  0.5940690000000  0.4591830000000 1.0
C      1  0.4578420000000  0.5464350000000  0.5815400000000 1.0
C      1  0.4597600000000  0.4336300000000  0.4641680000000 1.0
C      1  0.5267140000000  0.4820870000000  0.4997840000000 1.0
C      1  0.4929100000000  0.4097640000000  0.4488610000000 1.0
C      1  0.5555340000000  0.4434730000000  0.5352530000000 1.0
C      1  0.4261500000000  0.4510600000000  0.4884820000000 1.0
C      1  0.5411940000000  0.5493370000000  0.5559430000000 1.0
C      1  0.4288320000000  0.5003350000000  0.4590600000000 1.0
C      1  0.4306040000000  0.4221990000000  0.5311690000000 1.0
C      1  0.5149960000000  0.4556930000000  0.5044530000000 1.0
C      1  0.4667800000000  0.5886460000000  0.4637960000000 1.0
C      1  0.5284990000000  0.5044180000000  0.5198500000000 1.0
C      1  0.5719600000000  0.4401440000000  0.5111200000000 1.0
C      1  0.5021610000000  0.5387790000000  0.4115810000000 1.0
C      1  0.4434950000000  0.5465100000000  0.4568280000000 1.0
C      1  0.4667400000000  0.4127780000000  0.5389280000000 1.0
C      1  0.4162430000000  0.4824260000000  0.5307110000000 1.0
C      1  0.4514600000000  0.5765690000000  0.5119700000000 1.0
C      1  0.4200350000000  0.5467560000000  0.4756590000000 1.0
C      1  0.5008280000000  0.5649880000000  0.5640010000000 1.0
C      1  0.4454740000000  0.5496900000000  0.5550600000000 1.0
C      1  0.5280360000000  0.4527450000000  0.5858780000000 1.0
C      1  0.5641190000000  0.5323010000000  0.4230230000000 1.0
C      1  0.5609430000000  0.5345180000000  0.5691940000000 1.0
C      1  0.5075510000000  0.4988960000000  0.4787870000000 1.0
C      1  0.4584060000000  0.4930050000000  0.4856040000000 1.0
C      1  0.4987210000000  0.4855350000000  0.4539050000000 1.0
C      1  0.5347410000000  0.5273680000000  0.5015930000000 1.0
C      1  0.5890030000000  0.4621890000000  0.5034400000000 1.0
C      1  0.5299620000000  0.4282380000000  0.5419610000000 1.0
C      1  0.5026350000000  0.4556400000000  0.4518830000000 1.0
C      1  0.4976970000000  0.4758640000000  0.5651920000000 1.0
C      1  0.4840940000000  0.4571710000000  0.5467900000000 1.0
C      1  0.4908760000000  0.5497190000000  0.4876440000000 1.0
C      1  0.4834570000000  0.5206090000000  0.5203970000000 1.0
C      1  0.4648280000000  0.4734580000000  0.5943630000000 1.0
C      1  0.5442130000000  0.4992930000000  0.5421960000000 1.0
C      1  0.5452770000000  0.5613000000000  0.5279000000000 1.0
C      1  0.4377650000000  0.4701880000000  0.5488360000000 1.0
C      1  0.4821790000000  0.5143380000000  0.4907480000000 1.0
C      1  0.4706490000000  0.5330950000000  0.4449260000000 1.0
C      1  0.4803610000000  0.4951260000000  0.4117400000000 1.0
C      1  0.4734910000000  0.3932010000000  0.4753130000000 1.0
C      1  0.4733080000000  0.5776490000000  0.4914300000000 1.0
C      1  0.4148300000000  0.5113920000000  0.5364640000000 1.0
C      1  0.4805540000000  0.4361970000000  0.4420550000000 1.0
C      1  0.4638460000000  0.4751280000000  0.5326800000000 1.0
C      1  0.4653080000000  0.5721760000000  0.4213220000000 1.0
C      1  0.5173890000000  0.5312530000000  0.5529480000000 1.0
C      1  0.5520820000000  0.5178220000000  0.4012860000000 1.0
C      1  0.5003120000000  0.5229260000000  0.5769940000000 1.0
C      1  0.4409150000000  0.5202530000000  0.5494900000000 1.0
C      1  0.5942740000000  0.4863070000000  0.5182340000000 1.0
C      1  0.5267110000000  0.4291630000000  0.5706700000000 1.0
C      1  0.4152280000000  0.4995650000000  0.4836170000000 1.0
C      1  0.5911140000000  0.4992130000000  0.4715190000000 1.0
C      1  0.5485990000000  0.4637780000000  0.4295960000000 1.0
C      1  0.5693160000000  0.4597430000000  0.4496090000000 1.0
C      1  0.4135780000000  0.5254380000000  0.4942830000000 1.0
C      1  0.5645680000000  0.4250120000000  0.4886530000000 1.0
C      1  0.5847790000000  0.4814940000000  0.5445290000000 1.0
C      1  0.4814770000000  0.5011410000000  0.5687790000000 1.0
C      1  0.4364210000000  0.4407360000000  0.5536820000000 1.0
C      1  0.4834980000000  0.5807370000000  0.5476120000000 1.0
C      1  0.4677130000000  0.5052500000000  0.5404310000000 1.0
C      1  0.4244380000000  0.5784090000000  0.5060860000000 1.0
C      1  0.5939480000000  0.5394010000000  0.4961700000000 1.0
C      1  0.5419860000000  0.5894940000000  0.5015280000000 1.0
C      1  0.4657610000000  0.4346600000000  0.5580800000000 1.0
C      1  0.4509750000000  0.4830270000000  0.4568450000000 1.0
C      1  0.4731960000000  0.5447580000000  0.4172230000000 1.0
C      1  0.5872430000000  0.5213730000000  0.4516060000000 1.0
C      1  0.4995100000000  0.5438390000000  0.5310050000000 1.0
C      1  0.4640610000000  0.4688550000000  0.5028640000000 1.0
C      1  0.5291030000000  0.4996020000000  0.3999060000000 1.0
C      1  0.4749270000000  0.4412090000000  0.4909550000000 1.0
C      1  0.5178630000000  0.5907940000000  0.4868900000000 1.0
C      1  0.4006300000000  0.5282980000000  0.5187260000000 1.0
C      1  0.4483330000000  0.5737810000000  0.4455400000000 1.0
C      1  0.5660020000000  0.4626490000000  0.5546250000000 1.0
C      1  0.4942780000000  0.5955850000000  0.5019570000000 1.0
C      1  0.5795710000000  0.5606040000000  0.5106090000000 1.0
C      1  0.4428870000000  0.4826950000000  0.5775700000000 1.0
C      1  0.5015300000000  0.5111420000000  0.4002790000000 1.0
C      1  0.5295510000000  0.4015290000000  0.5301200000000 1.0
C      1  0.5198760000000  0.5522330000000  0.5088500000000 1.0
C      1  0.4930140000000  0.4654440000000  0.5916970000000 1.0
C      1  0.4868720000000  0.5481450000000  0.5844950000000 1.0
C      1  0.4206160000000  0.4773000000000  0.5016620000000 1.0
C      1  0.5666610000000  0.4839910000000  0.4671480000000 1.0
C      1  0.4351630000000  0.4262300000000  0.5027780000000 1.0
C      1  0.4956620000000  0.5505090000000  0.4562380000000 1.0
C      1  0.5123420000000  0.4138830000000  0.4718710000000 1.0
C      1  0.5877250000000  0.5455910000000  0.4675050000000 1.0
C      1  0.5672140000000  0.4353570000000  0.4636450000000 1.0
C      1  0.4617410000000  0.5655800000000  0.5366400000000 1.0
C      1  0.5547910000000  0.4762780000000  0.4922340000000 1.0
C      1  0.5405660000000  0.4924200000000  0.4285350000000 1.0
C      1  0.5908090000000  0.5094830000000  0.4991650000000 1.0
C      1  0.5038480000000  0.4424850000000  0.4805000000000 1.0
C      1  0.5486900000000  0.4714040000000  0.5763980000000 1.0
C      1  0.5050860000000  0.4422060000000  0.5288410000000 1.0
C      1  0.4103270000000  0.5718260000000  0.4840400000000 1.0
C      1  0.4919790000000  0.5801590000000  0.4485890000000 1.0
C      1  0.5288510000000  0.5188360000000  0.4733550000000 1.0
END
