TITL C-950532-2784-591 -6.95979412801715e-07 125000 -293.826609733438 0 0 49 (C1) n - 1
REM
REM in /home/bkarasulu/work/CARBON/AIRSS/Generating-Clusters/EDIP-Nigel-Params/with-SteepDescent/Only-C1/SD-CG/HFTN-CG
REM
REM
REM
REM
REM
REM ./C.cell (11c1c37f851c82e70ff6c80c92926a4b)
REM
REM compiler GCC version 9.2.1 20190827 (Red Hat 9.2.1-1)
REM options -cpp -mtune=generic -march=x86-64 -g -O0 -fpre-include=/usr/include/finclude/math-vector-fortran.h
REM seed -1075307956 1154184803 -1992531331 1959338501 -1474508232 867147010 247631373 -1705485333 1820860444 -432370353 -1512727874 2126826319 1543337015 986941812 1526718116 -1670935170 -909518774 470398416 2011457629 -413843759 -1637659921 616546743 13813657 1040323078 1266332082 -1417870850 781891609 -864571830 -1849750659 1828097589 454298454 1593024636 -2108836223
REM
CELL 1.54180   50.00000   50.00000   50.00000   90.00000   90.00000   90.00000
LATT -1
SFAC C  
C      1  0.4927420000000  0.4910000000000  0.4911480000000 1.0
C      1  0.4606350000000  0.4385060000000  0.5141030000000 1.0
C      1  0.4462210000000  0.4638850000000  0.4807610000000 1.0
C      1  0.5245480000000  0.5426240000000  0.5395980000000 1.0
C      1  0.5317980000000  0.4761230000000  0.4572360000000 1.0
C      1  0.4519610000000  0.4372030000000  0.4874710000000 1.0
C      1  0.4498580000000  0.4971860000000  0.5204410000000 1.0
C      1  0.5625210000000  0.5460730000000  0.4749010000000 1.0
C      1  0.4968890000000  0.4998400000000  0.4302400000000 1.0
C      1  0.4912590000000  0.5597810000000  0.4850090000000 1.0
C      1  0.4714480000000  0.5137110000000  0.4284040000000 1.0
C      1  0.4708260000000  0.5398170000000  0.4934810000000 1.0
C      1  0.5062330000000  0.4240710000000  0.5009400000000 1.0
C      1  0.4955370000000  0.4472480000000  0.5430650000000 1.0
C      1  0.4536410000000  0.5318920000000  0.4708820000000 1.0
C      1  0.4773940000000  0.5447790000000  0.5408740000000 1.0
C      1  0.4350550000000  0.4790560000000  0.5024100000000 1.0
C      1  0.4374820000000  0.5229450000000  0.5253010000000 1.0
C      1  0.5187190000000  0.4831260000000  0.5329850000000 1.0
C      1  0.4533280000000  0.5050430000000  0.4524850000000 1.0
C      1  0.5609070000000  0.5155650000000  0.5129350000000 1.0
C      1  0.5355470000000  0.5115770000000  0.4990770000000 1.0
C      1  0.5135970000000  0.5318460000000  0.4557500000000 1.0
C      1  0.4586870000000  0.5412360000000  0.5201970000000 1.0
C      1  0.5341280000000  0.4643600000000  0.4843110000000 1.0
C      1  0.4948140000000  0.5013500000000  0.5407100000000 1.0
C      1  0.5005390000000  0.5304630000000  0.5474440000000 1.0
C      1  0.4660770000000  0.4791500000000  0.4651890000000 1.0
C      1  0.4787440000000  0.5020420000000  0.5151030000000 1.0
C      1  0.4949320000000  0.5550240000000  0.4556030000000 1.0
C      1  0.4879050000000  0.4313900000000  0.5204770000000 1.0
C      1  0.5629430000000  0.5057830000000  0.5390070000000 1.0
C      1  0.5358010000000  0.5568970000000  0.5178800000000 1.0
C      1  0.5491130000000  0.4986560000000  0.4535270000000 1.0
C      1  0.5024080000000  0.4788000000000  0.4499000000000 1.0
C      1  0.5434100000000  0.4622770000000  0.5556430000000 1.0
C      1  0.4929880000000  0.5125870000000  0.4668270000000 1.0
C      1  0.4508720000000  0.4599630000000  0.5324890000000 1.0
C      1  0.5156490000000  0.5644150000000  0.4991170000000 1.0
C      1  0.4681750000000  0.5417900000000  0.4452070000000 1.0
C      1  0.5207540000000  0.4466240000000  0.5549950000000 1.0
C      1  0.5238590000000  0.4386660000000  0.4870940000000 1.0
C      1  0.4730330000000  0.4629570000000  0.5524260000000 1.0
C      1  0.5214190000000  0.4859250000000  0.5015550000000 1.0
C      1  0.5632090000000  0.5454780000000  0.5070620000000 1.0
C      1  0.4792220000000  0.4885670000000  0.5617880000000 1.0
C      1  0.5428560000000  0.4902630000000  0.5501750000000 1.0
C      1  0.5664710000000  0.5202750000000  0.4595860000000 1.0
C      1  0.5338470000000  0.5321630000000  0.4771900000000 1.0
END
