TITL C-951335-1172-32 -3.36064226733326e-06 125000 -760.694827708146 0 0 123 (C1) n - 1
REM
REM in /home/bkarasulu/work/CARBON/AIRSS/Generating-Clusters/EDIP-Nigel-Params/with-SteepDescent/Only-C1/SD-CG/HFTN-CG
REM
REM
REM
REM
REM
REM ./C.cell (11c1c37f851c82e70ff6c80c92926a4b)
REM
REM compiler GCC version 9.2.1 20190827 (Red Hat 9.2.1-1)
REM options -cpp -mtune=generic -march=x86-64 -g -O0 -fpre-include=/usr/include/finclude/math-vector-fortran.h
REM seed -455893510 1214328639 -31816952 -1859867607 -1319167595 -1565504147 -1191905109 -2060262621 -648536800 1358585501 -1707292629 -9830310 -151024341 -1201462662 -1520242324 1362902391 441399539 -101511152 467352696 -475290965 1585437220 1144757702 1416130141 -77267623 1942775709 -1327829757 1720877945 1853315200 -1367957341 471780756 288338882 1470967805 190276913
REM
CELL 1.54180   50.00000   50.00000   50.00000   90.00000   90.00000   90.00000
LATT -1
SFAC C  
C      1  0.4935250000000  0.5192190000000  0.4756710000000 1.0
C      1  0.4461660000000  0.4069440000000  0.5127440000000 1.0
C      1  0.5667540000000  0.4833540000000  0.4354240000000 1.0
C      1  0.5044490000000  0.5275370000000  0.4492560000000 1.0
C      1  0.5001560000000  0.4795900000000  0.4064500000000 1.0
C      1  0.5849010000000  0.5005030000000  0.5190900000000 1.0
C      1  0.5117600000000  0.4139420000000  0.4590660000000 1.0
C      1  0.5328570000000  0.5140910000000  0.5143480000000 1.0
C      1  0.5591910000000  0.4260510000000  0.4569390000000 1.0
C      1  0.5445970000000  0.4242580000000  0.5006230000000 1.0
C      1  0.4797420000000  0.4836680000000  0.5027080000000 1.0
C      1  0.5163400000000  0.5282000000000  0.4087470000000 1.0
C      1  0.5436190000000  0.4810980000000  0.5787370000000 1.0
C      1  0.4313790000000  0.5371780000000  0.4797020000000 1.0
C      1  0.5526420000000  0.5410150000000  0.4676300000000 1.0
C      1  0.4696800000000  0.4065000000000  0.4958460000000 1.0
C      1  0.5176910000000  0.5912220000000  0.5249240000000 1.0
C      1  0.4380490000000  0.5377750000000  0.5532020000000 1.0
C      1  0.4643780000000  0.4683090000000  0.4350640000000 1.0
C      1  0.5663560000000  0.5133270000000  0.4733880000000 1.0
C      1  0.4857980000000  0.5415700000000  0.4318590000000 1.0
C      1  0.5496500000000  0.5026520000000  0.5573500000000 1.0
C      1  0.5037860000000  0.4513630000000  0.4164140000000 1.0
C      1  0.4714090000000  0.6044320000000  0.5306550000000 1.0
C      1  0.5127660000000  0.4825440000000  0.5774740000000 1.0
C      1  0.4751110000000  0.5491750000000  0.5149790000000 1.0
C      1  0.5665450000000  0.4348670000000  0.4820610000000 1.0
C      1  0.4862960000000  0.4566060000000  0.5081180000000 1.0
C      1  0.5646130000000  0.5847700000000  0.4535460000000 1.0
C      1  0.4638260000000  0.5800070000000  0.5018850000000 1.0
C      1  0.4954800000000  0.4580370000000  0.5356420000000 1.0
C      1  0.4139440000000  0.4537590000000  0.4475580000000 1.0
C      1  0.5157160000000  0.5312020000000  0.5370840000000 1.0
C      1  0.3927210000000  0.4610290000000  0.4639090000000 1.0
C      1  0.4207790000000  0.5107520000000  0.4764960000000 1.0
C      1  0.4574180000000  0.4976370000000  0.5140530000000 1.0
C      1  0.4852030000000  0.5456300000000  0.4864150000000 1.0
C      1  0.5007570000000  0.4566190000000  0.5847080000000 1.0
C      1  0.4077500000000  0.4942600000000  0.4974260000000 1.0
C      1  0.4632970000000  0.5158070000000  0.4132410000000 1.0
C      1  0.4338830000000  0.4750270000000  0.5380270000000 1.0
C      1  0.4921360000000  0.5841300000000  0.4683820000000 1.0
C      1  0.5399270000000  0.5944690000000  0.4588550000000 1.0
C      1  0.5265450000000  0.5481610000000  0.4494460000000 1.0
C      1  0.4506560000000  0.5440340000000  0.4588480000000 1.0
C      1  0.4366220000000  0.4238730000000  0.4712150000000 1.0
C      1  0.3942860000000  0.4716240000000  0.4884810000000 1.0
C      1  0.4293190000000  0.5013650000000  0.4499200000000 1.0
C      1  0.4501220000000  0.4224880000000  0.5369290000000 1.0
C      1  0.5338040000000  0.4908400000000  0.5347380000000 1.0
C      1  0.5884290000000  0.4717710000000  0.5119790000000 1.0
C      1  0.4370300000000  0.5721490000000  0.5144720000000 1.0
C      1  0.4898340000000  0.5714290000000  0.5632670000000 1.0
C      1  0.5470640000000  0.4519570000000  0.5697870000000 1.0
C      1  0.5674300000000  0.5705690000000  0.5642220000000 1.0
C      1  0.4932090000000  0.5127470000000  0.5425200000000 1.0
C      1  0.5343120000000  0.4253700000000  0.4440960000000 1.0
C      1  0.5721390000000  0.4650660000000  0.4860030000000 1.0
C      1  0.4994360000000  0.5043680000000  0.5937650000000 1.0
C      1  0.4342280000000  0.4467560000000  0.5273890000000 1.0
C      1  0.5495480000000  0.4228000000000  0.5298040000000 1.0
C      1  0.5312610000000  0.5330110000000  0.5642570000000 1.0
C      1  0.4779200000000  0.4406440000000  0.4288600000000 1.0
C      1  0.4671200000000  0.5688970000000  0.4610290000000 1.0
C      1  0.5300650000000  0.4502100000000  0.5094900000000 1.0
C      1  0.5156280000000  0.5066400000000  0.4906100000000 1.0
C      1  0.5175010000000  0.5823150000000  0.5559380000000 1.0
C      1  0.5587230000000  0.4462540000000  0.5431790000000 1.0
C      1  0.4228810000000  0.5534390000000  0.5001700000000 1.0
C      1  0.4204630000000  0.5217320000000  0.5379150000000 1.0
C      1  0.5222980000000  0.4986200000000  0.4110680000000 1.0
C      1  0.5815020000000  0.5374090000000  0.5501580000000 1.0
C      1  0.5181260000000  0.5771200000000  0.4561210000000 1.0
C      1  0.5649250000000  0.5490670000000  0.4226380000000 1.0
C      1  0.5658200000000  0.5654670000000  0.5099860000000 1.0
C      1  0.4723970000000  0.4870370000000  0.4128920000000 1.0
C      1  0.4209950000000  0.4269060000000  0.4482170000000 1.0
C      1  0.4153210000000  0.4963840000000  0.5264780000000 1.0
C      1  0.4476890000000  0.5215200000000  0.4393590000000 1.0
C      1  0.5741830000000  0.4868150000000  0.4621930000000 1.0
C      1  0.5832340000000  0.4562190000000  0.5346170000000 1.0
C      1  0.5703320000000  0.5577340000000  0.4491820000000 1.0
C      1  0.4855300000000  0.5438300000000  0.5732630000000 1.0
C      1  0.4611230000000  0.5240040000000  0.5697740000000 1.0
C      1  0.5175260000000  0.5635640000000  0.4979270000000 1.0
C      1  0.4576070000000  0.4770210000000  0.5898970000000 1.0
C      1  0.4812190000000  0.4757110000000  0.4589350000000 1.0
C      1  0.5064890000000  0.4443340000000  0.4898450000000 1.0
C      1  0.4591200000000  0.4874260000000  0.5533890000000 1.0
C      1  0.4950420000000  0.6082680000000  0.5150030000000 1.0
C      1  0.5086710000000  0.4634430000000  0.4649280000000 1.0
C      1  0.5188180000000  0.4073630000000  0.4879220000000 1.0
C      1  0.5202710000000  0.4379750000000  0.5720070000000 1.0
C      1  0.4265290000000  0.4231470000000  0.4987350000000 1.0
C      1  0.4351100000000  0.4732720000000  0.4438360000000 1.0
C      1  0.5103980000000  0.4334220000000  0.5440920000000 1.0
C      1  0.4863510000000  0.5355750000000  0.4028630000000 1.0
C      1  0.5065950000000  0.4852550000000  0.5466530000000 1.0
C      1  0.4734670000000  0.4591430000000  0.5740400000000 1.0
C      1  0.5823690000000  0.5806940000000  0.5417350000000 1.0
C      1  0.5233980000000  0.4520390000000  0.4388880000000 1.0
C      1  0.5089110000000  0.5309730000000  0.5849120000000 1.0
C      1  0.4685460000000  0.5803490000000  0.5460010000000 1.0
C      1  0.5034240000000  0.5553040000000  0.5247070000000 1.0
C      1  0.4765120000000  0.4152580000000  0.5480670000000 1.0
C      1  0.4845280000000  0.4240680000000  0.4528980000000 1.0
C      1  0.5367460000000  0.5478090000000  0.4218550000000 1.0
C      1  0.5394920000000  0.5626490000000  0.5632430000000 1.0
C      1  0.4686870000000  0.5039130000000  0.5930040000000 1.0
C      1  0.5452790000000  0.4741210000000  0.4967550000000 1.0
C      1  0.4966550000000  0.3996770000000  0.5343150000000 1.0
C      1  0.5453470000000  0.5522330000000  0.4949800000000 1.0
C      1  0.4632120000000  0.4132970000000  0.4690200000000 1.0
C      1  0.5869830000000  0.5553970000000  0.5275450000000 1.0
C      1  0.4694470000000  0.5210530000000  0.5270980000000 1.0
C      1  0.4718910000000  0.4967770000000  0.4774310000000 1.0
C      1  0.5617900000000  0.5087210000000  0.5023730000000 1.0
C      1  0.5267110000000  0.4843110000000  0.4761510000000 1.0
C      1  0.5480340000000  0.4894590000000  0.4170060000000 1.0
C      1  0.4885900000000  0.6061940000000  0.4867120000000 1.0
C      1  0.4956220000000  0.3983100000000  0.5054440000000 1.0
C      1  0.5786210000000  0.5085840000000  0.5477510000000 1.0
C      1  0.4439000000000  0.5651310000000  0.5420630000000 1.0
END
