TITL C-951340-9809-484 -3.01211515286767e-06 125000 -1251.17168213604 0 0 199 (C1) n - 1
REM
REM in /home/bkarasulu/work/CARBON/AIRSS/Generating-Clusters/EDIP-Nigel-Params/with-SteepDescent/Only-C1/SD-CG/HFTN-CG
REM
REM
REM
REM
REM
REM ./C.cell (11c1c37f851c82e70ff6c80c92926a4b)
REM
REM compiler GCC version 9.2.1 20190827 (Red Hat 9.2.1-1)
REM options -cpp -mtune=generic -march=x86-64 -g -O0 -fpre-include=/usr/include/finclude/math-vector-fortran.h
REM seed -1245627163 2130507180 244941213 294475836 913111329 251915264 -1114631515 1456345666 1680832559 -429827911 1785664233 -1085764934 1085766444 -1563347586 -1932913559 970131321 1948827951 -1803327491 1347840447 1472713529 1720404165 1772942857 1857534103 -549191952 -582408761 1808099568 -126732764 120367701 -798533498 -722101448 1194394440 -964143343 685065429
REM
CELL 1.54180   50.00000   50.00000   50.00000   90.00000   90.00000   90.00000
LATT -1
SFAC C  
C      1  0.4621670000000  0.4076880000000  0.5567670000000 1.0
C      1  0.5000060000000  0.4838060000000  0.6137650000000 1.0
C      1  0.4226160000000  0.5090660000000  0.5528080000000 1.0
C      1  0.5280710000000  0.5099860000000  0.5512160000000 1.0
C      1  0.5320760000000  0.4611660000000  0.5510480000000 1.0
C      1  0.4172800000000  0.5572730000000  0.5409330000000 1.0
C      1  0.4031050000000  0.5719270000000  0.4863880000000 1.0
C      1  0.6150330000000  0.5057020000000  0.4803200000000 1.0
C      1  0.5922980000000  0.5213480000000  0.4680550000000 1.0
C      1  0.4698180000000  0.4739310000000  0.4444340000000 1.0
C      1  0.4927080000000  0.5535610000000  0.5617430000000 1.0
C      1  0.5179530000000  0.5971340000000  0.5087460000000 1.0
C      1  0.5567700000000  0.5748620000000  0.4781120000000 1.0
C      1  0.5167530000000  0.4966440000000  0.4632830000000 1.0
C      1  0.5435890000000  0.5387150000000  0.4435000000000 1.0
C      1  0.5052230000000  0.4698080000000  0.5642740000000 1.0
C      1  0.4610010000000  0.5462470000000  0.5257390000000 1.0
C      1  0.4586270000000  0.4675160000000  0.4020250000000 1.0
C      1  0.4983350000000  0.5527930000000  0.4168850000000 1.0
C      1  0.5032290000000  0.5394520000000  0.5867750000000 1.0
C      1  0.5548570000000  0.4200640000000  0.5428380000000 1.0
C      1  0.4731160000000  0.4289590000000  0.6052270000000 1.0
C      1  0.4523830000000  0.5519550000000  0.4712460000000 1.0
C      1  0.3966530000000  0.4784360000000  0.4477700000000 1.0
C      1  0.5235090000000  0.5330470000000  0.4877110000000 1.0
C      1  0.5717590000000  0.5244350000000  0.5134190000000 1.0
C      1  0.6049590000000  0.5039250000000  0.5563660000000 1.0
C      1  0.4687230000000  0.4067280000000  0.5860940000000 1.0
C      1  0.4908790000000  0.4234840000000  0.4621850000000 1.0
C      1  0.4456320000000  0.6141570000000  0.4867080000000 1.0
C      1  0.5381380000000  0.4823850000000  0.3991150000000 1.0
C      1  0.4876380000000  0.4470740000000  0.4404720000000 1.0
C      1  0.5300480000000  0.4854910000000  0.5136870000000 1.0
C      1  0.6186190000000  0.5077740000000  0.5095450000000 1.0
C      1  0.4847510000000  0.4464850000000  0.5656380000000 1.0
C      1  0.5431910000000  0.4871950000000  0.5395300000000 1.0
C      1  0.5886700000000  0.4642280000000  0.4796070000000 1.0
C      1  0.4555950000000  0.4394880000000  0.4115200000000 1.0
C      1  0.4214010000000  0.4875000000000  0.4316850000000 1.0
C      1  0.5439860000000  0.4684510000000  0.4947510000000 1.0
C      1  0.3891150000000  0.4604550000000  0.4917250000000 1.0
C      1  0.4746180000000  0.6110980000000  0.4833340000000 1.0
C      1  0.4636840000000  0.5036580000000  0.5916740000000 1.0
C      1  0.5762170000000  0.5750000000000  0.5030300000000 1.0
C      1  0.5159970000000  0.4080920000000  0.4554010000000 1.0
C      1  0.4237970000000  0.4288870000000  0.4757170000000 1.0
C      1  0.5194660000000  0.4025110000000  0.4264080000000 1.0
C      1  0.4996690000000  0.4610760000000  0.4839520000000 1.0
C      1  0.5347620000000  0.6041980000000  0.5338480000000 1.0
C      1  0.4328800000000  0.6055860000000  0.4625190000000 1.0
C      1  0.5329940000000  0.3939200000000  0.4939890000000 1.0
C      1  0.4668090000000  0.5492620000000  0.4217580000000 1.0
C      1  0.4465740000000  0.5615910000000  0.4420230000000 1.0
C      1  0.5431810000000  0.4742560000000  0.5985200000000 1.0
C      1  0.5123800000000  0.5085810000000  0.5057510000000 1.0
C      1  0.5694900000000  0.4811950000000  0.4937610000000 1.0
C      1  0.4897220000000  0.4892740000000  0.5472580000000 1.0
C      1  0.3987960000000  0.4467960000000  0.5158280000000 1.0
C      1  0.5507250000000  0.5240760000000  0.5866970000000 1.0
C      1  0.5467290000000  0.4194900000000  0.4850970000000 1.0
C      1  0.5263080000000  0.4657760000000  0.4700620000000 1.0
C      1  0.4344830000000  0.4508160000000  0.5530110000000 1.0
C      1  0.5154510000000  0.5517680000000  0.5360720000000 1.0
C      1  0.5406850000000  0.4462770000000  0.5858290000000 1.0
C      1  0.4254590000000  0.5221360000000  0.5782480000000 1.0
C      1  0.4832460000000  0.4796190000000  0.3898940000000 1.0
C      1  0.5109320000000  0.4482550000000  0.4196180000000 1.0
C      1  0.5866440000000  0.5120020000000  0.4392260000000 1.0
C      1  0.4394810000000  0.4664810000000  0.4435050000000 1.0
C      1  0.5545880000000  0.5666080000000  0.5216930000000 1.0
C      1  0.4736420000000  0.3936120000000  0.5112520000000 1.0
C      1  0.5750960000000  0.4196610000000  0.4750020000000 1.0
C      1  0.4830830000000  0.3853820000000  0.4837020000000 1.0
C      1  0.4485560000000  0.4877130000000  0.5335540000000 1.0
C      1  0.3871010000000  0.4890850000000  0.4919960000000 1.0
C      1  0.5526020000000  0.5399780000000  0.5329900000000 1.0
C      1  0.4692550000000  0.4021230000000  0.4619600000000 1.0
C      1  0.4384520000000  0.4574080000000  0.5809590000000 1.0
C      1  0.4334550000000  0.4842350000000  0.4030120000000 1.0
C      1  0.4049100000000  0.4914860000000  0.5385470000000 1.0
C      1  0.4354220000000  0.4381880000000  0.4323860000000 1.0
C      1  0.5545080000000  0.4652950000000  0.4159900000000 1.0
C      1  0.4962960000000  0.5250770000000  0.3741710000000 1.0
C      1  0.5025490000000  0.5927590000000  0.4460300000000 1.0
C      1  0.4767720000000  0.4734880000000  0.5255280000000 1.0
C      1  0.5835490000000  0.5591350000000  0.5687980000000 1.0
C      1  0.4762540000000  0.4198810000000  0.4146740000000 1.0
C      1  0.5379910000000  0.4477990000000  0.4315110000000 1.0
C      1  0.5838100000000  0.4532340000000  0.5658140000000 1.0
C      1  0.5760340000000  0.4623150000000  0.4483080000000 1.0
C      1  0.3947490000000  0.5310540000000  0.4616380000000 1.0
C      1  0.4948260000000  0.6038620000000  0.5584460000000 1.0
C      1  0.4012180000000  0.4187610000000  0.5150140000000 1.0
C      1  0.5629620000000  0.5602070000000  0.4309240000000 1.0
C      1  0.5758720000000  0.4307440000000  0.4472710000000 1.0
C      1  0.4663570000000  0.5053080000000  0.5599780000000 1.0
C      1  0.5192680000000  0.4268210000000  0.5953080000000 1.0
C      1  0.4456990000000  0.4018400000000  0.5105100000000 1.0
C      1  0.5349680000000  0.5952320000000  0.4835490000000 1.0
C      1  0.6125150000000  0.4793150000000  0.4675630000000 1.0
C      1  0.4769430000000  0.6002610000000  0.4562740000000 1.0
C      1  0.4254790000000  0.5228120000000  0.5003840000000 1.0
C      1  0.5370980000000  0.5776500000000  0.5757270000000 1.0
C      1  0.5169450000000  0.3976280000000  0.5191670000000 1.0
C      1  0.5620190000000  0.5910610000000  0.5361740000000 1.0
C      1  0.3896310000000  0.5326410000000  0.5116860000000 1.0
C      1  0.3979690000000  0.4522720000000  0.4649640000000 1.0
C      1  0.5674740000000  0.5829150000000  0.4511600000000 1.0
C      1  0.4960920000000  0.5175580000000  0.4545430000000 1.0
C      1  0.5906810000000  0.4700100000000  0.5877220000000 1.0
C      1  0.5910830000000  0.5496780000000  0.4340580000000 1.0
C      1  0.5358400000000  0.5317560000000  0.3932990000000 1.0
C      1  0.4801060000000  0.6161960000000  0.5325320000000 1.0
C      1  0.6012430000000  0.5487880000000  0.4621780000000 1.0
C      1  0.4377640000000  0.5260400000000  0.4708030000000 1.0
C      1  0.5095870000000  0.4720240000000  0.4010300000000 1.0
C      1  0.4319640000000  0.5495550000000  0.5171100000000 1.0
C      1  0.5648430000000  0.5807810000000  0.5650940000000 1.0
C      1  0.4635760000000  0.4363280000000  0.5088390000000 1.0
C      1  0.4620010000000  0.4914040000000  0.4836540000000 1.0
C      1  0.5623330000000  0.4340340000000  0.5688780000000 1.0
C      1  0.4563850000000  0.5208950000000  0.4226250000000 1.0
C      1  0.4750240000000  0.4793240000000  0.6036810000000 1.0
C      1  0.4439840000000  0.4460210000000  0.4882960000000 1.0
C      1  0.4301330000000  0.5715630000000  0.4960870000000 1.0
C      1  0.5474560000000  0.5429770000000  0.4736220000000 1.0
C      1  0.5169960000000  0.4853600000000  0.5907410000000 1.0
C      1  0.5729510000000  0.4946670000000  0.5205120000000 1.0
C      1  0.5482440000000  0.5097090000000  0.4049470000000 1.0
C      1  0.5966620000000  0.5518470000000  0.4998420000000 1.0
C      1  0.5259870000000  0.6056830000000  0.4575910000000 1.0
C      1  0.5368450000000  0.5847130000000  0.4160220000000 1.0
C      1  0.5017300000000  0.4200640000000  0.5726320000000 1.0
C      1  0.5338230000000  0.4385370000000  0.5298680000000 1.0
C      1  0.5130830000000  0.3851430000000  0.4741950000000 1.0
C      1  0.5665650000000  0.5365150000000  0.5611720000000 1.0
C      1  0.4755180000000  0.5308480000000  0.5993970000000 1.0
C      1  0.5225650000000  0.5139050000000  0.5796130000000 1.0
C      1  0.5125960000000  0.5374820000000  0.4385400000000 1.0
C      1  0.4527100000000  0.5120460000000  0.3704510000000 1.0
C      1  0.6127970000000  0.5350740000000  0.5204670000000 1.0
C      1  0.4671770000000  0.5370330000000  0.5547300000000 1.0
C      1  0.5556930000000  0.5120400000000  0.4340910000000 1.0
C      1  0.4125240000000  0.4630320000000  0.5362240000000 1.0
C      1  0.4523170000000  0.5870040000000  0.5580520000000 1.0
C      1  0.5670330000000  0.5241130000000  0.4839000000000 1.0
C      1  0.5503570000000  0.4417740000000  0.5055690000000 1.0
C      1  0.5514360000000  0.4225080000000  0.4337530000000 1.0
C      1  0.4135110000000  0.5429720000000  0.4389200000000 1.0
C      1  0.5637350000000  0.4965920000000  0.5962200000000 1.0
C      1  0.4943990000000  0.6161400000000  0.5060550000000 1.0
C      1  0.5035730000000  0.5536990000000  0.4870760000000 1.0
C      1  0.4919010000000  0.4348510000000  0.4955800000000 1.0
C      1  0.4720430000000  0.5258460000000  0.5089200000000 1.0
C      1  0.5101920000000  0.5417530000000  0.3909030000000 1.0
C      1  0.3898090000000  0.5040870000000  0.5162360000000 1.0
C      1  0.4876730000000  0.4831800000000  0.4985990000000 1.0
C      1  0.4205190000000  0.4089090000000  0.4976470000000 1.0
C      1  0.5960040000000  0.4563650000000  0.5397810000000 1.0
C      1  0.3910150000000  0.5467270000000  0.4863170000000 1.0
C      1  0.4669150000000  0.4538740000000  0.5901010000000 1.0
C      1  0.5085180000000  0.5217220000000  0.5330730000000 1.0
C      1  0.5080390000000  0.3934210000000  0.5568360000000 1.0
C      1  0.4416830000000  0.5113640000000  0.3963110000000 1.0
C      1  0.4232360000000  0.4772690000000  0.5932150000000 1.0
C      1  0.4790310000000  0.5038150000000  0.3737660000000 1.0
C      1  0.4370820000000  0.5980080000000  0.5093660000000 1.0
C      1  0.4341050000000  0.5026640000000  0.5978010000000 1.0
C      1  0.5921530000000  0.4367870000000  0.4925750000000 1.0
C      1  0.5035250000000  0.5687860000000  0.5127800000000 1.0
C      1  0.3901270000000  0.5010840000000  0.4657780000000 1.0
C      1  0.5478640000000  0.6008780000000  0.4378810000000 1.0
C      1  0.4600030000000  0.4364640000000  0.5433890000000 1.0
C      1  0.5845970000000  0.4351140000000  0.5220420000000 1.0
C      1  0.4596180000000  0.5942100000000  0.5294620000000 1.0
C      1  0.6034830000000  0.5323200000000  0.5492340000000 1.0
C      1  0.5289570000000  0.5556650000000  0.5936770000000 1.0
C      1  0.5203980000000  0.5912780000000  0.5551840000000 1.0
C      1  0.5983770000000  0.4831560000000  0.4405900000000 1.0
C      1  0.4466890000000  0.5436680000000  0.5779580000000 1.0
C      1  0.4317350000000  0.5179480000000  0.4410730000000 1.0
C      1  0.5998640000000  0.4959300000000  0.5830080000000 1.0
C      1  0.4769910000000  0.5029460000000  0.4361040000000 1.0
C      1  0.4508390000000  0.5919010000000  0.4452410000000 1.0
C      1  0.5092180000000  0.4259340000000  0.5190540000000 1.0
C      1  0.5045030000000  0.4208690000000  0.4089050000000 1.0
C      1  0.5082830000000  0.5812300000000  0.4200460000000 1.0
C      1  0.4365390000000  0.4164920000000  0.4519470000000 1.0
C      1  0.4745970000000  0.5708980000000  0.5193070000000 1.0
C      1  0.4802730000000  0.3898010000000  0.5406450000000 1.0
C      1  0.5421490000000  0.4908360000000  0.4494550000000 1.0
C      1  0.4438100000000  0.4706940000000  0.4737530000000 1.0
C      1  0.4333600000000  0.5654280000000  0.5627880000000 1.0
C      1  0.5369130000000  0.3948520000000  0.5429350000000 1.0
C      1  0.6000410000000  0.4863620000000  0.5324310000000 1.0
C      1  0.4501810000000  0.5055840000000  0.5080400000000 1.0
C      1  0.4997770000000  0.4304800000000  0.6155730000000 1.0
C      1  0.4797490000000  0.5363140000000  0.4807330000000 1.0
C      1  0.4793220000000  0.5819420000000  0.5700270000000 1.0
END
