TITL C-951336-9012-300 1.06125052623129e-06 125000 -254.874317879075 0 0 42 (C1) n - 1
REM
REM in /home/bkarasulu/work/CARBON/AIRSS/Generating-Clusters/EDIP-Nigel-Params/with-SteepDescent/Only-C1/SD-CG/HFTN-CG
REM
REM
REM
REM
REM
REM ./C.cell (11c1c37f851c82e70ff6c80c92926a4b)
REM
REM compiler GCC version 9.2.1 20190827 (Red Hat 9.2.1-1)
REM options -cpp -mtune=generic -march=x86-64 -g -O0 -fpre-include=/usr/include/finclude/math-vector-fortran.h
REM seed 917223501 -1545951438 305601546 -1758101457 1758684309 -1236607467 1916783906 1759611613 -1230250672 -1417774511 528805738 452540563 665444826 1350443384 -921341633 1712561096 440878626 603010508 -1558841167 1686658553 1568593194 -1771860078 1963735194 -745927114 1025585219 -269415505 -951268931 316729429 -1036126372 678633247 515513050 940196686 1315471582
REM
CELL 1.54180   50.00000   50.00000   50.00000   90.00000   90.00000   90.00000
LATT -1
SFAC C  
C      1  0.5064510000000  0.5648310000000  0.5169840000000 1.0
C      1  0.5376400000000  0.5165320000000  0.5443160000000 1.0
C      1  0.4453060000000  0.4931130000000  0.4794920000000 1.0
C      1  0.4435630000000  0.5048810000000  0.5048920000000 1.0
C      1  0.4901060000000  0.5480740000000  0.4554860000000 1.0
C      1  0.5080350000000  0.5217120000000  0.5431100000000 1.0
C      1  0.4579680000000  0.5465060000000  0.5100900000000 1.0
C      1  0.5057920000000  0.4610390000000  0.4624000000000 1.0
C      1  0.5477990000000  0.5338820000000  0.5243170000000 1.0
C      1  0.5203940000000  0.5102380000000  0.4634490000000 1.0
C      1  0.4367080000000  0.4659790000000  0.4790980000000 1.0
C      1  0.5316390000000  0.4369440000000  0.4984650000000 1.0
C      1  0.4700980000000  0.5637260000000  0.4914150000000 1.0
C      1  0.5633650000000  0.4987350000000  0.4842450000000 1.0
C      1  0.4944900000000  0.4657870000000  0.5385250000000 1.0
C      1  0.5112340000000  0.5626630000000  0.4674540000000 1.0
C      1  0.4663060000000  0.5605110000000  0.4638070000000 1.0
C      1  0.5460270000000  0.5215020000000  0.4760570000000 1.0
C      1  0.4969200000000  0.5498680000000  0.5397010000000 1.0
C      1  0.4922350000000  0.5206120000000  0.4678770000000 1.0
C      1  0.4673180000000  0.5448590000000  0.5374460000000 1.0
C      1  0.4810820000000  0.4411710000000  0.5356910000000 1.0
C      1  0.5217630000000  0.5607860000000  0.4936410000000 1.0
C      1  0.4703160000000  0.4979850000000  0.4635610000000 1.0
C      1  0.4779890000000  0.4698260000000  0.4567570000000 1.0
C      1  0.5058020000000  0.4417270000000  0.4844400000000 1.0
C      1  0.5244190000000  0.4632410000000  0.5396150000000 1.0
C      1  0.5418550000000  0.4878140000000  0.5321450000000 1.0
C      1  0.5311920000000  0.4995550000000  0.5049200000000 1.0
C      1  0.4778110000000  0.4367300000000  0.4915970000000 1.0
C      1  0.5024240000000  0.5097390000000  0.5161190000000 1.0
C      1  0.4896550000000  0.5310360000000  0.4969880000000 1.0
C      1  0.5424610000000  0.5414670000000  0.4977600000000 1.0
C      1  0.4700650000000  0.4257290000000  0.5162720000000 1.0
C      1  0.4572820000000  0.4980240000000  0.5285460000000 1.0
C      1  0.5535050000000  0.4493400000000  0.4858660000000 1.0
C      1  0.4599580000000  0.5193800000000  0.5471910000000 1.0
C      1  0.5254640000000  0.4819170000000  0.4651170000000 1.0
C      1  0.5318310000000  0.4388460000000  0.5266270000000 1.0
C      1  0.4604110000000  0.4519160000000  0.4726690000000 1.0
C      1  0.5514940000000  0.4747410000000  0.4743800000000 1.0
C      1  0.4838270000000  0.4870330000000  0.5214750000000 1.0
END
