TITL C-951341-1326-669 -8.9005505421979e-07 125000 -254.164347392707 0 0 43 (C1) n - 1
REM
REM in /home/bkarasulu/work/CARBON/AIRSS/Generating-Clusters/EDIP-Nigel-Params/with-SteepDescent/Only-C1/SD-CG/HFTN-CG
REM
REM
REM
REM
REM
REM ./C.cell (11c1c37f851c82e70ff6c80c92926a4b)
REM
REM compiler GCC version 9.2.1 20190827 (Red Hat 9.2.1-1)
REM options -cpp -mtune=generic -march=x86-64 -g -O0 -fpre-include=/usr/include/finclude/math-vector-fortran.h
REM seed 1400852919 1855105180 840562806 1479286315 -293486869 601244490 -851743123 1585930252 2141638832 1880359491 1470730467 -1993630732 227891794 408569616 -83953418 1465536530 -1723558375 1376202172 147750002 776892225 -1690482672 -1861384676 -1334039293 1957299585 -1579321567 -198883042 1642861656 -359826003 776856558 -650150648 408426337 -1302465426 1253887022
REM
CELL 1.54180   50.00000   50.00000   50.00000   90.00000   90.00000   90.00000
LATT -1
SFAC C  
C      1  0.5075240000000  0.4707050000000  0.4353800000000 1.0
C      1  0.5346980000000  0.4578510000000  0.5076550000000 1.0
C      1  0.5157790000000  0.5394860000000  0.5552810000000 1.0
C      1  0.5120130000000  0.5557850000000  0.5057980000000 1.0
C      1  0.5302760000000  0.5603930000000  0.5274380000000 1.0
C      1  0.4852180000000  0.5308340000000  0.4384340000000 1.0
C      1  0.4994680000000  0.4906440000000  0.5046550000000 1.0
C      1  0.5501000000000  0.5399100000000  0.5356110000000 1.0
C      1  0.5306580000000  0.5142540000000  0.5567610000000 1.0
C      1  0.5107310000000  0.4924650000000  0.4549920000000 1.0
C      1  0.4903420000000  0.4503110000000  0.4462040000000 1.0
C      1  0.5550940000000  0.4983350000000  0.4703210000000 1.0
C      1  0.4598880000000  0.4956040000000  0.4605300000000 1.0
C      1  0.5357190000000  0.5088470000000  0.4520130000000 1.0
C      1  0.4880460000000  0.5529440000000  0.4553380000000 1.0
C      1  0.4574300000000  0.4498490000000  0.4834300000000 1.0
C      1  0.5248620000000  0.4311400000000  0.5083480000000 1.0
C      1  0.4783170000000  0.4440150000000  0.5033390000000 1.0
C      1  0.5024170000000  0.5288490000000  0.5025250000000 1.0
C      1  0.5027420000000  0.4321600000000  0.4908530000000 1.0
C      1  0.5115610000000  0.4503650000000  0.4686520000000 1.0
C      1  0.4546210000000  0.5271650000000  0.5122750000000 1.0
C      1  0.4619950000000  0.4827310000000  0.5328840000000 1.0
C      1  0.5204340000000  0.4767170000000  0.4864020000000 1.0
C      1  0.5326450000000  0.4996180000000  0.5320490000000 1.0
C      1  0.4871050000000  0.5327830000000  0.5489650000000 1.0
C      1  0.4515500000000  0.5427380000000  0.4892970000000 1.0
C      1  0.4718340000000  0.5190910000000  0.5681130000000 1.0
C      1  0.4946470000000  0.4762020000000  0.5671730000000 1.0
C      1  0.4724730000000  0.4922150000000  0.5595490000000 1.0
C      1  0.5139800000000  0.5544610000000  0.4687320000000 1.0
C      1  0.5532830000000  0.5153330000000  0.5179700000000 1.0
C      1  0.4656770000000  0.5571550000000  0.4715600000000 1.0
C      1  0.4474650000000  0.4858900000000  0.4853460000000 1.0
C      1  0.4853720000000  0.5087130000000  0.4557170000000 1.0
C      1  0.5557630000000  0.5193580000000  0.4894080000000 1.0
C      1  0.4457770000000  0.4987290000000  0.5121540000000 1.0
C      1  0.4854830000000  0.4684220000000  0.5208970000000 1.0
C      1  0.4823620000000  0.5204170000000  0.5220800000000 1.0
C      1  0.5307870000000  0.4705010000000  0.5339370000000 1.0
C      1  0.4645070000000  0.4581130000000  0.4563080000000 1.0
C      1  0.5038410000000  0.4621110000000  0.5442590000000 1.0
C      1  0.5355170000000  0.5367910000000  0.4613670000000 1.0
END
