TITL C-950535-5962-379 8.48272449344898e-07 125000 -466.521005790776 0 0 76 (C1) n - 1
REM
REM in /home/bkarasulu/work/CARBON/AIRSS/Generating-Clusters/EDIP-Nigel-Params/with-SteepDescent/Only-C1/SD-CG/HFTN-CG
REM
REM
REM
REM
REM
REM ./C.cell (11c1c37f851c82e70ff6c80c92926a4b)
REM
REM compiler GCC version 9.2.1 20190827 (Red Hat 9.2.1-1)
REM options -cpp -mtune=generic -march=x86-64 -g -O0 -fpre-include=/usr/include/finclude/math-vector-fortran.h
REM seed 1516662744 -972102851 -1991123556 1961994358 943128724 -101897321 -1808857885 -1020078535 1356388080 -1155618011 484054355 933569735 -137634014 -397244978 -1975864943 1119691327 661952811 -967269306 -60414122 -193791351 -1497903550 -1204740924 -860244546 -2029449182 99993932 1361628309 -1347146252 672197023 1747646195 1770698944 -1740469395 1268090453 912273139
REM
CELL 1.54180   50.00000   50.00000   50.00000   90.00000   90.00000   90.00000
LATT -1
SFAC C  
C      1  0.4623000000000  0.4768760000000  0.4353340000000 1.0
C      1  0.5007510000000  0.4783250000000  0.5021660000000 1.0
C      1  0.5723100000000  0.5363550000000  0.5182140000000 1.0
C      1  0.5635730000000  0.4796560000000  0.4523200000000 1.0
C      1  0.5283360000000  0.4731100000000  0.4196740000000 1.0
C      1  0.5176250000000  0.5127330000000  0.5799600000000 1.0
C      1  0.4311870000000  0.4785660000000  0.4756850000000 1.0
C      1  0.5046540000000  0.5617940000000  0.4773570000000 1.0
C      1  0.4734910000000  0.5189820000000  0.5800510000000 1.0
C      1  0.5507020000000  0.4440380000000  0.4841660000000 1.0
C      1  0.4428880000000  0.4675930000000  0.5507810000000 1.0
C      1  0.5025150000000  0.5146570000000  0.4215100000000 1.0
C      1  0.5229540000000  0.4787060000000  0.4829590000000 1.0
C      1  0.5037150000000  0.4854850000000  0.4215660000000 1.0
C      1  0.5066410000000  0.5826060000000  0.5329560000000 1.0
C      1  0.5738750000000  0.5638910000000  0.5120850000000 1.0
C      1  0.5339420000000  0.4917040000000  0.5684070000000 1.0
C      1  0.5522090000000  0.4994610000000  0.5470550000000 1.0
C      1  0.4818090000000  0.4357660000000  0.4522900000000 1.0
C      1  0.4849530000000  0.4414940000000  0.5194860000000 1.0
C      1  0.5240430000000  0.5044800000000  0.4701740000000 1.0
C      1  0.5498520000000  0.5504640000000  0.4641770000000 1.0
C      1  0.5483380000000  0.4320650000000  0.5319920000000 1.0
C      1  0.5291060000000  0.4536310000000  0.4656120000000 1.0
C      1  0.5471260000000  0.5720640000000  0.5089040000000 1.0
C      1  0.4274940000000  0.4782570000000  0.5059630000000 1.0
C      1  0.4959950000000  0.5083760000000  0.5376410000000 1.0
C      1  0.4893560000000  0.4787280000000  0.4472930000000 1.0
C      1  0.5641690000000  0.4532530000000  0.5379140000000 1.0
C      1  0.4371600000000  0.4500090000000  0.4668560000000 1.0
C      1  0.5701790000000  0.4680660000000  0.4804950000000 1.0
C      1  0.4568930000000  0.4489430000000  0.4440610000000 1.0
C      1  0.4791840000000  0.5313140000000  0.4257780000000 1.0
C      1  0.5345060000000  0.4389840000000  0.5085220000000 1.0
C      1  0.4792540000000  0.4656380000000  0.4828350000000 1.0
C      1  0.5494330000000  0.5079520000000  0.4534430000000 1.0
C      1  0.4945690000000  0.5077070000000  0.5954510000000 1.0
C      1  0.4717130000000  0.4713020000000  0.5588490000000 1.0
C      1  0.5437090000000  0.4611430000000  0.4394770000000 1.0
C      1  0.5314090000000  0.5395690000000  0.4437200000000 1.0
C      1  0.4933740000000  0.4595240000000  0.5415920000000 1.0
C      1  0.4689660000000  0.5134320000000  0.4923390000000 1.0
C      1  0.5337690000000  0.5453760000000  0.5471830000000 1.0
C      1  0.5327450000000  0.5599380000000  0.4862350000000 1.0
C      1  0.4931270000000  0.5075430000000  0.5074010000000 1.0
C      1  0.4965720000000  0.5082090000000  0.4585290000000 1.0
C      1  0.5685700000000  0.5266150000000  0.4690710000000 1.0
C      1  0.4624520000000  0.4255360000000  0.5279540000000 1.0
C      1  0.4696010000000  0.5350510000000  0.4715280000000 1.0
C      1  0.5665910000000  0.4801320000000  0.5309140000000 1.0
C      1  0.4549320000000  0.4384560000000  0.4868840000000 1.0
C      1  0.4578560000000  0.5258590000000  0.4451020000000 1.0
C      1  0.4811440000000  0.5711940000000  0.4938080000000 1.0
C      1  0.4333430000000  0.4954800000000  0.5492470000000 1.0
C      1  0.5065290000000  0.4311780000000  0.5006260000000 1.0
C      1  0.4352300000000  0.5297960000000  0.5157400000000 1.0
C      1  0.4418170000000  0.5469320000000  0.5379990000000 1.0
C      1  0.5728350000000  0.5167550000000  0.4967300000000 1.0
C      1  0.5126900000000  0.4823090000000  0.5382040000000 1.0
C      1  0.5054990000000  0.4336390000000  0.4690350000000 1.0
C      1  0.4340270000000  0.5551170000000  0.5009100000000 1.0
C      1  0.5100010000000  0.5307340000000  0.5576840000000 1.0
C      1  0.4822130000000  0.5733890000000  0.5237690000000 1.0
C      1  0.5035820000000  0.5480300000000  0.4503130000000 1.0
C      1  0.5551460000000  0.5276370000000  0.5401330000000 1.0
C      1  0.4387010000000  0.4562420000000  0.5235440000000 1.0
C      1  0.5320710000000  0.5716300000000  0.5343200000000 1.0
C      1  0.5703660000000  0.4880830000000  0.5028960000000 1.0
C      1  0.4698230000000  0.5022290000000  0.5548140000000 1.0
C      1  0.4835240000000  0.5447570000000  0.5659320000000 1.0
C      1  0.4254700000000  0.5026890000000  0.5224890000000 1.0
C      1  0.4695870000000  0.5529320000000  0.5411120000000 1.0
C      1  0.4605160000000  0.4890470000000  0.4782870000000 1.0
C      1  0.4436770000000  0.4217030000000  0.5075340000000 1.0
C      1  0.4442410000000  0.4983930000000  0.4448620000000 1.0
C      1  0.4554980000000  0.5606910000000  0.4821000000000 1.0
END
