TITL C-951344-124-12 -6.82334068118209e-06 125000 -1198.71311341389 0 0 191 (C1) n - 1
REM
REM in /home/bkarasulu/work/CARBON/AIRSS/Generating-Clusters/EDIP-Nigel-Params/with-SteepDescent/Only-C1/SD-CG/HFTN-CG
REM
REM
REM
REM
REM
REM ./C.cell (11c1c37f851c82e70ff6c80c92926a4b)
REM
REM compiler GCC version 9.2.1 20190827 (Red Hat 9.2.1-1)
REM options -cpp -mtune=generic -march=x86-64 -g -O0 -fpre-include=/usr/include/finclude/math-vector-fortran.h
REM seed -1995755831 -283675238 861754462 164821055 -1869172371 1413813851 -302614794 -562567308 -1590976337 -523222795 1205317693 1763557219 -858536529 -1438221856 -1579399820 -2007951350 2069154031 -936089122 260395650 -1000232822 -350770481 1737181805 1027249188 -508681473 -1035174400 -1165991000 -1503049700 909876218 -1047340869 -1043062923 2119330975 -876049628 1101370295
REM
CELL 1.54180   50.00000   50.00000   50.00000   90.00000   90.00000   90.00000
LATT -1
SFAC C  
C      1  0.4335620000000  0.5186650000000  0.5817880000000 1.0
C      1  0.6017650000000  0.5189790000000  0.4802200000000 1.0
C      1  0.4933420000000  0.5543080000000  0.6097070000000 1.0
C      1  0.4411680000000  0.4902060000000  0.5786450000000 1.0
C      1  0.3917350000000  0.4685850000000  0.4899990000000 1.0
C      1  0.5363540000000  0.6122240000000  0.4978520000000 1.0
C      1  0.5379800000000  0.4977440000000  0.6168690000000 1.0
C      1  0.5542650000000  0.5218630000000  0.4628850000000 1.0
C      1  0.5273570000000  0.5166770000000  0.5966580000000 1.0
C      1  0.4289270000000  0.4601580000000  0.4225940000000 1.0
C      1  0.5640810000000  0.4023650000000  0.5396630000000 1.0
C      1  0.5683790000000  0.5428640000000  0.5997700000000 1.0
C      1  0.6053030000000  0.4760660000000  0.4916480000000 1.0
C      1  0.4679660000000  0.5806650000000  0.4254270000000 1.0
C      1  0.4424160000000  0.4146920000000  0.4777610000000 1.0
C      1  0.4792300000000  0.3971690000000  0.5399640000000 1.0
C      1  0.6038080000000  0.5128480000000  0.4492980000000 1.0
C      1  0.4130600000000  0.5802070000000  0.4908290000000 1.0
C      1  0.5828130000000  0.5481200000000  0.5348980000000 1.0
C      1  0.4408120000000  0.4632040000000  0.4894510000000 1.0
C      1  0.5550220000000  0.4656750000000  0.4575690000000 1.0
C      1  0.4848420000000  0.5295050000000  0.5128480000000 1.0
C      1  0.4075480000000  0.4386020000000  0.4586850000000 1.0
C      1  0.4693960000000  0.4876730000000  0.5709750000000 1.0
C      1  0.4222210000000  0.5404360000000  0.4641600000000 1.0
C      1  0.4145080000000  0.5603170000000  0.5609260000000 1.0
C      1  0.4731150000000  0.4419490000000  0.4082060000000 1.0
C      1  0.4911760000000  0.4763390000000  0.4460180000000 1.0
C      1  0.4854980000000  0.4681570000000  0.5910610000000 1.0
C      1  0.5256900000000  0.5020660000000  0.5718780000000 1.0
C      1  0.5474150000000  0.4866180000000  0.4374980000000 1.0
C      1  0.5846530000000  0.4199350000000  0.5489560000000 1.0
C      1  0.5309690000000  0.4916930000000  0.3841110000000 1.0
C      1  0.5017580000000  0.4470310000000  0.3983920000000 1.0
C      1  0.4186190000000  0.4812470000000  0.4399930000000 1.0
C      1  0.5229600000000  0.4362630000000  0.4654010000000 1.0
C      1  0.5744330000000  0.4452420000000  0.4466860000000 1.0
C      1  0.5070690000000  0.5135330000000  0.5530210000000 1.0
C      1  0.4596350000000  0.6069390000000  0.5060460000000 1.0
C      1  0.5262390000000  0.5693210000000  0.4242890000000 1.0
C      1  0.3979910000000  0.4871220000000  0.5558920000000 1.0
C      1  0.6226400000000  0.5093110000000  0.4995480000000 1.0
C      1  0.4897190000000  0.6040520000000  0.4660200000000 1.0
C      1  0.3983250000000  0.5314720000000  0.4781650000000 1.0
C      1  0.4508490000000  0.4223110000000  0.4464180000000 1.0
C      1  0.4952810000000  0.4000430000000  0.4572520000000 1.0
C      1  0.4834540000000  0.4951320000000  0.3944190000000 1.0
C      1  0.5010030000000  0.4942280000000  0.5338300000000 1.0
C      1  0.4609310000000  0.5762120000000  0.5829460000000 1.0
C      1  0.4806650000000  0.4119350000000  0.5671960000000 1.0
C      1  0.5147460000000  0.6100450000000  0.4520390000000 1.0
C      1  0.5916550000000  0.4879530000000  0.4374910000000 1.0
C      1  0.5167660000000  0.5954200000000  0.4280970000000 1.0
C      1  0.6002220000000  0.5595190000000  0.4575720000000 1.0
C      1  0.5364710000000  0.4028220000000  0.5025290000000 1.0
C      1  0.5136160000000  0.4248520000000  0.4157410000000 1.0
C      1  0.5759160000000  0.5474750000000  0.5038450000000 1.0
C      1  0.4686230000000  0.4463150000000  0.5418940000000 1.0
C      1  0.4801330000000  0.4479770000000  0.4460080000000 1.0
C      1  0.3826360000000  0.4696460000000  0.5373310000000 1.0
C      1  0.5262840000000  0.5158130000000  0.4584950000000 1.0
C      1  0.5347140000000  0.4590570000000  0.4794360000000 1.0
C      1  0.4551310000000  0.5719470000000  0.4709610000000 1.0
C      1  0.4180050000000  0.4965580000000  0.5123350000000 1.0
C      1  0.5016170000000  0.5746750000000  0.5014280000000 1.0
C      1  0.4857310000000  0.6162800000000  0.4931480000000 1.0
C      1  0.5639050000000  0.4385270000000  0.4197480000000 1.0
C      1  0.5596260000000  0.4938160000000  0.5024530000000 1.0
C      1  0.4470970000000  0.5342170000000  0.5355830000000 1.0
C      1  0.5132740000000  0.5265760000000  0.5041080000000 1.0
C      1  0.4043190000000  0.5643200000000  0.5116710000000 1.0
C      1  0.4844570000000  0.4373350000000  0.4946360000000 1.0
C      1  0.5205360000000  0.5207540000000  0.4284300000000 1.0
C      1  0.5099410000000  0.4538160000000  0.5816630000000 1.0
C      1  0.4510580000000  0.4615120000000  0.4035410000000 1.0
C      1  0.5256990000000  0.3803390000000  0.4857020000000 1.0
C      1  0.5085390000000  0.5330520000000  0.4752910000000 1.0
C      1  0.4761250000000  0.4952790000000  0.4617470000000 1.0
C      1  0.5542490000000  0.5010120000000  0.4016370000000 1.0
C      1  0.5417160000000  0.4410950000000  0.5049140000000 1.0
C      1  0.4678350000000  0.5550130000000  0.5227230000000 1.0
C      1  0.5439550000000  0.5457050000000  0.5622980000000 1.0
C      1  0.5158910000000  0.4846460000000  0.6284720000000 1.0
C      1  0.3899460000000  0.5409240000000  0.5032230000000 1.0
C      1  0.5263660000000  0.4548170000000  0.5276800000000 1.0
C      1  0.4906430000000  0.5469320000000  0.5690520000000 1.0
C      1  0.5177740000000  0.5647080000000  0.5987210000000 1.0
C      1  0.4029450000000  0.4433070000000  0.5026700000000 1.0
C      1  0.6010030000000  0.5498610000000  0.4839160000000 1.0
C      1  0.4319380000000  0.5991860000000  0.5469450000000 1.0
C      1  0.4654200000000  0.5565400000000  0.6036010000000 1.0
C      1  0.4348920000000  0.5805290000000  0.5690380000000 1.0
C      1  0.4056010000000  0.5109420000000  0.5388310000000 1.0
C      1  0.5506260000000  0.5651880000000  0.4993150000000 1.0
C      1  0.4560400000000  0.3917800000000  0.4932440000000 1.0
C      1  0.5778540000000  0.5232570000000  0.5804150000000 1.0
C      1  0.5770570000000  0.4859130000000  0.4125650000000 1.0
C      1  0.5177360000000  0.5146880000000  0.3739420000000 1.0
C      1  0.4876780000000  0.4669080000000  0.4992710000000 1.0
C      1  0.4614540000000  0.4334090000000  0.5674670000000 1.0
C      1  0.3827310000000  0.5218480000000  0.5233320000000 1.0
C      1  0.5800850000000  0.4190970000000  0.4927040000000 1.0
C      1  0.4879590000000  0.5457880000000  0.3999170000000 1.0
C      1  0.5079580000000  0.4273400000000  0.5650530000000 1.0
C      1  0.4497410000000  0.5336280000000  0.5995930000000 1.0
C      1  0.5089350000000  0.6044900000000  0.5082330000000 1.0
C      1  0.4620660000000  0.5588290000000  0.4083600000000 1.0
C      1  0.5241210000000  0.3904680000000  0.4589190000000 1.0
C      1  0.5864980000000  0.4437090000000  0.5334510000000 1.0
C      1  0.5650950000000  0.3982660000000  0.5091360000000 1.0
C      1  0.4815640000000  0.5159370000000  0.5678490000000 1.0
C      1  0.4132640000000  0.4670720000000  0.4668530000000 1.0
C      1  0.5102270000000  0.5654590000000  0.4728850000000 1.0
C      1  0.4623180000000  0.5110700000000  0.5226440000000 1.0
C      1  0.4401510000000  0.5434560000000  0.4168030000000 1.0
C      1  0.5399130000000  0.5437320000000  0.5918680000000 1.0
C      1  0.5328670000000  0.4734120000000  0.5750670000000 1.0
C      1  0.5142340000000  0.4852950000000  0.4283630000000 1.0
C      1  0.5535700000000  0.4796400000000  0.5983470000000 1.0
C      1  0.6177190000000  0.4943970000000  0.5233260000000 1.0
C      1  0.4612420000000  0.4773670000000  0.5412140000000 1.0
C      1  0.3987270000000  0.4445660000000  0.5319910000000 1.0
C      1  0.5569990000000  0.5992750000000  0.5141500000000 1.0
C      1  0.4234200000000  0.4457180000000  0.5485740000000 1.0
C      1  0.4473990000000  0.5286530000000  0.4766800000000 1.0
C      1  0.5299340000000  0.4935590000000  0.4961670000000 1.0
C      1  0.4260400000000  0.5698150000000  0.4683130000000 1.0
C      1  0.4947410000000  0.4301680000000  0.4664570000000 1.0
C      1  0.5112810000000  0.4775310000000  0.5141740000000 1.0
C      1  0.5261990000000  0.5965050000000  0.5541110000000 1.0
C      1  0.5007860000000  0.4388170000000  0.5376710000000 1.0
C      1  0.5483390000000  0.5857380000000  0.5382780000000 1.0
C      1  0.5717040000000  0.4190240000000  0.4638520000000 1.0
C      1  0.4910710000000  0.5206760000000  0.3822820000000 1.0
C      1  0.6163610000000  0.4620480000000  0.4695740000000 1.0
C      1  0.5784810000000  0.4942110000000  0.5873470000000 1.0
C      1  0.5399080000000  0.5740390000000  0.4697850000000 1.0
C      1  0.5408670000000  0.4149090000000  0.4542900000000 1.0
C      1  0.5387870000000  0.6044320000000  0.4692640000000 1.0
C      1  0.4652940000000  0.5775310000000  0.4991650000000 1.0
C      1  0.5905680000000  0.5259380000000  0.5533140000000 1.0
C      1  0.4822110000000  0.5672820000000  0.5451760000000 1.0
C      1  0.4861350000000  0.5500930000000  0.4489800000000 1.0
C      1  0.4468520000000  0.5065290000000  0.4980320000000 1.0
C      1  0.4808080000000  0.5988570000000  0.5482140000000 1.0
C      1  0.4246910000000  0.5316130000000  0.5551570000000 1.0
C      1  0.4325770000000  0.4705190000000  0.5202670000000 1.0
C      1  0.4827620000000  0.5959510000000  0.5787710000000 1.0
C      1  0.5193010000000  0.5535460000000  0.5474720000000 1.0
C      1  0.5495530000000  0.5647010000000  0.4423220000000 1.0
C      1  0.5768300000000  0.4709800000000  0.4953970000000 1.0
C      1  0.4932580000000  0.4047840000000  0.4267390000000 1.0
C      1  0.5699700000000  0.5178650000000  0.4884280000000 1.0
C      1  0.5216640000000  0.3997790000000  0.5267730000000 1.0
C      1  0.4545680000000  0.3998140000000  0.5237880000000 1.0
C      1  0.4968710000000  0.4135820000000  0.5219820000000 1.0
C      1  0.4668530000000  0.4151530000000  0.4209930000000 1.0
C      1  0.5052280000000  0.5468650000000  0.4246600000000 1.0
C      1  0.5010320000000  0.3689090000000  0.4942400000000 1.0
C      1  0.4138630000000  0.5070190000000  0.4314350000000 1.0
C      1  0.4695960000000  0.5240910000000  0.4576530000000 1.0
C      1  0.5928640000000  0.5389350000000  0.4394990000000 1.0
C      1  0.5063310000000  0.6097230000000  0.5375200000000 1.0
C      1  0.5417400000000  0.4213460000000  0.4250310000000 1.0
C      1  0.4035260000000  0.5749170000000  0.5380930000000 1.0
C      1  0.4924420000000  0.4787710000000  0.6161700000000 1.0
C      1  0.4575780000000  0.4856030000000  0.3918130000000 1.0
C      1  0.4489590000000  0.4296610000000  0.5239330000000 1.0
C      1  0.5637160000000  0.5641770000000  0.5508540000000 1.0
C      1  0.4561590000000  0.6105010000000  0.5354680000000 1.0
C      1  0.5473100000000  0.5255690000000  0.4160960000000 1.0
C      1  0.4227020000000  0.4731700000000  0.5628280000000 1.0
C      1  0.3803920000000  0.4856360000000  0.5118900000000 1.0
C      1  0.5452670000000  0.4641830000000  0.5501510000000 1.0
C      1  0.4642660000000  0.4831440000000  0.4862930000000 1.0
C      1  0.5625800000000  0.5376760000000  0.4392610000000 1.0
C      1  0.4676930000000  0.5899810000000  0.4520530000000 1.0
C      1  0.5717770000000  0.4442730000000  0.5073790000000 1.0
C      1  0.5237380000000  0.5539830000000  0.5152860000000 1.0
C      1  0.4540340000000  0.4365370000000  0.4950370000000 1.0
C      1  0.5082490000000  0.4779000000000  0.3994870000000 1.0
C      1  0.4816820000000  0.3834030000000  0.4799570000000 1.0
C      1  0.5905290000000  0.4801180000000  0.5643340000000 1.0
C      1  0.5113990000000  0.5849060000000  0.5779960000000 1.0
C      1  0.6006490000000  0.4614090000000  0.4464370000000 1.0
C      1  0.5977330000000  0.4996460000000  0.5433390000000 1.0
C      1  0.5363960000000  0.4075830000000  0.5502470000000 1.0
C      1  0.4259640000000  0.4344350000000  0.4364510000000 1.0
C      1  0.4212460000000  0.5332700000000  0.4347750000000 1.0
C      1  0.5735400000000  0.4565140000000  0.5566390000000 1.0
C      1  0.4123390000000  0.4214140000000  0.4826590000000 1.0
END
