TITL C-951344-124-587 9.89966002948671e-07 125000 -279.877633625253 0 0 46 (C1) n - 1
REM
REM in /home/bkarasulu/work/CARBON/AIRSS/Generating-Clusters/EDIP-Nigel-Params/with-SteepDescent/Only-C1/SD-CG/HFTN-CG
REM
REM
REM
REM
REM
REM ./C.cell (11c1c37f851c82e70ff6c80c92926a4b)
REM
REM compiler GCC version 9.2.1 20190827 (Red Hat 9.2.1-1)
REM options -cpp -mtune=generic -march=x86-64 -g -O0 -fpre-include=/usr/include/finclude/math-vector-fortran.h
REM seed 443470014 2136778995 -1678467296 -1598664012 719365025 -1039193238 -749744000 -816209993 -1825142658 -43760079 -2029690831 -1199017729 624585882 877870884 -280321842 -1487769919 -1989993171 956241942 1679710975 1236114605 -305730208 2006731341 1907671386 -1162869343 1682109390 19806554 -1902060259 525591634 -1818190815 1734524644 -1869808350 -1569888246 170495664
REM
CELL 1.54180   50.00000   50.00000   50.00000   90.00000   90.00000   90.00000
LATT -1
SFAC C  
C      1  0.4675310000000  0.4762870000000  0.5413550000000 1.0
C      1  0.4996970000000  0.5354010000000  0.4763060000000 1.0
C      1  0.5100350000000  0.5219560000000  0.5696750000000 1.0
C      1  0.4623880000000  0.5045170000000  0.4556090000000 1.0
C      1  0.5524540000000  0.5152890000000  0.4874440000000 1.0
C      1  0.4519550000000  0.5223110000000  0.5224080000000 1.0
C      1  0.4967930000000  0.4325770000000  0.4880380000000 1.0
C      1  0.4803020000000  0.4508580000000  0.5298470000000 1.0
C      1  0.5102850000000  0.4525460000000  0.4591710000000 1.0
C      1  0.5564390000000  0.4670240000000  0.4764720000000 1.0
C      1  0.5443670000000  0.5304650000000  0.5342000000000 1.0
C      1  0.4533610000000  0.5309850000000  0.4939520000000 1.0
C      1  0.4812480000000  0.5454320000000  0.4375680000000 1.0
C      1  0.4751920000000  0.5163940000000  0.4806640000000 1.0
C      1  0.5007570000000  0.4965090000000  0.4333710000000 1.0
C      1  0.5098630000000  0.5491170000000  0.4413740000000 1.0
C      1  0.4652110000000  0.4706690000000  0.4892180000000 1.0
C      1  0.4917320000000  0.4706570000000  0.4448550000000 1.0
C      1  0.5625330000000  0.4875620000000  0.4952290000000 1.0
C      1  0.4860170000000  0.4927840000000  0.4959150000000 1.0
C      1  0.5436280000000  0.5374190000000  0.5059530000000 1.0
C      1  0.5092030000000  0.4835380000000  0.5690650000000 1.0
C      1  0.5182560000000  0.5231990000000  0.4530770000000 1.0
C      1  0.5146530000000  0.5447880000000  0.5015540000000 1.0
C      1  0.4798390000000  0.5240860000000  0.5348100000000 1.0
C      1  0.4731580000000  0.4439720000000  0.5014880000000 1.0
C      1  0.5246720000000  0.5011800000000  0.5189960000000 1.0
C      1  0.4776790000000  0.5152920000000  0.4330440000000 1.0
C      1  0.5458600000000  0.5206340000000  0.4606220000000 1.0
C      1  0.4916960000000  0.4979970000000  0.5256840000000 1.0
C      1  0.5274470000000  0.4639920000000  0.4812810000000 1.0
C      1  0.5213200000000  0.5396180000000  0.5490540000000 1.0
C      1  0.4815020000000  0.5177650000000  0.5645740000000 1.0
C      1  0.5670740000000  0.4778060000000  0.5213510000000 1.0
C      1  0.4399680000000  0.4796410000000  0.5005360000000 1.0
C      1  0.4654770000000  0.5559490000000  0.4591720000000 1.0
C      1  0.5450670000000  0.4862160000000  0.5363540000000 1.0
C      1  0.4800650000000  0.4881580000000  0.5672680000000 1.0
C      1  0.4654860000000  0.4747530000000  0.4586570000000 1.0
C      1  0.5245980000000  0.4685560000000  0.5488000000000 1.0
C      1  0.5200420000000  0.4439960000000  0.5029590000000 1.0
C      1  0.4461970000000  0.4924270000000  0.5248130000000 1.0
C      1  0.5007630000000  0.5453220000000  0.5281280000000 1.0
C      1  0.4535920000000  0.5573390000000  0.4839140000000 1.0
C      1  0.5084940000000  0.4568510000000  0.5268080000000 1.0
C      1  0.5161030000000  0.4901660000000  0.4893690000000 1.0
END
