TITL C-951339-9237-490 -3.26955605342105e-07 125000 -1063.37973511493 0 0 170 (C1) n - 1
REM
REM in /home/bkarasulu/work/CARBON/AIRSS/Generating-Clusters/EDIP-Nigel-Params/with-SteepDescent/Only-C1/SD-CG/HFTN-CG
REM
REM
REM
REM
REM
REM ./C.cell (11c1c37f851c82e70ff6c80c92926a4b)
REM
REM compiler GCC version 9.2.1 20190827 (Red Hat 9.2.1-1)
REM options -cpp -mtune=generic -march=x86-64 -g -O0 -fpre-include=/usr/include/finclude/math-vector-fortran.h
REM seed 886823165 -1166628165 -1401381473 553235213 1896034074 1571735850 -898517196 -1393928400 1011449546 -912781860 1792314249 -326478035 1690024198 1086453520 -473553372 -1726677372 -865998905 -836504367 1623007890 600564554 -1090061757 935060653 -1566040953 -376094364 156801577 -910864805 -422001693 1321241998 1208130498 -1997509223 561273903 -53567722 -1459654090
REM
CELL 1.54180   50.00000   50.00000   50.00000   90.00000   90.00000   90.00000
LATT -1
SFAC C  
C      1  0.4789710000000  0.4634760000000  0.4765790000000 1.0
C      1  0.4712700000000  0.4289900000000  0.5037440000000 1.0
C      1  0.4607800000000  0.4579680000000  0.5012110000000 1.0
C      1  0.5585910000000  0.5010190000000  0.4633060000000 1.0
C      1  0.4855930000000  0.5991740000000  0.5488970000000 1.0
C      1  0.4562080000000  0.5007330000000  0.4702860000000 1.0
C      1  0.4742520000000  0.4080190000000  0.4565150000000 1.0
C      1  0.5613120000000  0.4304400000000  0.4713620000000 1.0
C      1  0.4665740000000  0.5431100000000  0.5023820000000 1.0
C      1  0.5573480000000  0.5774760000000  0.4981790000000 1.0
C      1  0.4662770000000  0.5954440000000  0.4721490000000 1.0
C      1  0.5072290000000  0.5107850000000  0.5125300000000 1.0
C      1  0.5536040000000  0.4775150000000  0.5309630000000 1.0
C      1  0.4745820000000  0.5064280000000  0.4463440000000 1.0
C      1  0.5488250000000  0.4691230000000  0.5013660000000 1.0
C      1  0.5481740000000  0.4389110000000  0.4969540000000 1.0
C      1  0.5458870000000  0.4926180000000  0.5987610000000 1.0
C      1  0.5199300000000  0.4178040000000  0.5592100000000 1.0
C      1  0.4753110000000  0.5624830000000  0.5785420000000 1.0
C      1  0.5718490000000  0.4947800000000  0.4352000000000 1.0
C      1  0.5672100000000  0.4956480000000  0.5796320000000 1.0
C      1  0.4154500000000  0.4356460000000  0.5284040000000 1.0
C      1  0.4097330000000  0.5380750000000  0.4274440000000 1.0
C      1  0.4191380000000  0.4062820000000  0.4874420000000 1.0
C      1  0.6008000000000  0.4680020000000  0.5127340000000 1.0
C      1  0.6079670000000  0.5235770000000  0.4974850000000 1.0
C      1  0.5524770000000  0.5856950000000  0.4708860000000 1.0
C      1  0.5162130000000  0.5170530000000  0.4649850000000 1.0
C      1  0.5619720000000  0.5211350000000  0.5084330000000 1.0
C      1  0.5247310000000  0.5222390000000  0.4138440000000 1.0
C      1  0.4565010000000  0.4941060000000  0.4991910000000 1.0
C      1  0.4186240000000  0.5260330000000  0.5053640000000 1.0
C      1  0.4675730000000  0.5918430000000  0.5146510000000 1.0
C      1  0.4412420000000  0.3920600000000  0.4967710000000 1.0
C      1  0.5964080000000  0.5137450000000  0.4442070000000 1.0
C      1  0.5140290000000  0.4068920000000  0.5310250000000 1.0
C      1  0.4488080000000  0.5633200000000  0.5431430000000 1.0
C      1  0.5658620000000  0.5230190000000  0.5654650000000 1.0
C      1  0.5327300000000  0.5502100000000  0.4143820000000 1.0
C      1  0.4941930000000  0.3831910000000  0.4967480000000 1.0
C      1  0.4750790000000  0.5158100000000  0.5148000000000 1.0
C      1  0.4614290000000  0.4638290000000  0.5856450000000 1.0
C      1  0.4469560000000  0.4480720000000  0.4369050000000 1.0
C      1  0.5570200000000  0.4204790000000  0.5193000000000 1.0
C      1  0.5246630000000  0.3947110000000  0.4876530000000 1.0
C      1  0.5360200000000  0.5894870000000  0.5536930000000 1.0
C      1  0.4617020000000  0.5833070000000  0.5604800000000 1.0
C      1  0.4735170000000  0.4568840000000  0.4479850000000 1.0
C      1  0.4756340000000  0.4968670000000  0.4027960000000 1.0
C      1  0.4962820000000  0.5265890000000  0.4475980000000 1.0
C      1  0.5953430000000  0.4763820000000  0.4820990000000 1.0
C      1  0.4574470000000  0.5602680000000  0.4185910000000 1.0
C      1  0.5270270000000  0.5141820000000  0.6004370000000 1.0
C      1  0.5092680000000  0.5671970000000  0.5144700000000 1.0
C      1  0.4373790000000  0.5948820000000  0.5081270000000 1.0
C      1  0.5290620000000  0.4786610000000  0.4062240000000 1.0
C      1  0.5113470000000  0.4188250000000  0.4343970000000 1.0
C      1  0.4773810000000  0.5111050000000  0.5931330000000 1.0
C      1  0.3898030000000  0.4780820000000  0.4748820000000 1.0
C      1  0.4845670000000  0.5511980000000  0.4070900000000 1.0
C      1  0.5318010000000  0.5894320000000  0.5093890000000 1.0
C      1  0.4472020000000  0.5065000000000  0.4031360000000 1.0
C      1  0.4828620000000  0.4814040000000  0.4289040000000 1.0
C      1  0.5078140000000  0.5673380000000  0.4181130000000 1.0
C      1  0.4945880000000  0.5220650000000  0.4082200000000 1.0
C      1  0.3920730000000  0.5303930000000  0.4983170000000 1.0
C      1  0.5101340000000  0.4661210000000  0.4242280000000 1.0
C      1  0.5439050000000  0.5371320000000  0.5235890000000 1.0
C      1  0.5773040000000  0.4471580000000  0.5537670000000 1.0
C      1  0.4587360000000  0.5570420000000  0.4511320000000 1.0
C      1  0.4471850000000  0.5361400000000  0.5566700000000 1.0
C      1  0.5863790000000  0.4184490000000  0.5163690000000 1.0
C      1  0.4495030000000  0.4855660000000  0.5425510000000 1.0
C      1  0.4649110000000  0.5125510000000  0.5448400000000 1.0
C      1  0.4074890000000  0.4629410000000  0.5334510000000 1.0
C      1  0.5012450000000  0.4825160000000  0.5601620000000 1.0
C      1  0.5351300000000  0.5414470000000  0.5980430000000 1.0
C      1  0.4683170000000  0.4008460000000  0.5393520000000 1.0
C      1  0.5887500000000  0.5324440000000  0.5462010000000 1.0
C      1  0.5011250000000  0.4375480000000  0.4149870000000 1.0
C      1  0.4916260000000  0.4731940000000  0.5346290000000 1.0
C      1  0.4840120000000  0.6164630000000  0.5226970000000 1.0
C      1  0.5104430000000  0.5308000000000  0.5626900000000 1.0
C      1  0.5666690000000  0.4808380000000  0.4816490000000 1.0
C      1  0.5352080000000  0.4555560000000  0.5423370000000 1.0
C      1  0.5818770000000  0.5610470000000  0.5404740000000 1.0
C      1  0.4328590000000  0.5324730000000  0.5848450000000 1.0
C      1  0.5963800000000  0.4557160000000  0.4601540000000 1.0
C      1  0.5476350000000  0.4038060000000  0.4634420000000 1.0
C      1  0.5766430000000  0.4640910000000  0.4387740000000 1.0
C      1  0.5147150000000  0.4236190000000  0.4852320000000 1.0
C      1  0.4305340000000  0.5692660000000  0.5209190000000 1.0
C      1  0.4602590000000  0.4120920000000  0.4314450000000 1.0
C      1  0.4658690000000  0.4620850000000  0.5327680000000 1.0
C      1  0.5456890000000  0.5004370000000  0.4129870000000 1.0
C      1  0.5573570000000  0.5475200000000  0.5815190000000 1.0
C      1  0.4305540000000  0.4974090000000  0.4535020000000 1.0
C      1  0.4288360000000  0.5037450000000  0.5904810000000 1.0
C      1  0.4592340000000  0.5871830000000  0.4431670000000 1.0
C      1  0.6061530000000  0.5042870000000  0.4731350000000 1.0
C      1  0.5014640000000  0.5577610000000  0.5667490000000 1.0
C      1  0.4318290000000  0.5473150000000  0.4105380000000 1.0
C      1  0.4113860000000  0.4304500000000  0.4994840000000 1.0
C      1  0.4008800000000  0.5087530000000  0.4229430000000 1.0
C      1  0.5074930000000  0.4659360000000  0.4762770000000 1.0
C      1  0.4322630000000  0.5608500000000  0.4714470000000 1.0
C      1  0.4921330000000  0.4612240000000  0.5818880000000 1.0
C      1  0.5246890000000  0.4674790000000  0.4515960000000 1.0
C      1  0.4247190000000  0.4740140000000  0.5552990000000 1.0
C      1  0.3918540000000  0.5287580000000  0.4702720000000 1.0
C      1  0.5387170000000  0.3968060000000  0.5153480000000 1.0
C      1  0.5595960000000  0.5275980000000  0.4795840000000 1.0
C      1  0.5192550000000  0.4763140000000  0.5001260000000 1.0
C      1  0.5319850000000  0.5385240000000  0.4773370000000 1.0
C      1  0.4341280000000  0.4264700000000  0.5507770000000 1.0
C      1  0.5133510000000  0.6154950000000  0.4800390000000 1.0
C      1  0.4388740000000  0.4512390000000  0.5686770000000 1.0
C      1  0.5350750000000  0.4676870000000  0.6058020000000 1.0
C      1  0.4960690000000  0.5965710000000  0.4662550000000 1.0
C      1  0.4084350000000  0.4561330000000  0.4848520000000 1.0
C      1  0.5278490000000  0.4984050000000  0.5376320000000 1.0
C      1  0.3983300000000  0.5023010000000  0.4576570000000 1.0
C      1  0.4554160000000  0.4912320000000  0.5942950000000 1.0
C      1  0.5359790000000  0.5638940000000  0.4582330000000 1.0
C      1  0.5377320000000  0.5241040000000  0.5491320000000 1.0
C      1  0.5832910000000  0.5681270000000  0.5104970000000 1.0
C      1  0.4490010000000  0.5189960000000  0.4307390000000 1.0
C      1  0.5320630000000  0.4961070000000  0.4548050000000 1.0
C      1  0.4103760000000  0.4907800000000  0.5739410000000 1.0
C      1  0.4288100000000  0.4722050000000  0.4354060000000 1.0
C      1  0.5392540000000  0.6102200000000  0.4715950000000 1.0
C      1  0.5084140000000  0.5782950000000  0.5472000000000 1.0
C      1  0.4368550000000  0.5485480000000  0.4998650000000 1.0
C      1  0.4076490000000  0.5486810000000  0.4558520000000 1.0
C      1  0.5390260000000  0.6079390000000  0.5316990000000 1.0
C      1  0.5104790000000  0.6217460000000  0.5098180000000 1.0
C      1  0.4506730000000  0.4116360000000  0.5181780000000 1.0
C      1  0.5905230000000  0.4299370000000  0.4703170000000 1.0
C      1  0.5509610000000  0.4321770000000  0.5474150000000 1.0
C      1  0.5869830000000  0.5418390000000  0.4429440000000 1.0
C      1  0.4618150000000  0.5388460000000  0.5927170000000 1.0
C      1  0.4338900000000  0.5908840000000  0.4790490000000 1.0
C      1  0.4960670000000  0.4274960000000  0.4581380000000 1.0
C      1  0.4059530000000  0.4784160000000  0.5073310000000 1.0
C      1  0.5579330000000  0.5684100000000  0.5589280000000 1.0
C      1  0.4823310000000  0.5699540000000  0.4982520000000 1.0
C      1  0.4963060000000  0.4321400000000  0.5705170000000 1.0
C      1  0.4729800000000  0.4293000000000  0.5519570000000 1.0
C      1  0.5114540000000  0.4569110000000  0.5229070000000 1.0
C      1  0.5784870000000  0.5501870000000  0.4699670000000 1.0
C      1  0.5526060000000  0.5550930000000  0.4346160000000 1.0
C      1  0.4722640000000  0.4309590000000  0.4128400000000 1.0
C      1  0.5866230000000  0.4874340000000  0.5294220000000 1.0
C      1  0.5939320000000  0.4432430000000  0.5289400000000 1.0
C      1  0.5209590000000  0.5393680000000  0.5066210000000 1.0
C      1  0.6010950000000  0.5523120000000  0.4901340000000 1.0
C      1  0.4695670000000  0.3952790000000  0.4832550000000 1.0
C      1  0.4886710000000  0.5095430000000  0.5650100000000 1.0
C      1  0.5015490000000  0.4293840000000  0.5123070000000 1.0
C      1  0.4277650000000  0.4990840000000  0.5065670000000 1.0
C      1  0.5070910000000  0.4723600000000  0.6064340000000 1.0
C      1  0.4924580000000  0.3868740000000  0.5274130000000 1.0
C      1  0.5882370000000  0.5161700000000  0.5205730000000 1.0
C      1  0.5392150000000  0.4141530000000  0.4367570000000 1.0
C      1  0.5513280000000  0.4487930000000  0.4479890000000 1.0
C      1  0.5772760000000  0.4716850000000  0.5684790000000 1.0
C      1  0.4225120000000  0.4894000000000  0.4107180000000 1.0
C      1  0.4872000000000  0.5515690000000  0.4592560000000 1.0
C      1  0.5067880000000  0.5725000000000  0.4496360000000 1.0
C      1  0.5016320000000  0.5021700000000  0.6094760000000 1.0
END
