TITL C-950532-2784-208 -5.43812178731343e-07 125000 -1083.15979193085 0 0 172 (C1) n - 1
REM
REM in /home/bkarasulu/work/CARBON/AIRSS/Generating-Clusters/EDIP-Nigel-Params/with-SteepDescent/Only-C1/SD-CG/HFTN-CG
REM
REM
REM
REM
REM
REM ./C.cell (11c1c37f851c82e70ff6c80c92926a4b)
REM
REM compiler GCC version 9.2.1 20190827 (Red Hat 9.2.1-1)
REM options -cpp -mtune=generic -march=x86-64 -g -O0 -fpre-include=/usr/include/finclude/math-vector-fortran.h
REM seed -1370149339 -1301200946 -958227166 -1063623311 162438607 342427288 36739638 2016722888 -776375574 -1743607870 1982055915 1134201513 1824472062 407534826 -1537798343 -1642482262 1917173310 1761194575 -1228816927 -1864806469 240386816 1927404552 -2037427137 -1375951012 -2083686672 -1188578349 1500905742 1794584446 374164792 -226290226 -1516034467 441058860 491028740
REM
CELL 1.54180   50.00000   50.00000   50.00000   90.00000   90.00000   90.00000
LATT -1
SFAC C  
C      1  0.5793020000000  0.4218590000000  0.4847270000000 1.0
C      1  0.4078300000000  0.5315910000000  0.5569480000000 1.0
C      1  0.5995520000000  0.4609430000000  0.4380060000000 1.0
C      1  0.3998510000000  0.5415980000000  0.5303650000000 1.0
C      1  0.5176210000000  0.5408980000000  0.4808410000000 1.0
C      1  0.5061660000000  0.4863210000000  0.5775370000000 1.0
C      1  0.4671150000000  0.5999750000000  0.4628710000000 1.0
C      1  0.5303760000000  0.4673220000000  0.5304370000000 1.0
C      1  0.5420610000000  0.4347200000000  0.5726790000000 1.0
C      1  0.4182690000000  0.5652310000000  0.5193340000000 1.0
C      1  0.5098710000000  0.5958740000000  0.4999990000000 1.0
C      1  0.5310860000000  0.5869640000000  0.5540260000000 1.0
C      1  0.4684070000000  0.4410610000000  0.4500570000000 1.0
C      1  0.4144980000000  0.5468480000000  0.4473120000000 1.0
C      1  0.4536670000000  0.5348200000000  0.5434250000000 1.0
C      1  0.4299810000000  0.4956090000000  0.4300520000000 1.0
C      1  0.4682490000000  0.4204960000000  0.4746540000000 1.0
C      1  0.4915520000000  0.3922240000000  0.5041520000000 1.0
C      1  0.5173540000000  0.4318500000000  0.4194790000000 1.0
C      1  0.5589380000000  0.4062820000000  0.5000180000000 1.0
C      1  0.3964580000000  0.4864640000000  0.5174420000000 1.0
C      1  0.4698520000000  0.5235980000000  0.4762260000000 1.0
C      1  0.6167010000000  0.5144870000000  0.4869450000000 1.0
C      1  0.4182770000000  0.4415890000000  0.5001090000000 1.0
C      1  0.5424570000000  0.5274260000000  0.5486680000000 1.0
C      1  0.5113720000000  0.5328800000000  0.4515490000000 1.0
C      1  0.5692070000000  0.5572600000000  0.4502240000000 1.0
C      1  0.5230860000000  0.3986850000000  0.4601670000000 1.0
C      1  0.5056460000000  0.5737790000000  0.5628410000000 1.0
C      1  0.4427850000000  0.5088030000000  0.4778670000000 1.0
C      1  0.4801060000000  0.5264500000000  0.5559840000000 1.0
C      1  0.5744160000000  0.4240350000000  0.4558640000000 1.0
C      1  0.5826360000000  0.5771380000000  0.5055480000000 1.0
C      1  0.5531590000000  0.5791810000000  0.4628940000000 1.0
C      1  0.5639950000000  0.4732270000000  0.5935410000000 1.0
C      1  0.5567690000000  0.5702150000000  0.5470310000000 1.0
C      1  0.5460200000000  0.4789720000000  0.5088030000000 1.0
C      1  0.4684670000000  0.5188190000000  0.4026330000000 1.0
C      1  0.5879250000000  0.4723430000000  0.4131710000000 1.0
C      1  0.4927990000000  0.4428030000000  0.4059390000000 1.0
C      1  0.5315340000000  0.5073190000000  0.4506020000000 1.0
C      1  0.4913700000000  0.5279420000000  0.5932460000000 1.0
C      1  0.5494840000000  0.4403700000000  0.4517570000000 1.0
C      1  0.4243200000000  0.4331630000000  0.4723000000000 1.0
C      1  0.4564140000000  0.6085640000000  0.5367500000000 1.0
C      1  0.3965700000000  0.5061630000000  0.4612500000000 1.0
C      1  0.4863210000000  0.5173560000000  0.5068040000000 1.0
C      1  0.4301910000000  0.5179630000000  0.5036830000000 1.0
C      1  0.4883580000000  0.4861870000000  0.4417840000000 1.0
C      1  0.5567790000000  0.5338120000000  0.5073170000000 1.0
C      1  0.5558280000000  0.4959920000000  0.5772480000000 1.0
C      1  0.4458470000000  0.4521050000000  0.5095320000000 1.0
C      1  0.4997940000000  0.4139450000000  0.5742990000000 1.0
C      1  0.4887870000000  0.3989000000000  0.4770040000000 1.0
C      1  0.5600870000000  0.4194680000000  0.5272100000000 1.0
C      1  0.4960350000000  0.4795410000000  0.3938370000000 1.0
C      1  0.4235410000000  0.5162390000000  0.4521910000000 1.0
C      1  0.4685600000000  0.5682400000000  0.4999150000000 1.0
C      1  0.4618860000000  0.4039300000000  0.5462570000000 1.0
C      1  0.5007400000000  0.5679850000000  0.5025850000000 1.0
C      1  0.5564110000000  0.5821650000000  0.4927800000000 1.0
C      1  0.5858360000000  0.4768060000000  0.4596420000000 1.0
C      1  0.5214280000000  0.5213200000000  0.4047530000000 1.0
C      1  0.5838970000000  0.5072680000000  0.4517560000000 1.0
C      1  0.5305010000000  0.5480000000000  0.4139510000000 1.0
C      1  0.4464580000000  0.5388020000000  0.5966430000000 1.0
C      1  0.5486630000000  0.5406700000000  0.4800340000000 1.0
C      1  0.5111090000000  0.5560560000000  0.5293920000000 1.0
C      1  0.5359890000000  0.4725710000000  0.4809350000000 1.0
C      1  0.4709770000000  0.4287380000000  0.4219380000000 1.0
C      1  0.5593560000000  0.5458490000000  0.4224690000000 1.0
C      1  0.4430700000000  0.5104320000000  0.5286680000000 1.0
C      1  0.5553270000000  0.5057120000000  0.5120940000000 1.0
C      1  0.4125590000000  0.5659950000000  0.4900740000000 1.0
C      1  0.5200340000000  0.4467240000000  0.4733550000000 1.0
C      1  0.3871100000000  0.5235110000000  0.4832530000000 1.0
C      1  0.5816360000000  0.4404100000000  0.5286550000000 1.0
C      1  0.6117730000000  0.4906920000000  0.5285420000000 1.0
C      1  0.6112130000000  0.4912800000000  0.5010050000000 1.0
C      1  0.4993580000000  0.4610390000000  0.5920450000000 1.0
C      1  0.4587080000000  0.5820390000000  0.5459150000000 1.0
C      1  0.3960510000000  0.4740580000000  0.5442480000000 1.0
C      1  0.5124640000000  0.5588770000000  0.4346370000000 1.0
C      1  0.5650360000000  0.4528020000000  0.5744540000000 1.0
C      1  0.4270020000000  0.5849960000000  0.4746000000000 1.0
C      1  0.4765210000000  0.4761320000000  0.4161530000000 1.0
C      1  0.4557720000000  0.4392860000000  0.5807390000000 1.0
C      1  0.4509320000000  0.5609440000000  0.5257460000000 1.0
C      1  0.4014750000000  0.4675570000000  0.4951990000000 1.0
C      1  0.4820040000000  0.5614410000000  0.4278060000000 1.0
C      1  0.3968020000000  0.5494720000000  0.4720200000000 1.0
C      1  0.5943050000000  0.4857940000000  0.5494510000000 1.0
C      1  0.4655480000000  0.5525130000000  0.4755910000000 1.0
C      1  0.5408940000000  0.4133480000000  0.5519280000000 1.0
C      1  0.5601850000000  0.4624350000000  0.4080580000000 1.0
C      1  0.4700460000000  0.5336510000000  0.4283470000000 1.0
C      1  0.5134730000000  0.5076350000000  0.5977660000000 1.0
C      1  0.5150050000000  0.4363950000000  0.5851840000000 1.0
C      1  0.5419390000000  0.5491830000000  0.5294850000000 1.0
C      1  0.4645530000000  0.5160280000000  0.6015330000000 1.0
C      1  0.5444300000000  0.5036020000000  0.4040870000000 1.0
C      1  0.4402020000000  0.4089130000000  0.4760930000000 1.0
C      1  0.5681550000000  0.5188510000000  0.4122220000000 1.0
C      1  0.5260500000000  0.4380070000000  0.5259170000000 1.0
C      1  0.4142880000000  0.5937200000000  0.5250950000000 1.0
C      1  0.5079330000000  0.4122570000000  0.4392340000000 1.0
C      1  0.4195220000000  0.5041740000000  0.5501170000000 1.0
C      1  0.4911050000000  0.5581680000000  0.5844000000000 1.0
C      1  0.4845990000000  0.5173590000000  0.4494280000000 1.0
C      1  0.4324000000000  0.5719620000000  0.4475420000000 1.0
C      1  0.4789440000000  0.4955130000000  0.5632650000000 1.0
C      1  0.5179580000000  0.4937260000000  0.4733510000000 1.0
C      1  0.4398580000000  0.4551750000000  0.4587210000000 1.0
C      1  0.4319450000000  0.3951720000000  0.4993630000000 1.0
C      1  0.5962020000000  0.5524180000000  0.4633180000000 1.0
C      1  0.5914730000000  0.5017490000000  0.4153010000000 1.0
C      1  0.4693180000000  0.4618430000000  0.5945450000000 1.0
C      1  0.4139920000000  0.4641150000000  0.5664950000000 1.0
C      1  0.4912930000000  0.4609450000000  0.4594850000000 1.0
C      1  0.4993360000000  0.5281590000000  0.5335440000000 1.0
C      1  0.4899870000000  0.6149990000000  0.4602070000000 1.0
C      1  0.4731060000000  0.4792170000000  0.5389660000000 1.0
C      1  0.5809720000000  0.4595840000000  0.5507620000000 1.0
C      1  0.5308050000000  0.4061040000000  0.4882190000000 1.0
C      1  0.4348370000000  0.5433640000000  0.5661550000000 1.0
C      1  0.4446750000000  0.5745270000000  0.5702460000000 1.0
C      1  0.4214290000000  0.4154680000000  0.5158460000000 1.0
C      1  0.4723190000000  0.4406290000000  0.4973830000000 1.0
C      1  0.5113670000000  0.4037440000000  0.5493920000000 1.0
C      1  0.4382090000000  0.6068140000000  0.5156670000000 1.0
C      1  0.5835690000000  0.5674480000000  0.5333440000000 1.0
C      1  0.4961790000000  0.5089950000000  0.3941340000000 1.0
C      1  0.6046020000000  0.5245290000000  0.4640050000000 1.0
C      1  0.4880490000000  0.3992200000000  0.5313330000000 1.0
C      1  0.5120560000000  0.5141420000000  0.4930910000000 1.0
C      1  0.5377060000000  0.6013740000000  0.5051640000000 1.0
C      1  0.4628830000000  0.5650780000000  0.5927190000000 1.0
C      1  0.5412220000000  0.5393340000000  0.5761590000000 1.0
C      1  0.4502440000000  0.4611790000000  0.5372330000000 1.0
C      1  0.5437650000000  0.4432920000000  0.4234700000000 1.0
C      1  0.4367320000000  0.4450530000000  0.5580120000000 1.0
C      1  0.5285820000000  0.6056850000000  0.5327960000000 1.0
C      1  0.5150700000000  0.4293790000000  0.4987200000000 1.0
C      1  0.5417140000000  0.5167150000000  0.5946740000000 1.0
C      1  0.6006770000000  0.5665180000000  0.4870780000000 1.0
C      1  0.4516120000000  0.5950010000000  0.4897390000000 1.0
C      1  0.4197350000000  0.4703700000000  0.4428690000000 1.0
C      1  0.5371680000000  0.4865600000000  0.4276450000000 1.0
C      1  0.5566080000000  0.5168290000000  0.4621720000000 1.0
C      1  0.5799040000000  0.5080110000000  0.5620220000000 1.0
C      1  0.4821940000000  0.4035000000000  0.4305360000000 1.0
C      1  0.5556710000000  0.4697390000000  0.4571700000000 1.0
C      1  0.4010740000000  0.5173400000000  0.5094970000000 1.0
C      1  0.4671810000000  0.4963430000000  0.5164380000000 1.0
C      1  0.4579110000000  0.4899700000000  0.5855200000000 1.0
C      1  0.4496400000000  0.4760550000000  0.4810970000000 1.0
C      1  0.5849730000000  0.5373320000000  0.5575660000000 1.0
C      1  0.5295910000000  0.4852390000000  0.5566830000000 1.0
C      1  0.4348230000000  0.4178380000000  0.5422610000000 1.0
C      1  0.5966990000000  0.4706630000000  0.4872560000000 1.0
C      1  0.5261030000000  0.5816500000000  0.4506520000000 1.0
C      1  0.4635130000000  0.5710700000000  0.4515500000000 1.0
C      1  0.5665530000000  0.5555030000000  0.5726860000000 1.0
C      1  0.4522450000000  0.4935750000000  0.4089990000000 1.0
C      1  0.5219020000000  0.5095800000000  0.5413500000000 1.0
C      1  0.4789090000000  0.4676550000000  0.4853490000000 1.0
C      1  0.4708440000000  0.4153980000000  0.5720970000000 1.0
C      1  0.4285400000000  0.4894560000000  0.5755730000000 1.0
C      1  0.5961850000000  0.4333820000000  0.4408920000000 1.0
C      1  0.4002780000000  0.4775310000000  0.4663560000000 1.0
C      1  0.5138620000000  0.6062970000000  0.4525320000000 1.0
C      1  0.5887810000000  0.4454460000000  0.5004130000000 1.0
END
