TITL C-950533-5798-596 2.22180800409459e-06 125000 -1166.16118687945 0 0 185 (C1) n - 1
REM
REM in /home/bkarasulu/work/CARBON/AIRSS/Generating-Clusters/EDIP-Nigel-Params/with-SteepDescent/Only-C1/SD-CG/HFTN-CG
REM
REM
REM
REM
REM
REM ./C.cell (11c1c37f851c82e70ff6c80c92926a4b)
REM
REM compiler GCC version 9.2.1 20190827 (Red Hat 9.2.1-1)
REM options -cpp -mtune=generic -march=x86-64 -g -O0 -fpre-include=/usr/include/finclude/math-vector-fortran.h
REM seed -1360753419 1584167070 -2118052482 762280653 1209427920 -1871982446 1831633592 1273929378 -259126832 1865256 -1731028441 -1325285668 1679524300 1605706062 766455201 332354104 370717361 -1950883434 116412126 1633549802 -125151317 1169302379 1810996079 -373882662 457004612 1001190439 648300840 -1794133227 -417687621 -1900737204 -1176574131 761841233 -1282011919
REM
CELL 1.54180   50.00000   50.00000   50.00000   90.00000   90.00000   90.00000
LATT -1
SFAC C  
C      1  0.5768840000000  0.5599750000000  0.4859890000000 1.0
C      1  0.5610550000000  0.4074550000000  0.4819970000000 1.0
C      1  0.4463800000000  0.5196090000000  0.5922770000000 1.0
C      1  0.5824230000000  0.4223160000000  0.4669150000000 1.0
C      1  0.5016420000000  0.4354570000000  0.5120630000000 1.0
C      1  0.4149210000000  0.4561990000000  0.5362180000000 1.0
C      1  0.5347700000000  0.4045380000000  0.4691150000000 1.0
C      1  0.4911050000000  0.5436170000000  0.5087230000000 1.0
C      1  0.4799160000000  0.3931780000000  0.5133270000000 1.0
C      1  0.4300140000000  0.4852480000000  0.4040040000000 1.0
C      1  0.5001130000000  0.5106220000000  0.3965980000000 1.0
C      1  0.4857840000000  0.5075920000000  0.4652630000000 1.0
C      1  0.4741690000000  0.6112790000000  0.4902120000000 1.0
C      1  0.4945310000000  0.4320580000000  0.4610940000000 1.0
C      1  0.4844890000000  0.4540410000000  0.5811720000000 1.0
C      1  0.5726810000000  0.5107970000000  0.4514920000000 1.0
C      1  0.5122080000000  0.5145250000000  0.4999140000000 1.0
C      1  0.4143360000000  0.5620240000000  0.4858920000000 1.0
C      1  0.4801210000000  0.4821620000000  0.5911210000000 1.0
C      1  0.4319520000000  0.5857050000000  0.4849030000000 1.0
C      1  0.4618800000000  0.5630490000000  0.4354430000000 1.0
C      1  0.4356590000000  0.5155480000000  0.4440390000000 1.0
C      1  0.4993470000000  0.4877860000000  0.6142790000000 1.0
C      1  0.5597760000000  0.4852410000000  0.4953530000000 1.0
C      1  0.6225840000000  0.4901390000000  0.4526130000000 1.0
C      1  0.4415000000000  0.4594380000000  0.4927950000000 1.0
C      1  0.4675930000000  0.4312350000000  0.5850390000000 1.0
C      1  0.4688970000000  0.5505220000000  0.4663990000000 1.0
C      1  0.4472100000000  0.4100050000000  0.5522260000000 1.0
C      1  0.4553040000000  0.4018190000000  0.5041870000000 1.0
C      1  0.4541800000000  0.5862590000000  0.5305350000000 1.0
C      1  0.3970970000000  0.5269820000000  0.5133040000000 1.0
C      1  0.4966920000000  0.5139540000000  0.6241310000000 1.0
C      1  0.5472060000000  0.4924870000000  0.5295140000000 1.0
C      1  0.5809330000000  0.4876470000000  0.5649080000000 1.0
C      1  0.6051860000000  0.4963500000000  0.5490830000000 1.0
C      1  0.6240790000000  0.4787240000000  0.5386190000000 1.0
C      1  0.5507200000000  0.5601060000000  0.4408740000000 1.0
C      1  0.4187950000000  0.5558090000000  0.4372450000000 1.0
C      1  0.5828630000000  0.4332060000000  0.5567130000000 1.0
C      1  0.4948770000000  0.5744780000000  0.3993950000000 1.0
C      1  0.5259820000000  0.5416430000000  0.5721410000000 1.0
C      1  0.5183920000000  0.5164210000000  0.4192230000000 1.0
C      1  0.5047640000000  0.5770470000000  0.5836930000000 1.0
C      1  0.6045730000000  0.4279060000000  0.4868110000000 1.0
C      1  0.5819350000000  0.4673880000000  0.4840640000000 1.0
C      1  0.4659580000000  0.5397290000000  0.5977800000000 1.0
C      1  0.5229940000000  0.5364860000000  0.5418950000000 1.0
C      1  0.5114650000000  0.4446330000000  0.5733200000000 1.0
C      1  0.6257820000000  0.4835510000000  0.4832910000000 1.0
C      1  0.4763880000000  0.5921020000000  0.5481790000000 1.0
C      1  0.5673610000000  0.4581190000000  0.5625900000000 1.0
C      1  0.4285940000000  0.5824710000000  0.4344720000000 1.0
C      1  0.5729630000000  0.4502420000000  0.4612400000000 1.0
C      1  0.3874620000000  0.5118990000000  0.4888840000000 1.0
C      1  0.4666110000000  0.6097900000000  0.4611680000000 1.0
C      1  0.5049110000000  0.5387650000000  0.4342780000000 1.0
C      1  0.5215180000000  0.5776560000000  0.4073870000000 1.0
C      1  0.4512070000000  0.4805350000000  0.5148750000000 1.0
C      1  0.5218180000000  0.5841620000000  0.5601820000000 1.0
C      1  0.4455640000000  0.5093040000000  0.3969990000000 1.0
C      1  0.4038570000000  0.4822250000000  0.5233410000000 1.0
C      1  0.5619110000000  0.4973200000000  0.4057640000000 1.0
C      1  0.4888580000000  0.4375300000000  0.4176850000000 1.0
C      1  0.4413960000000  0.4156080000000  0.5251110000000 1.0
C      1  0.5499340000000  0.5513820000000  0.4952030000000 1.0
C      1  0.5021050000000  0.6101290000000  0.4935940000000 1.0
C      1  0.4400900000000  0.4905100000000  0.4623430000000 1.0
C      1  0.6111010000000  0.5289500000000  0.5099750000000 1.0
C      1  0.3915570000000  0.5039460000000  0.5417080000000 1.0
C      1  0.4075440000000  0.5714300000000  0.5309550000000 1.0
C      1  0.4973980000000  0.4849030000000  0.5436290000000 1.0
C      1  0.4100670000000  0.5050300000000  0.5656940000000 1.0
C      1  0.5035850000000  0.5938840000000  0.5396860000000 1.0
C      1  0.6016270000000  0.5233520000000  0.5378350000000 1.0
C      1  0.4983990000000  0.4811670000000  0.3869910000000 1.0
C      1  0.4775190000000  0.5800420000000  0.5741570000000 1.0
C      1  0.4687940000000  0.4050380000000  0.4541190000000 1.0
C      1  0.4897500000000  0.5393450000000  0.6142310000000 1.0
C      1  0.4780640000000  0.4647900000000  0.4063280000000 1.0
C      1  0.6090590000000  0.4593600000000  0.4937610000000 1.0
C      1  0.5801390000000  0.4965610000000  0.5932510000000 1.0
C      1  0.5228420000000  0.4682350000000  0.3916580000000 1.0
C      1  0.5280340000000  0.4809960000000  0.6037750000000 1.0
C      1  0.6107440000000  0.4699270000000  0.4374380000000 1.0
C      1  0.5051020000000  0.4068140000000  0.5138940000000 1.0
C      1  0.4802190000000  0.4084550000000  0.5712020000000 1.0
C      1  0.4038080000000  0.4591970000000  0.4509010000000 1.0
C      1  0.4612030000000  0.5057100000000  0.4793040000000 1.0
C      1  0.5186890000000  0.3974100000000  0.4906000000000 1.0
C      1  0.5514820000000  0.5890620000000  0.5223570000000 1.0
C      1  0.4282510000000  0.5243060000000  0.5088930000000 1.0
C      1  0.5465700000000  0.5206780000000  0.4123630000000 1.0
C      1  0.5100140000000  0.4805590000000  0.4907980000000 1.0
C      1  0.5559460000000  0.5075630000000  0.4767630000000 1.0
C      1  0.5693000000000  0.5223700000000  0.5943690000000 1.0
C      1  0.5506570000000  0.4034380000000  0.5354820000000 1.0
C      1  0.5623430000000  0.5341930000000  0.4332670000000 1.0
C      1  0.5914820000000  0.4190810000000  0.5123540000000 1.0
C      1  0.4767360000000  0.5857420000000  0.4208510000000 1.0
C      1  0.3951090000000  0.4839450000000  0.4937270000000 1.0
C      1  0.4192100000000  0.4328060000000  0.5194880000000 1.0
C      1  0.4661810000000  0.4693100000000  0.5382410000000 1.0
C      1  0.4076500000000  0.4913830000000  0.4204820000000 1.0
C      1  0.5736240000000  0.5319860000000  0.5433410000000 1.0
C      1  0.4707980000000  0.4505850000000  0.4854150000000 1.0
C      1  0.5777500000000  0.5852560000000  0.4733060000000 1.0
C      1  0.4823890000000  0.4603450000000  0.4582860000000 1.0
C      1  0.3984560000000  0.5567870000000  0.5094170000000 1.0
C      1  0.5443690000000  0.4462440000000  0.5132820000000 1.0
C      1  0.5421660000000  0.4535720000000  0.4616740000000 1.0
C      1  0.5548770000000  0.5434010000000  0.5819210000000 1.0
C      1  0.4857570000000  0.5466450000000  0.3928420000000 1.0
C      1  0.5669250000000  0.5814980000000  0.4487550000000 1.0
C      1  0.4218840000000  0.4381960000000  0.4471830000000 1.0
C      1  0.4902920000000  0.4610780000000  0.5068990000000 1.0
C      1  0.4837720000000  0.4900220000000  0.4256520000000 1.0
C      1  0.5381840000000  0.4727040000000  0.4390170000000 1.0
C      1  0.5210120000000  0.4025900000000  0.5398460000000 1.0
C      1  0.5195520000000  0.5908400000000  0.4833150000000 1.0
C      1  0.4424410000000  0.4391340000000  0.4268600000000 1.0
C      1  0.4266210000000  0.4237050000000  0.4713390000000 1.0
C      1  0.4437330000000  0.5359980000000  0.5324850000000 1.0
C      1  0.4288160000000  0.4964980000000  0.5198030000000 1.0
C      1  0.5118860000000  0.5594910000000  0.5250630000000 1.0
C      1  0.5245680000000  0.4289000000000  0.4541390000000 1.0
C      1  0.4446210000000  0.5319230000000  0.4756160000000 1.0
C      1  0.6094040000000  0.4604900000000  0.5235330000000 1.0
C      1  0.4167830000000  0.4740220000000  0.4732410000000 1.0
C      1  0.4116030000000  0.4344580000000  0.4926740000000 1.0
C      1  0.4326120000000  0.5587010000000  0.5687790000000 1.0
C      1  0.5325950000000  0.4560500000000  0.4150140000000 1.0
C      1  0.5649670000000  0.4858790000000  0.4328490000000 1.0
C      1  0.6027740000000  0.5131660000000  0.4602410000000 1.0
C      1  0.5110050000000  0.5845390000000  0.4552220000000 1.0
C      1  0.4342100000000  0.5659260000000  0.5400170000000 1.0
C      1  0.4661190000000  0.4216650000000  0.4295480000000 1.0
C      1  0.3943200000000  0.5053390000000  0.4399930000000 1.0
C      1  0.5304130000000  0.4954660000000  0.5761490000000 1.0
C      1  0.4163930000000  0.5358660000000  0.4170480000000 1.0
C      1  0.5370020000000  0.5266590000000  0.4864660000000 1.0
C      1  0.4764530000000  0.5399670000000  0.4204860000000 1.0
C      1  0.5332210000000  0.5733630000000  0.5055570000000 1.0
C      1  0.5660520000000  0.4762650000000  0.6078510000000 1.0
C      1  0.4382630000000  0.4596330000000  0.5555450000000 1.0
C      1  0.4608630000000  0.5130480000000  0.4226840000000 1.0
C      1  0.4290810000000  0.5318520000000  0.3926860000000 1.0
C      1  0.4720310000000  0.5260130000000  0.5244570000000 1.0
C      1  0.5372600000000  0.4653770000000  0.4901020000000 1.0
C      1  0.5993810000000  0.5522810000000  0.5004820000000 1.0
C      1  0.4063970000000  0.5486420000000  0.4616730000000 1.0
C      1  0.5135650000000  0.5178090000000  0.5836390000000 1.0
C      1  0.5673650000000  0.5567960000000  0.5591450000000 1.0
C      1  0.4585320000000  0.5871370000000  0.5007440000000 1.0
C      1  0.5196060000000  0.5078510000000  0.5291590000000 1.0
C      1  0.4917970000000  0.5004880000000  0.5698760000000 1.0
C      1  0.4477240000000  0.4621820000000  0.4091880000000 1.0
C      1  0.6012780000000  0.4351440000000  0.5343440000000 1.0
C      1  0.4519250000000  0.4114800000000  0.4768870000000 1.0
C      1  0.5179380000000  0.4321890000000  0.4239010000000 1.0
C      1  0.4293410000000  0.4815850000000  0.5745200000000 1.0
C      1  0.4425800000000  0.4327200000000  0.5700810000000 1.0
C      1  0.4708690000000  0.5007500000000  0.5068960000000 1.0
C      1  0.4298720000000  0.5280790000000  0.5691530000000 1.0
C      1  0.5168490000000  0.4625610000000  0.5504870000000 1.0
C      1  0.4752620000000  0.5633140000000  0.4919100000000 1.0
C      1  0.5298230000000  0.4509820000000  0.5964030000000 1.0
C      1  0.5439440000000  0.4630900000000  0.5390260000000 1.0
C      1  0.4938050000000  0.5339520000000  0.4611380000000 1.0
C      1  0.5482920000000  0.5777660000000  0.5481830000000 1.0
C      1  0.4893080000000  0.6007700000000  0.4431610000000 1.0
C      1  0.5222830000000  0.5656890000000  0.4339380000000 1.0
C      1  0.4565760000000  0.5639070000000  0.5852330000000 1.0
C      1  0.5673710000000  0.4095510000000  0.5571520000000 1.0
C      1  0.6074210000000  0.5074670000000  0.4902760000000 1.0
C      1  0.5591270000000  0.5062250000000  0.5545290000000 1.0
C      1  0.4406700000000  0.5943050000000  0.4583220000000 1.0
C      1  0.5085460000000  0.4142860000000  0.5655350000000 1.0
C      1  0.4505700000000  0.4909000000000  0.5933010000000 1.0
C      1  0.5602880000000  0.4190610000000  0.5111100000000 1.0
C      1  0.5590500000000  0.4528590000000  0.5914420000000 1.0
C      1  0.5104050000000  0.5570020000000  0.6040580000000 1.0
C      1  0.5015120000000  0.4827770000000  0.4594970000000 1.0
C      1  0.3961780000000  0.5217220000000  0.4629730000000 1.0
C      1  0.5841930000000  0.4628330000000  0.4360100000000 1.0
END
