TITL C-950528-5794-126 -2.25042425197954e-07 125000 -546.517668797846 0 0 89 (C1) n - 1
REM
REM in /home/bkarasulu/work/CARBON/AIRSS/Generating-Clusters/EDIP-Nigel-Params/with-SteepDescent/Only-C1/SD-CG/HFTN-CG
REM
REM
REM
REM
REM
REM ./C.cell (11c1c37f851c82e70ff6c80c92926a4b)
REM
REM compiler GCC version 9.2.1 20190827 (Red Hat 9.2.1-1)
REM options -cpp -mtune=generic -march=x86-64 -g -O0 -fpre-include=/usr/include/finclude/math-vector-fortran.h
REM seed -503615451 1816105397 -548874810 -1016519891 -970610233 -1047555622 -1494602105 1846209105 1789355391 1068110955 1021241249 1375305406 653451645 598646364 1748382839 -1965434208 -994967769 -11934603 1359458900 -1383644961 1503187558 1242115041 65672830 55673458 1968494835 1432086278 1098912000 -66150329 -33349467 -1963517535 -286665897 42327637 -853302823
REM
CELL 1.54180   50.00000   50.00000   50.00000   90.00000   90.00000   90.00000
LATT -1
SFAC C  
C      1  0.4696580000000  0.4958150000000  0.4341300000000 1.0
C      1  0.4379240000000  0.4713310000000  0.4626860000000 1.0
C      1  0.4801370000000  0.5055200000000  0.5036540000000 1.0
C      1  0.4330310000000  0.5408190000000  0.5214560000000 1.0
C      1  0.5307530000000  0.5009900000000  0.4201980000000 1.0
C      1  0.5107920000000  0.4618410000000  0.4584570000000 1.0
C      1  0.4168570000000  0.4785930000000  0.4800540000000 1.0
C      1  0.5208710000000  0.5708120000000  0.4500450000000 1.0
C      1  0.5361390000000  0.5476970000000  0.4428950000000 1.0
C      1  0.5110010000000  0.5462720000000  0.4936120000000 1.0
C      1  0.4979340000000  0.4809120000000  0.5029620000000 1.0
C      1  0.4806620000000  0.4260310000000  0.5470950000000 1.0
C      1  0.5670930000000  0.5095750000000  0.4564030000000 1.0
C      1  0.4052130000000  0.4724380000000  0.5240480000000 1.0
C      1  0.5114080000000  0.4821250000000  0.4096910000000 1.0
C      1  0.4558900000000  0.4277890000000  0.5349990000000 1.0
C      1  0.5664070000000  0.5076400000000  0.5239440000000 1.0
C      1  0.4103670000000  0.4914220000000  0.5042140000000 1.0
C      1  0.4640640000000  0.5823180000000  0.5203450000000 1.0
C      1  0.5462010000000  0.4272840000000  0.5131820000000 1.0
C      1  0.4661520000000  0.5091010000000  0.4764840000000 1.0
C      1  0.5494210000000  0.4886600000000  0.4416030000000 1.0
C      1  0.4562320000000  0.4984460000000  0.5184860000000 1.0
C      1  0.4622770000000  0.5229630000000  0.4347160000000 1.0
C      1  0.4725160000000  0.5677410000000  0.4548390000000 1.0
C      1  0.4828140000000  0.5425250000000  0.4401900000000 1.0
C      1  0.5311930000000  0.4391380000000  0.4617720000000 1.0
C      1  0.5011270000000  0.4238400000000  0.5018440000000 1.0
C      1  0.4381160000000  0.5175600000000  0.4788400000000 1.0
C      1  0.4499780000000  0.5623150000000  0.5066290000000 1.0
C      1  0.4366730000000  0.5068080000000  0.5587920000000 1.0
C      1  0.4972210000000  0.5835800000000  0.4595130000000 1.0
C      1  0.5272970000000  0.4873190000000  0.4632130000000 1.0
C      1  0.5788000000000  0.4598080000000  0.5277220000000 1.0
C      1  0.5574000000000  0.5560300000000  0.5074560000000 1.0
C      1  0.4500620000000  0.5629900000000  0.4764470000000 1.0
C      1  0.5670380000000  0.5285200000000  0.5453740000000 1.0
C      1  0.5704280000000  0.4427470000000  0.5073200000000 1.0
C      1  0.4969520000000  0.4769560000000  0.5782060000000 1.0
C      1  0.4993390000000  0.5955440000000  0.4846280000000 1.0
C      1  0.4856430000000  0.5761070000000  0.5372640000000 1.0
C      1  0.4390350000000  0.5341820000000  0.5504710000000 1.0
C      1  0.4991570000000  0.5441150000000  0.4152590000000 1.0
C      1  0.5591200000000  0.5190620000000  0.5704830000000 1.0
C      1  0.5570190000000  0.4554080000000  0.4505160000000 1.0
C      1  0.4650590000000  0.5414390000000  0.5564430000000 1.0
C      1  0.4533510000000  0.4310570000000  0.4861610000000 1.0
C      1  0.4825220000000  0.4320990000000  0.5741160000000 1.0
C      1  0.4890960000000  0.4646640000000  0.4784730000000 1.0
C      1  0.5632720000000  0.4809790000000  0.5368520000000 1.0
C      1  0.4173120000000  0.4492850000000  0.5167450000000 1.0
C      1  0.5569220000000  0.5544820000000  0.5354640000000 1.0
C      1  0.5279900000000  0.4260530000000  0.4902500000000 1.0
C      1  0.5521310000000  0.5344380000000  0.4641980000000 1.0
C      1  0.4325300000000  0.5429070000000  0.4678040000000 1.0
C      1  0.4457180000000  0.4435030000000  0.4590700000000 1.0
C      1  0.5410230000000  0.5366770000000  0.4933770000000 1.0
C      1  0.5039380000000  0.4683970000000  0.5301370000000 1.0
C      1  0.4825990000000  0.4354140000000  0.4825020000000 1.0
C      1  0.5305630000000  0.4290270000000  0.5391970000000 1.0
C      1  0.5128470000000  0.5433520000000  0.5581260000000 1.0
C      1  0.4425670000000  0.4381750000000  0.5130320000000 1.0
C      1  0.4847070000000  0.4796000000000  0.5515320000000 1.0
C      1  0.5588670000000  0.4565700000000  0.4823240000000 1.0
C      1  0.5025940000000  0.4364120000000  0.5296260000000 1.0
C      1  0.4894410000000  0.4526850000000  0.5900610000000 1.0
C      1  0.5880110000000  0.5098790000000  0.5039540000000 1.0
C      1  0.5406030000000  0.4471980000000  0.5592530000000 1.0
C      1  0.5418280000000  0.5099320000000  0.5073910000000 1.0
C      1  0.4885400000000  0.5468050000000  0.5416090000000 1.0
C      1  0.5312300000000  0.5639670000000  0.5474410000000 1.0
C      1  0.4935360000000  0.5317190000000  0.5143810000000 1.0
C      1  0.4683040000000  0.4434580000000  0.4409240000000 1.0
C      1  0.5224670000000  0.5301360000000  0.4237580000000 1.0
C      1  0.5088430000000  0.5085060000000  0.4649580000000 1.0
C      1  0.4322040000000  0.5127560000000  0.5077730000000 1.0
C      1  0.4660480000000  0.4832570000000  0.4616430000000 1.0
C      1  0.5350850000000  0.4727020000000  0.5457960000000 1.0
C      1  0.4928760000000  0.4579430000000  0.4335300000000 1.0
C      1  0.4596090000000  0.4950530000000  0.5463410000000 1.0
C      1  0.5357730000000  0.5087810000000  0.5815790000000 1.0
C      1  0.4836490000000  0.4871780000000  0.4104260000000 1.0
C      1  0.5156980000000  0.5279470000000  0.5813700000000 1.0
C      1  0.5137610000000  0.5825560000000  0.5293380000000 1.0
C      1  0.5464100000000  0.4858320000000  0.4882270000000 1.0
C      1  0.5139840000000  0.5767230000000  0.4998960000000 1.0
C      1  0.5003220000000  0.5349600000000  0.4658620000000 1.0
C      1  0.5756520000000  0.4964420000000  0.4816870000000 1.0
C      1  0.5271040000000  0.4803690000000  0.5752370000000 1.0
END
