TITL C-950532-2784-544 -1.66725383287948e-06 125000 -1050.69188763866 0 0 168 (C1) n - 1
REM
REM in /home/bkarasulu/work/CARBON/AIRSS/Generating-Clusters/EDIP-Nigel-Params/with-SteepDescent/Only-C1/SD-CG/HFTN-CG
REM
REM
REM
REM
REM
REM ./C.cell (11c1c37f851c82e70ff6c80c92926a4b)
REM
REM compiler GCC version 9.2.1 20190827 (Red Hat 9.2.1-1)
REM options -cpp -mtune=generic -march=x86-64 -g -O0 -fpre-include=/usr/include/finclude/math-vector-fortran.h
REM seed -291482640 90034842 -363111540 1932547558 -1816223405 758896889 2129764825 -140636469 -181575988 1674168820 -389166384 -2082068194 13504348 263790993 20719910 427471567 -863601968 1908066143 814318429 1102961381 -1240869103 1108174437 1914097480 -848383944 -996613964 -809247161 1986213439 2090296989 1797452553 1564988570 760621167 2073126055 -1316438828
REM
CELL 1.54180   50.00000   50.00000   50.00000   90.00000   90.00000   90.00000
LATT -1
SFAC C  
C      1  0.4581210000000  0.3929520000000  0.4790480000000 1.0
C      1  0.5096280000000  0.4471100000000  0.5764790000000 1.0
C      1  0.5342930000000  0.5456210000000  0.5850600000000 1.0
C      1  0.5348310000000  0.5411940000000  0.4440450000000 1.0
C      1  0.4713450000000  0.5211880000000  0.6103190000000 1.0
C      1  0.5051100000000  0.4367960000000  0.4384130000000 1.0
C      1  0.4884090000000  0.4742340000000  0.4019340000000 1.0
C      1  0.3832420000000  0.5286880000000  0.5171500000000 1.0
C      1  0.4033600000000  0.5484560000000  0.4716110000000 1.0
C      1  0.4314270000000  0.5746560000000  0.5025670000000 1.0
C      1  0.5153980000000  0.4860270000000  0.4525770000000 1.0
C      1  0.5112670000000  0.5672250000000  0.5823590000000 1.0
C      1  0.4556270000000  0.4042060000000  0.5047370000000 1.0
C      1  0.4424400000000  0.5074120000000  0.4687620000000 1.0
C      1  0.5798270000000  0.4770470000000  0.5037110000000 1.0
C      1  0.5202940000000  0.5018460000000  0.6013870000000 1.0
C      1  0.5465970000000  0.5736340000000  0.5514530000000 1.0
C      1  0.4640860000000  0.5770140000000  0.5525380000000 1.0
C      1  0.5738060000000  0.5830280000000  0.5104120000000 1.0
C      1  0.4585740000000  0.5157510000000  0.4009250000000 1.0
C      1  0.5907570000000  0.5469390000000  0.5297400000000 1.0
C      1  0.4810960000000  0.5638620000000  0.5769380000000 1.0
C      1  0.3943280000000  0.4975680000000  0.4613250000000 1.0
C      1  0.5107550000000  0.4052220000000  0.5180070000000 1.0
C      1  0.5339990000000  0.4764500000000  0.4956150000000 1.0
C      1  0.5643330000000  0.4061820000000  0.4842860000000 1.0
C      1  0.5672170000000  0.4979560000000  0.5871360000000 1.0
C      1  0.6157520000000  0.5366550000000  0.4848440000000 1.0
C      1  0.5029970000000  0.4217340000000  0.5619430000000 1.0
C      1  0.4901250000000  0.5450220000000  0.5382730000000 1.0
C      1  0.5805660000000  0.5333470000000  0.5770300000000 1.0
C      1  0.4690960000000  0.5894040000000  0.4510250000000 1.0
C      1  0.4628130000000  0.4208880000000  0.4361860000000 1.0
C      1  0.5684330000000  0.5608740000000  0.4705710000000 1.0
C      1  0.5257850000000  0.5289070000000  0.4167860000000 1.0
C      1  0.5637970000000  0.5408040000000  0.5194620000000 1.0
C      1  0.5197160000000  0.4363150000000  0.4118620000000 1.0
C      1  0.5619480000000  0.5576370000000  0.5783510000000 1.0
C      1  0.6103310000000  0.5469280000000  0.5093950000000 1.0
C      1  0.4666780000000  0.5399620000000  0.4168160000000 1.0
C      1  0.5829330000000  0.4374050000000  0.5221500000000 1.0
C      1  0.4580400000000  0.5225340000000  0.5065970000000 1.0
C      1  0.4895940000000  0.4884210000000  0.4704350000000 1.0
C      1  0.5126410000000  0.4339170000000  0.5067970000000 1.0
C      1  0.5044220000000  0.5074880000000  0.4255510000000 1.0
C      1  0.4922980000000  0.4988860000000  0.6113620000000 1.0
C      1  0.4445520000000  0.5069940000000  0.6122430000000 1.0
C      1  0.5232330000000  0.4071590000000  0.5466300000000 1.0
C      1  0.4827670000000  0.5202300000000  0.5601800000000 1.0
C      1  0.4547130000000  0.5087040000000  0.5525410000000 1.0
C      1  0.4224260000000  0.4331650000000  0.4563460000000 1.0
C      1  0.4652270000000  0.4570510000000  0.3996040000000 1.0
C      1  0.4292170000000  0.5271770000000  0.4910620000000 1.0
C      1  0.5618030000000  0.4718270000000  0.4240790000000 1.0
C      1  0.5587730000000  0.5071700000000  0.5587760000000 1.0
C      1  0.4044970000000  0.4755530000000  0.4442000000000 1.0
C      1  0.4107790000000  0.5335210000000  0.5168130000000 1.0
C      1  0.5358160000000  0.5266480000000  0.5609940000000 1.0
C      1  0.4187220000000  0.4782300000000  0.5549530000000 1.0
C      1  0.5264010000000  0.3885790000000  0.4983560000000 1.0
C      1  0.5368500000000  0.4574050000000  0.5794610000000 1.0
C      1  0.4049810000000  0.5253440000000  0.4543480000000 1.0
C      1  0.4316490000000  0.4367560000000  0.5343060000000 1.0
C      1  0.4092030000000  0.4327540000000  0.4925190000000 1.0
C      1  0.5133690000000  0.5808510000000  0.4202750000000 1.0
C      1  0.4358930000000  0.4308290000000  0.4309050000000 1.0
C      1  0.5580680000000  0.4417050000000  0.5656100000000 1.0
C      1  0.5775760000000  0.4543450000000  0.5468700000000 1.0
C      1  0.4672380000000  0.5966630000000  0.5194590000000 1.0
C      1  0.5373520000000  0.4041300000000  0.4753090000000 1.0
C      1  0.5198460000000  0.5636850000000  0.4998620000000 1.0
C      1  0.4652130000000  0.4472460000000  0.5075020000000 1.0
C      1  0.5540100000000  0.4853910000000  0.5143350000000 1.0
C      1  0.5327610000000  0.4026310000000  0.4464200000000 1.0
C      1  0.5252280000000  0.5577250000000  0.4018300000000 1.0
C      1  0.4898840000000  0.5005360000000  0.5003950000000 1.0
C      1  0.4599160000000  0.5716590000000  0.5055810000000 1.0
C      1  0.5384510000000  0.4941960000000  0.4718150000000 1.0
C      1  0.5164090000000  0.5338260000000  0.4648360000000 1.0
C      1  0.5564160000000  0.5938580000000  0.5296360000000 1.0
C      1  0.5700330000000  0.4118800000000  0.5296460000000 1.0
C      1  0.4768460000000  0.4486350000000  0.4355430000000 1.0
C      1  0.4721880000000  0.4144360000000  0.4651280000000 1.0
C      1  0.4778460000000  0.4748320000000  0.6017610000000 1.0
C      1  0.5037670000000  0.4076460000000  0.4465500000000 1.0
C      1  0.5545470000000  0.5859610000000  0.4617670000000 1.0
C      1  0.3988660000000  0.4597250000000  0.5049230000000 1.0
C      1  0.5110030000000  0.5898840000000  0.5130100000000 1.0
C      1  0.4684830000000  0.4658400000000  0.5539240000000 1.0
C      1  0.4462720000000  0.4830860000000  0.5662920000000 1.0
C      1  0.4495510000000  0.4818560000000  0.5972390000000 1.0
C      1  0.4210870000000  0.5197810000000  0.6031670000000 1.0
C      1  0.5646320000000  0.5373750000000  0.4517100000000 1.0
C      1  0.4424580000000  0.4773060000000  0.4764800000000 1.0
C      1  0.4831050000000  0.5249970000000  0.4369170000000 1.0
C      1  0.4918810000000  0.4518810000000  0.5189060000000 1.0
C      1  0.5740700000000  0.5443640000000  0.4230440000000 1.0
C      1  0.5252060000000  0.4544300000000  0.4557930000000 1.0
C      1  0.5154060000000  0.5423100000000  0.5213160000000 1.0
C      1  0.5385360000000  0.4827780000000  0.4117010000000 1.0
C      1  0.5900590000000  0.4810030000000  0.5851930000000 1.0
C      1  0.5160340000000  0.5148740000000  0.5087020000000 1.0
C      1  0.5548010000000  0.5632990000000  0.4094480000000 1.0
C      1  0.5403500000000  0.5454220000000  0.5383840000000 1.0
C      1  0.5742280000000  0.4493040000000  0.4650550000000 1.0
C      1  0.4392780000000  0.4557330000000  0.4139880000000 1.0
C      1  0.4254380000000  0.5278050000000  0.4335210000000 1.0
C      1  0.5355500000000  0.5727320000000  0.4411040000000 1.0
C      1  0.4521740000000  0.5652730000000  0.4578500000000 1.0
C      1  0.4038540000000  0.5007100000000  0.5626940000000 1.0
C      1  0.5501750000000  0.4183030000000  0.5496610000000 1.0
C      1  0.4786340000000  0.4000250000000  0.5240010000000 1.0
C      1  0.5931430000000  0.4772500000000  0.5574670000000 1.0
C      1  0.4701520000000  0.5366400000000  0.5835290000000 1.0
C      1  0.5458970000000  0.4850230000000  0.5418830000000 1.0
C      1  0.6016310000000  0.5125840000000  0.4828840000000 1.0
C      1  0.4455180000000  0.4736100000000  0.5102090000000 1.0
C      1  0.4134030000000  0.5231940000000  0.5767050000000 1.0
C      1  0.5967420000000  0.5282770000000  0.5516820000000 1.0
C      1  0.5798200000000  0.5052240000000  0.4606410000000 1.0
C      1  0.5167710000000  0.4647850000000  0.4025840000000 1.0
C      1  0.5811390000000  0.4945490000000  0.4308240000000 1.0
C      1  0.5168150000000  0.4921300000000  0.5407360000000 1.0
C      1  0.3786540000000  0.5045080000000  0.5070370000000 1.0
C      1  0.4387220000000  0.5339010000000  0.5650620000000 1.0
C      1  0.5362190000000  0.6051920000000  0.5106000000000 1.0
C      1  0.5624670000000  0.3923750000000  0.5096420000000 1.0
C      1  0.5994620000000  0.4973520000000  0.5091640000000 1.0
C      1  0.4869740000000  0.5843330000000  0.4298270000000 1.0
C      1  0.4762580000000  0.4153260000000  0.5498900000000 1.0
C      1  0.5214350000000  0.5845690000000  0.5616950000000 1.0
C      1  0.3902230000000  0.4860110000000  0.4900520000000 1.0
C      1  0.4349860000000  0.5061620000000  0.4171640000000 1.0
C      1  0.4438490000000  0.5506610000000  0.4322480000000 1.0
C      1  0.4833330000000  0.5009990000000  0.3944640000000 1.0
C      1  0.5539270000000  0.4495220000000  0.4428710000000 1.0
C      1  0.5730390000000  0.4774220000000  0.4750250000000 1.0
C      1  0.5978030000000  0.5009010000000  0.5398390000000 1.0
C      1  0.4738280000000  0.4416740000000  0.4796890000000 1.0
C      1  0.5034840000000  0.4974310000000  0.5674450000000 1.0
C      1  0.5313240000000  0.5193120000000  0.4839660000000 1.0
C      1  0.4178380000000  0.4604450000000  0.4663600000000 1.0
C      1  0.5462060000000  0.4237390000000  0.4273550000000 1.0
C      1  0.4715240000000  0.5188500000000  0.4646410000000 1.0
C      1  0.4375540000000  0.5604280000000  0.5502130000000 1.0
C      1  0.5012470000000  0.5812960000000  0.5414700000000 1.0
C      1  0.4668780000000  0.5468480000000  0.5201700000000 1.0
C      1  0.5342010000000  0.4471350000000  0.4892640000000 1.0
C      1  0.4240500000000  0.4796580000000  0.4218210000000 1.0
C      1  0.4533380000000  0.5004730000000  0.5239620000000 1.0
C      1  0.5031450000000  0.5569130000000  0.4754990000000 1.0
C      1  0.5419930000000  0.4828670000000  0.5951030000000 1.0
C      1  0.4805040000000  0.6012100000000  0.4736980000000 1.0
C      1  0.4878920000000  0.6050320000000  0.5005500000000 1.0
C      1  0.4305410000000  0.4199400000000  0.5107350000000 1.0
C      1  0.5730760000000  0.5165780000000  0.4114370000000 1.0
C      1  0.4191050000000  0.5604460000000  0.5260060000000 1.0
C      1  0.4734830000000  0.5501120000000  0.4765960000000 1.0
C      1  0.4257690000000  0.5669850000000  0.4748250000000 1.0
C      1  0.5449280000000  0.5103040000000  0.4039700000000 1.0
C      1  0.4900100000000  0.4695510000000  0.5753990000000 1.0
C      1  0.4570260000000  0.4379730000000  0.5501740000000 1.0
C      1  0.5459210000000  0.6026780000000  0.4835180000000 1.0
C      1  0.5651340000000  0.4352380000000  0.4903670000000 1.0
C      1  0.5567970000000  0.5617040000000  0.4987990000000 1.0
C      1  0.4690030000000  0.4657440000000  0.4636310000000 1.0
C      1  0.4206330000000  0.4637060000000  0.5272450000000 1.0
C      1  0.4914510000000  0.4808080000000  0.5259260000000 1.0
END
