TITL C-950536-5891-673 0.00117448281771589 125000 -41.5370920089626 0 0 9 (C1) n - 1
REM
REM in /home/bkarasulu/work/CARBON/AIRSS/Generating-Clusters/EDIP-Nigel-Params/with-SteepDescent/Only-C1/SD-CG/HFTN-CG
REM
REM
REM
REM
REM
REM ./C.cell (11c1c37f851c82e70ff6c80c92926a4b)
REM
REM compiler GCC version 9.2.1 20190827 (Red Hat 9.2.1-1)
REM options -cpp -mtune=generic -march=x86-64 -g -O0 -fpre-include=/usr/include/finclude/math-vector-fortran.h
REM seed 70004685 -1524176767 1623806503 638364728 -580769516 850836345 -1960237337 898972987 211868787 118091512 1275108076 2145729651 469722268 -1302570038 221841679 -1538186351 21392584 -648921589 921748632 -1913919972 -1660985906 -498300855 233204921 -1788201075 -1466341109 1561171792 1036702842 -1624870092 -2072654684 1664456037 -243603852 904288239 -530045715
REM
CELL 1.54180   50.00000   50.00000   50.00000   90.00000   90.00000   90.00000
LATT -1
SFAC C  
C      1  0.5192270000000  0.5213060000000  0.5337190000000 1.0
C      1  0.5144190000000  0.4716650000000  0.4617780000000 1.0
C      1  0.5010560000000  0.5202340000000  0.4869440000000 1.0
C      1  0.4847700000000  0.4583310000000  0.5221620000000 1.0
C      1  0.4920690000000  0.4828040000000  0.5202000000000 1.0
C      1  0.4858890000000  0.5092500000000  0.4664690000000 1.0
C      1  0.5094880000000  0.4973090000000  0.4581040000000 1.0
C      1  0.4997330000000  0.5097090000000  0.5147380000000 1.0
C      1  0.4933500000000  0.5293920000000  0.5358860000000 1.0
END
