TITL C-951337-3020-425 -4.48740691354945e-06 125000 -341.871488697457 0 0 56 (C1) n - 1
REM
REM in /home/bkarasulu/work/CARBON/AIRSS/Generating-Clusters/EDIP-Nigel-Params/with-SteepDescent/Only-C1/SD-CG/HFTN-CG
REM
REM
REM
REM
REM
REM ./C.cell (11c1c37f851c82e70ff6c80c92926a4b)
REM
REM compiler GCC version 9.2.1 20190827 (Red Hat 9.2.1-1)
REM options -cpp -mtune=generic -march=x86-64 -g -O0 -fpre-include=/usr/include/finclude/math-vector-fortran.h
REM seed -452312495 -1056880633 808471083 1058241867 -2066753266 -1096292202 389181404 -1415700062 -506458034 2040850094 1078671524 870547748 -519281471 441311020 481525156 -226123740 1036817008 -113426530 -1770674991 172400508 -585682966 1128882380 -1421742226 1799474867 -527603720 1432162838 -2072583107 -445983317 1322689584 895837392 1635547576 210609492 -1206511510
REM
CELL 1.54180   50.00000   50.00000   50.00000   90.00000   90.00000   90.00000
LATT -1
SFAC C  
C      1  0.5352570000000  0.4416990000000  0.5199680000000 1.0
C      1  0.4776230000000  0.4873010000000  0.5186370000000 1.0
C      1  0.5213460000000  0.4595860000000  0.4477200000000 1.0
C      1  0.4339600000000  0.4524990000000  0.4942860000000 1.0
C      1  0.4888280000000  0.5119810000000  0.4398230000000 1.0
C      1  0.5185830000000  0.5115890000000  0.4356650000000 1.0
C      1  0.4910060000000  0.4357090000000  0.4937700000000 1.0
C      1  0.5026220000000  0.5443800000000  0.4671590000000 1.0
C      1  0.4530370000000  0.4889880000000  0.5004480000000 1.0
C      1  0.4672220000000  0.4857920000000  0.5460450000000 1.0
C      1  0.4864990000000  0.5012060000000  0.4686690000000 1.0
C      1  0.5796630000000  0.4945510000000  0.5022340000000 1.0
C      1  0.4633460000000  0.5703410000000  0.4939310000000 1.0
C      1  0.5091800000000  0.5713030000000  0.4801080000000 1.0
C      1  0.4764240000000  0.5394410000000  0.4488720000000 1.0
C      1  0.5312650000000  0.4996730000000  0.5492930000000 1.0
C      1  0.5575680000000  0.4911620000000  0.5447210000000 1.0
C      1  0.4757000000000  0.5346970000000  0.5510750000000 1.0
C      1  0.5539800000000  0.5505910000000  0.4929050000000 1.0
C      1  0.4890680000000  0.5794170000000  0.5002340000000 1.0
C      1  0.4499470000000  0.4561270000000  0.4709530000000 1.0
C      1  0.5633770000000  0.5003090000000  0.4790670000000 1.0
C      1  0.4524500000000  0.5304190000000  0.4667260000000 1.0
C      1  0.5681450000000  0.5469950000000  0.5169100000000 1.0
C      1  0.4771260000000  0.4449250000000  0.4698890000000 1.0
C      1  0.5224210000000  0.5153450000000  0.5007850000000 1.0
C      1  0.4454000000000  0.4792950000000  0.4548140000000 1.0
C      1  0.4500600000000  0.5461150000000  0.4919180000000 1.0
C      1  0.4317390000000  0.5056090000000  0.5148600000000 1.0
C      1  0.5442540000000  0.5247060000000  0.4808460000000 1.0
C      1  0.4556290000000  0.4346890000000  0.5311890000000 1.0
C      1  0.5034790000000  0.5681350000000  0.5237970000000 1.0
C      1  0.5490090000000  0.5402610000000  0.5351650000000 1.0
C      1  0.5368680000000  0.4512030000000  0.4714720000000 1.0
C      1  0.5024750000000  0.4710830000000  0.5143800000000 1.0
C      1  0.5210790000000  0.4369020000000  0.4936900000000 1.0
C      1  0.5216900000000  0.4868250000000  0.4986700000000 1.0
C      1  0.4764510000000  0.4267390000000  0.5160420000000 1.0
C      1  0.4508980000000  0.5439520000000  0.5414970000000 1.0
C      1  0.5463820000000  0.4751350000000  0.4885930000000 1.0
C      1  0.5281580000000  0.5323570000000  0.4552320000000 1.0
C      1  0.5003600000000  0.5420180000000  0.5364370000000 1.0
C      1  0.5321210000000  0.5690320000000  0.4977950000000 1.0
C      1  0.4410250000000  0.5337180000000  0.5169050000000 1.0
C      1  0.4380100000000  0.4814510000000  0.5373960000000 1.0
C      1  0.4368490000000  0.4537460000000  0.5227440000000 1.0
C      1  0.5128330000000  0.4774630000000  0.5504750000000 1.0
C      1  0.5621610000000  0.4521640000000  0.5189180000000 1.0
C      1  0.5284340000000  0.4852100000000  0.4383860000000 1.0
C      1  0.5251470000000  0.5243250000000  0.5319940000000 1.0
C      1  0.5189310000000  0.4504700000000  0.5426420000000 1.0
C      1  0.5720960000000  0.4782040000000  0.5245770000000 1.0
C      1  0.4574200000000  0.4999150000000  0.4721060000000 1.0
C      1  0.4943580000000  0.4519140000000  0.4490840000000 1.0
C      1  0.4974340000000  0.5227190000000  0.4874580000000 1.0
C      1  0.4736030000000  0.5086200000000  0.5610230000000 1.0
END
