TITL C-951341-1326-152 -3.74412892905044e-06 125000 -916.862169882334 0 0 146 (C1) n - 1
REM
REM in /home/bkarasulu/work/CARBON/AIRSS/Generating-Clusters/EDIP-Nigel-Params/with-SteepDescent/Only-C1/SD-CG/HFTN-CG
REM
REM
REM
REM
REM
REM ./C.cell (11c1c37f851c82e70ff6c80c92926a4b)
REM
REM compiler GCC version 9.2.1 20190827 (Red Hat 9.2.1-1)
REM options -cpp -mtune=generic -march=x86-64 -g -O0 -fpre-include=/usr/include/finclude/math-vector-fortran.h
REM seed -940478931 78210549 -968944526 630458730 1848520997 1961177523 1756162717 -990068604 -511258594 -1168278122 -1996041130 -542079259 -587281838 -390795621 -707480789 -2036410810 927017775 945564587 -1065275680 -1339462515 -676794807 -1749569137 1711962049 -547326997 1967557832 2065456545 785834062 -1815189696 -2088531766 588466932 1743263311 226643791 -242568291
REM
CELL 1.54180   50.00000   50.00000   50.00000   90.00000   90.00000   90.00000
LATT -1
SFAC C  
C      1  0.5733850000000  0.5071070000000  0.5531330000000 1.0
C      1  0.4499830000000  0.4626000000000  0.4086540000000 1.0
C      1  0.5349070000000  0.4622380000000  0.6000760000000 1.0
C      1  0.5008530000000  0.4468560000000  0.4823990000000 1.0
C      1  0.5010060000000  0.5401860000000  0.5108090000000 1.0
C      1  0.4750280000000  0.5914540000000  0.4504670000000 1.0
C      1  0.5053260000000  0.5381370000000  0.5591270000000 1.0
C      1  0.5552110000000  0.5186650000000  0.5744660000000 1.0
C      1  0.5105460000000  0.4843800000000  0.4566780000000 1.0
C      1  0.4061240000000  0.5355680000000  0.5331240000000 1.0
C      1  0.4917810000000  0.4237070000000  0.5612560000000 1.0
C      1  0.4692440000000  0.6002270000000  0.4786470000000 1.0
C      1  0.4837700000000  0.5642140000000  0.5943880000000 1.0
C      1  0.4683860000000  0.4585980000000  0.5183920000000 1.0
C      1  0.4618360000000  0.4194900000000  0.4891760000000 1.0
C      1  0.5224050000000  0.5594450000000  0.5728000000000 1.0
C      1  0.5387530000000  0.5752560000000  0.5296210000000 1.0
C      1  0.4415300000000  0.4348460000000  0.5336560000000 1.0
C      1  0.5910470000000  0.4569030000000  0.4604210000000 1.0
C      1  0.5921260000000  0.4695130000000  0.5262130000000 1.0
C      1  0.5273510000000  0.5527810000000  0.5103690000000 1.0
C      1  0.5753500000000  0.4789260000000  0.5477740000000 1.0
C      1  0.4938200000000  0.4158430000000  0.4517200000000 1.0
C      1  0.5074910000000  0.4463610000000  0.4192520000000 1.0
C      1  0.4582570000000  0.4955970000000  0.4618710000000 1.0
C      1  0.5142260000000  0.4427430000000  0.5093620000000 1.0
C      1  0.5809260000000  0.5512190000000  0.5303230000000 1.0
C      1  0.4147220000000  0.4744680000000  0.5338940000000 1.0
C      1  0.5925920000000  0.5136740000000  0.5060140000000 1.0
C      1  0.5208380000000  0.5034940000000  0.5971390000000 1.0
C      1  0.4914160000000  0.5317400000000  0.4820880000000 1.0
C      1  0.5227910000000  0.4572080000000  0.4621410000000 1.0
C      1  0.4749590000000  0.5490770000000  0.4642120000000 1.0
C      1  0.4240350000000  0.5406320000000  0.5098840000000 1.0
C      1  0.4305780000000  0.5700640000000  0.4771030000000 1.0
C      1  0.4216410000000  0.5148420000000  0.5754920000000 1.0
C      1  0.4493270000000  0.4503440000000  0.5577640000000 1.0
C      1  0.4312350000000  0.4505770000000  0.4519530000000 1.0
C      1  0.4163130000000  0.4333680000000  0.4727970000000 1.0
C      1  0.5211030000000  0.5831280000000  0.5549060000000 1.0
C      1  0.4215890000000  0.5364270000000  0.5580600000000 1.0
C      1  0.5240100000000  0.4127380000000  0.4495770000000 1.0
C      1  0.4405340000000  0.4946700000000  0.5736180000000 1.0
C      1  0.5439010000000  0.4742590000000  0.4055580000000 1.0
C      1  0.4847370000000  0.5551450000000  0.5293920000000 1.0
C      1  0.4661340000000  0.4940010000000  0.5869260000000 1.0
C      1  0.5154530000000  0.5922090000000  0.4761480000000 1.0
C      1  0.5438280000000  0.5831830000000  0.4755250000000 1.0
C      1  0.5222920000000  0.5666760000000  0.4373510000000 1.0
C      1  0.4097240000000  0.4452150000000  0.4965640000000 1.0
C      1  0.5310200000000  0.4073470000000  0.5391740000000 1.0
C      1  0.5104590000000  0.4063130000000  0.4951110000000 1.0
C      1  0.5210800000000  0.5321160000000  0.4645160000000 1.0
C      1  0.5417260000000  0.4564700000000  0.5080310000000 1.0
C      1  0.5453310000000  0.5616510000000  0.4550600000000 1.0
C      1  0.5595660000000  0.5810490000000  0.4997450000000 1.0
C      1  0.5644780000000  0.4361490000000  0.5167390000000 1.0
C      1  0.5503070000000  0.5105530000000  0.4950020000000 1.0
C      1  0.4628520000000  0.5357360000000  0.4011930000000 1.0
C      1  0.5299510000000  0.4409080000000  0.4376410000000 1.0
C      1  0.4104030000000  0.5574690000000  0.4910640000000 1.0
C      1  0.5045190000000  0.5143060000000  0.5228220000000 1.0
C      1  0.5074220000000  0.5325520000000  0.4136790000000 1.0
C      1  0.4378290000000  0.4126870000000  0.4722690000000 1.0
C      1  0.5344030000000  0.4038400000000  0.4765840000000 1.0
C      1  0.4753780000000  0.5047260000000  0.4847820000000 1.0
C      1  0.5598340000000  0.5624520000000  0.5466840000000 1.0
C      1  0.4885920000000  0.5229460000000  0.3927020000000 1.0
C      1  0.5617350000000  0.4131110000000  0.4856420000000 1.0
C      1  0.4594150000000  0.4149920000000  0.5196020000000 1.0
C      1  0.5376530000000  0.4474600000000  0.5746610000000 1.0
C      1  0.5429290000000  0.5406980000000  0.4875830000000 1.0
C      1  0.4831600000000  0.4424830000000  0.4373380000000 1.0
C      1  0.5486440000000  0.4913620000000  0.6005720000000 1.0
C      1  0.5009430000000  0.4768740000000  0.5516970000000 1.0
C      1  0.4392880000000  0.5958700000000  0.5441840000000 1.0
C      1  0.4447030000000  0.5910540000000  0.4919980000000 1.0
C      1  0.4583520000000  0.4630240000000  0.4606300000000 1.0
C      1  0.4594650000000  0.4387340000000  0.4198540000000 1.0
C      1  0.5075910000000  0.4757580000000  0.6021210000000 1.0
C      1  0.4873560000000  0.5347680000000  0.4380970000000 1.0
C      1  0.4512680000000  0.5531010000000  0.5238350000000 1.0
C      1  0.5218140000000  0.4244940000000  0.5626200000000 1.0
C      1  0.4405740000000  0.4783840000000  0.5495110000000 1.0
C      1  0.4759190000000  0.5369290000000  0.5922220000000 1.0
C      1  0.5474180000000  0.4625250000000  0.4782220000000 1.0
C      1  0.5724990000000  0.4727880000000  0.4418380000000 1.0
C      1  0.4520290000000  0.5841650000000  0.5206630000000 1.0
C      1  0.5682940000000  0.4414160000000  0.4730190000000 1.0
C      1  0.4742610000000  0.4454590000000  0.5730380000000 1.0
C      1  0.4831780000000  0.4074810000000  0.5368290000000 1.0
C      1  0.5856360000000  0.5230660000000  0.5324340000000 1.0
C      1  0.4492080000000  0.5143140000000  0.4178630000000 1.0
C      1  0.4720020000000  0.5073800000000  0.4373760000000 1.0
C      1  0.4713230000000  0.5135000000000  0.6069390000000 1.0
C      1  0.5257770000000  0.5108220000000  0.5675970000000 1.0
C      1  0.5602720000000  0.4588940000000  0.5614900000000 1.0
C      1  0.5192820000000  0.4981480000000  0.5049940000000 1.0
C      1  0.4856590000000  0.4057970000000  0.4783050000000 1.0
C      1  0.5402270000000  0.4833850000000  0.5214040000000 1.0
C      1  0.4702540000000  0.5600420000000  0.4144870000000 1.0
C      1  0.5606310000000  0.4971690000000  0.4043230000000 1.0
C      1  0.4478820000000  0.5778440000000  0.5645110000000 1.0
C      1  0.4918820000000  0.4850760000000  0.4319570000000 1.0
C      1  0.5922100000000  0.4420120000000  0.5230270000000 1.0
C      1  0.5309470000000  0.5051070000000  0.4553260000000 1.0
C      1  0.4953250000000  0.4550060000000  0.5301100000000 1.0
C      1  0.5079690000000  0.3972080000000  0.5236600000000 1.0
C      1  0.4480270000000  0.5493530000000  0.5539160000000 1.0
C      1  0.5510790000000  0.5494800000000  0.5719270000000 1.0
C      1  0.4397320000000  0.4263840000000  0.4362770000000 1.0
C      1  0.5863750000000  0.5346730000000  0.4866340000000 1.0
C      1  0.6044760000000  0.4733160000000  0.4787960000000 1.0
C      1  0.4619960000000  0.4874960000000  0.5289580000000 1.0
C      1  0.5539830000000  0.4556260000000  0.4255780000000 1.0
C      1  0.4459520000000  0.5551000000000  0.4556550000000 1.0
C      1  0.5047590000000  0.5868780000000  0.4495090000000 1.0
C      1  0.4871510000000  0.4723760000000  0.5799040000000 1.0
C      1  0.5207310000000  0.5571860000000  0.4107940000000 1.0
C      1  0.5556190000000  0.4092270000000  0.5235010000000 1.0
C      1  0.5970910000000  0.4854850000000  0.5028330000000 1.0
C      1  0.4932430000000  0.5924470000000  0.5518210000000 1.0
C      1  0.4936240000000  0.5990710000000  0.4958820000000 1.0
C      1  0.4325180000000  0.5290640000000  0.4446240000000 1.0
C      1  0.5919910000000  0.5323010000000  0.4595390000000 1.0
C      1  0.5138520000000  0.4707950000000  0.4033000000000 1.0
C      1  0.4551290000000  0.4886390000000  0.4006290000000 1.0
C      1  0.5806620000000  0.4952220000000  0.4242160000000 1.0
C      1  0.3892990000000  0.5136490000000  0.5281890000000 1.0
C      1  0.4284440000000  0.5119640000000  0.4984340000000 1.0
C      1  0.4556840000000  0.5049130000000  0.5069310000000 1.0
C      1  0.4550360000000  0.5745660000000  0.4339600000000 1.0
C      1  0.4831840000000  0.5868550000000  0.5235810000000 1.0
C      1  0.5312420000000  0.4833600000000  0.5512230000000 1.0
C      1  0.5897540000000  0.5179870000000  0.4370710000000 1.0
C      1  0.4840370000000  0.4936700000000  0.3946860000000 1.0
C      1  0.4736230000000  0.5308100000000  0.5639380000000 1.0
C      1  0.4858470000000  0.5018040000000  0.5425980000000 1.0
C      1  0.4750440000000  0.5833770000000  0.5746660000000 1.0
C      1  0.4984220000000  0.4861210000000  0.4855680000000 1.0
C      1  0.4062490000000  0.4955330000000  0.5143500000000 1.0
C      1  0.5539760000000  0.4932750000000  0.4700050000000 1.0
C      1  0.4699120000000  0.4495060000000  0.4870310000000 1.0
C      1  0.4169530000000  0.4476690000000  0.5226190000000 1.0
C      1  0.5800250000000  0.5595510000000  0.5019510000000 1.0
C      1  0.4307290000000  0.5083020000000  0.4662540000000 1.0
END
