TITL C-951348-1603-303 -5.77034031516728e-07 125000 -388.0972425936 0 0 64 (C1) n - 1
REM
REM in /home/bkarasulu/work/CARBON/AIRSS/Generating-Clusters/EDIP-Nigel-Params/with-SteepDescent/Only-C1/SD-CG/HFTN-CG
REM
REM
REM
REM
REM
REM ./C.cell (11c1c37f851c82e70ff6c80c92926a4b)
REM
REM compiler GCC version 9.2.1 20190827 (Red Hat 9.2.1-1)
REM options -cpp -mtune=generic -march=x86-64 -g -O0 -fpre-include=/usr/include/finclude/math-vector-fortran.h
REM seed -1346019978 1993042468 -1345282518 1589485076 600383476 664589034 -418153326 1055467268 -594661072 -941483998 -261779722 547227041 178741914 364301996 1548328958 2133253013 -557361217 1712239644 1692009638 834588469 818054167 -1595543439 1786405902 2073834495 -29064624 340920281 -2085495544 1875781642 1444779379 1810838989 -1019071344 -1919527870 1757492549
REM
CELL 1.54180   50.00000   50.00000   50.00000   90.00000   90.00000   90.00000
LATT -1
SFAC C  
C      1  0.5406630000000  0.4943970000000  0.4892510000000 1.0
C      1  0.4701340000000  0.5730410000000  0.4783230000000 1.0
C      1  0.5257970000000  0.5682970000000  0.5146050000000 1.0
C      1  0.5173370000000  0.4796030000000  0.5345550000000 1.0
C      1  0.4899930000000  0.4327640000000  0.4653750000000 1.0
C      1  0.4275860000000  0.4846570000000  0.5203270000000 1.0
C      1  0.4815640000000  0.4890000000000  0.4287930000000 1.0
C      1  0.4666070000000  0.5081750000000  0.4443370000000 1.0
C      1  0.4500440000000  0.4411280000000  0.5112960000000 1.0
C      1  0.5009240000000  0.5706530000000  0.4676140000000 1.0
C      1  0.5355860000000  0.5217120000000  0.5506700000000 1.0
C      1  0.5345930000000  0.4863390000000  0.5804970000000 1.0
C      1  0.4772240000000  0.4561830000000  0.5508900000000 1.0
C      1  0.4614050000000  0.4797450000000  0.4845290000000 1.0
C      1  0.4694480000000  0.4793120000000  0.5356150000000 1.0
C      1  0.4379300000000  0.5094840000000  0.5292330000000 1.0
C      1  0.4553420000000  0.5261200000000  0.5102890000000 1.0
C      1  0.4962390000000  0.4276340000000  0.4930640000000 1.0
C      1  0.5081090000000  0.5244340000000  0.5627410000000 1.0
C      1  0.4752140000000  0.4614050000000  0.4273040000000 1.0
C      1  0.5155570000000  0.5650630000000  0.5430730000000 1.0
C      1  0.4463660000000  0.4628410000000  0.4655260000000 1.0
C      1  0.5412770000000  0.4956420000000  0.5220020000000 1.0
C      1  0.4512200000000  0.4703450000000  0.5128020000000 1.0
C      1  0.5243040000000  0.4517110000000  0.5333950000000 1.0
C      1  0.5303830000000  0.5412060000000  0.5038050000000 1.0
C      1  0.4447580000000  0.5270930000000  0.4820160000000 1.0
C      1  0.5001230000000  0.4599830000000  0.4568410000000 1.0
C      1  0.4660570000000  0.5433990000000  0.5498370000000 1.0
C      1  0.5306120000000  0.4615980000000  0.4518650000000 1.0
C      1  0.4566820000000  0.5487380000000  0.4655580000000 1.0
C      1  0.5366640000000  0.4814050000000  0.4326940000000 1.0
C      1  0.5417050000000  0.5507620000000  0.5455560000000 1.0
C      1  0.4761130000000  0.4306560000000  0.5147610000000 1.0
C      1  0.4603290000000  0.4466330000000  0.4469830000000 1.0
C      1  0.4749650000000  0.5361040000000  0.4460160000000 1.0
C      1  0.5598250000000  0.5149110000000  0.4766540000000 1.0
C      1  0.4542500000000  0.5536460000000  0.5235000000000 1.0
C      1  0.4858100000000  0.5172310000000  0.5133660000000 1.0
C      1  0.5547480000000  0.5401960000000  0.4891950000000 1.0
C      1  0.5059150000000  0.5267320000000  0.4941320000000 1.0
C      1  0.5522040000000  0.5295200000000  0.4519480000000 1.0
C      1  0.5470680000000  0.4431270000000  0.4965830000000 1.0
C      1  0.5724560000000  0.4886120000000  0.5537970000000 1.0
C      1  0.4927710000000  0.4780360000000  0.4806150000000 1.0
C      1  0.4918850000000  0.4878640000000  0.5189030000000 1.0
C      1  0.4576870000000  0.5125720000000  0.5528980000000 1.0
C      1  0.4846550000000  0.4314370000000  0.5416100000000 1.0
C      1  0.4477510000000  0.5016370000000  0.4661800000000 1.0
C      1  0.5117380000000  0.4805600000000  0.5646510000000 1.0
C      1  0.5229310000000  0.5043050000000  0.4239210000000 1.0
C      1  0.5517560000000  0.4524570000000  0.5248290000000 1.0
C      1  0.5259810000000  0.5293160000000  0.4397180000000 1.0
C      1  0.4990160000000  0.4999330000000  0.4100760000000 1.0
C      1  0.4682820000000  0.5742640000000  0.5086420000000 1.0
C      1  0.5127430000000  0.5010420000000  0.4820710000000 1.0
C      1  0.4915380000000  0.5012920000000  0.5673390000000 1.0
C      1  0.5041280000000  0.5811040000000  0.4969760000000 1.0
C      1  0.5026080000000  0.5437350000000  0.4533240000000 1.0
C      1  0.5241810000000  0.4262040000000  0.4965180000000 1.0
C      1  0.4954030000000  0.5440580000000  0.5472170000000 1.0
C      1  0.5459360000000  0.4662290000000  0.4773830000000 1.0
C      1  0.5650870000000  0.4793990000000  0.5283460000000 1.0
C      1  0.5527950000000  0.5033180000000  0.5675640000000 1.0
END
