TITL C-951334-9093-173 -1.30728423076477e-06 125000 -424.828244332913 0 0 70 (C1) n - 1
REM
REM in /home/bkarasulu/work/CARBON/AIRSS/Generating-Clusters/EDIP-Nigel-Params/with-SteepDescent/Only-C1/SD-CG/HFTN-CG
REM
REM
REM
REM
REM
REM ./C.cell (11c1c37f851c82e70ff6c80c92926a4b)
REM
REM compiler GCC version 9.2.1 20190827 (Red Hat 9.2.1-1)
REM options -cpp -mtune=generic -march=x86-64 -g -O0 -fpre-include=/usr/include/finclude/math-vector-fortran.h
REM seed 1386765375 -1428009811 -1734970804 1088229023 1161561191 1725578847 -1354955051 1520218052 34635377 -539763133 -1973568592 -1301084774 -805591569 -417542227 -1571887353 905501677 -2106935434 1933255398 -325983489 1776328519 -2081108508 1788908522 362278187 -84654912 -436337733 -532964303 -207830469 -1826609057 668087165 1740519122 1718931766 -1353849727 -2043623382
REM
CELL 1.54180   50.00000   50.00000   50.00000   90.00000   90.00000   90.00000
LATT -1
SFAC C  
C      1  0.5309430000000  0.4443330000000  0.5533640000000 1.0
C      1  0.5266180000000  0.5367280000000  0.5543620000000 1.0
C      1  0.5591640000000  0.4512040000000  0.4922240000000 1.0
C      1  0.4945930000000  0.5369830000000  0.5498670000000 1.0
C      1  0.4349820000000  0.5350540000000  0.4905020000000 1.0
C      1  0.4236220000000  0.4693690000000  0.4854220000000 1.0
C      1  0.4749420000000  0.4643390000000  0.4340850000000 1.0
C      1  0.5332280000000  0.5072100000000  0.4751910000000 1.0
C      1  0.4815880000000  0.5123430000000  0.4433260000000 1.0
C      1  0.5309760000000  0.4418260000000  0.4950290000000 1.0
C      1  0.4534590000000  0.5211960000000  0.4481850000000 1.0
C      1  0.4463920000000  0.4919820000000  0.5520980000000 1.0
C      1  0.5163600000000  0.4571240000000  0.4506120000000 1.0
C      1  0.5027920000000  0.5163170000000  0.4761400000000 1.0
C      1  0.4909600000000  0.4734470000000  0.5267710000000 1.0
C      1  0.5605790000000  0.5291280000000  0.4898110000000 1.0
C      1  0.4518980000000  0.5196710000000  0.5612470000000 1.0
C      1  0.4730590000000  0.4901990000000  0.5101620000000 1.0
C      1  0.5146080000000  0.5504400000000  0.4507170000000 1.0
C      1  0.5550840000000  0.4983880000000  0.5255020000000 1.0
C      1  0.5105520000000  0.4603670000000  0.4809200000000 1.0
C      1  0.5096800000000  0.4587700000000  0.5669200000000 1.0
C      1  0.4832780000000  0.5593030000000  0.5072510000000 1.0
C      1  0.4752200000000  0.4420370000000  0.4999400000000 1.0
C      1  0.4512280000000  0.4452090000000  0.5163220000000 1.0
C      1  0.4343670000000  0.5010020000000  0.4511880000000 1.0
C      1  0.4995410000000  0.5335600000000  0.5014450000000 1.0
C      1  0.4471270000000  0.5386760000000  0.5383060000000 1.0
C      1  0.4795100000000  0.5234770000000  0.5715700000000 1.0
C      1  0.4323790000000  0.4674510000000  0.5117290000000 1.0
C      1  0.4369390000000  0.4757220000000  0.4621690000000 1.0
C      1  0.5230880000000  0.5170810000000  0.4220940000000 1.0
C      1  0.5368210000000  0.5111270000000  0.5675910000000 1.0
C      1  0.4613800000000  0.4713920000000  0.5641520000000 1.0
C      1  0.5242730000000  0.4852990000000  0.4964000000000 1.0
C      1  0.5118290000000  0.4930020000000  0.5313490000000 1.0
C      1  0.5171330000000  0.4813580000000  0.4338200000000 1.0
C      1  0.5143970000000  0.4898860000000  0.5643750000000 1.0
C      1  0.4895900000000  0.4883910000000  0.4272510000000 1.0
C      1  0.4755050000000  0.4303080000000  0.5423850000000 1.0
C      1  0.5631040000000  0.5108710000000  0.4446540000000 1.0
C      1  0.5536520000000  0.4620060000000  0.5508350000000 1.0
C      1  0.5418070000000  0.5539430000000  0.4436930000000 1.0
C      1  0.5015230000000  0.5315420000000  0.4343520000000 1.0
C      1  0.5659650000000  0.4788980000000  0.4828770000000 1.0
C      1  0.4989160000000  0.5685720000000  0.4663760000000 1.0
C      1  0.5589040000000  0.4858890000000  0.4556780000000 1.0
C      1  0.4920590000000  0.5002170000000  0.5793660000000 1.0
C      1  0.4515470000000  0.5414430000000  0.4689840000000 1.0
C      1  0.5427640000000  0.5457340000000  0.5328060000000 1.0
C      1  0.5146130000000  0.5827580000000  0.4869040000000 1.0
C      1  0.4983670000000  0.5844130000000  0.5094300000000 1.0
C      1  0.5400850000000  0.5723710000000  0.4927220000000 1.0
C      1  0.4832850000000  0.4576600000000  0.5512120000000 1.0
C      1  0.4937090000000  0.4419640000000  0.4400700000000 1.0
C      1  0.4447470000000  0.4930570000000  0.5219180000000 1.0
C      1  0.4913520000000  0.4248240000000  0.5179650000000 1.0
C      1  0.4840150000000  0.4888350000000  0.4806980000000 1.0
C      1  0.4727700000000  0.5549830000000  0.5354290000000 1.0
C      1  0.4700540000000  0.5637240000000  0.4710530000000 1.0
C      1  0.5486770000000  0.4707300000000  0.5232370000000 1.0
C      1  0.5600580000000  0.4998990000000  0.5542370000000 1.0
C      1  0.4361830000000  0.5223830000000  0.5154670000000 1.0
C      1  0.4656380000000  0.4685510000000  0.4621320000000 1.0
C      1  0.5518120000000  0.5509960000000  0.5065870000000 1.0
C      1  0.5478730000000  0.5294210000000  0.4303960000000 1.0
C      1  0.4726270000000  0.4409350000000  0.4716110000000 1.0
C      1  0.5202290000000  0.4312770000000  0.5206860000000 1.0
C      1  0.5687780000000  0.5035060000000  0.5010070000000 1.0
C      1  0.4952090000000  0.5179070000000  0.5258200000000 1.0
END
