TITL C-950521-2237-481 -1.94745460715813e-06 125000 -978.652037826802 0 0 156 (C1) n - 1
REM
REM in /home/bkarasulu/work/CARBON/AIRSS/Generating-Clusters/EDIP-Nigel-Params/with-SteepDescent/Only-C1/SD-CG/HFTN-CG
REM
REM
REM
REM
REM
REM ./C.cell (11c1c37f851c82e70ff6c80c92926a4b)
REM
REM compiler GCC version 9.2.1 20190827 (Red Hat 9.2.1-1)
REM options -cpp -mtune=generic -march=x86-64 -g -O0 -fpre-include=/usr/include/finclude/math-vector-fortran.h
REM seed -966262169 -1902169066 63621318 1187297597 -1292201156 1834859449 -283024605 2086642400 -556385291 -1381580892 -63051139 -1544695683 1166794581 216075142 -1497288224 -1940599243 -2117549731 -2055340034 -127974689 251680331 1864571829 -1586839612 414384263 -1329529405 46190688 -1388196317 1571694058 1117342432 -1023194942 1019818396 -747634411 -1951359637 -598070545
REM
CELL 1.54180   50.00000   50.00000   50.00000   90.00000   90.00000   90.00000
LATT -1
SFAC C  
C      1  0.5316930000000  0.4425350000000  0.4289590000000 1.0
C      1  0.4935750000000  0.5538400000000  0.5982160000000 1.0
C      1  0.5266610000000  0.4529380000000  0.5265770000000 1.0
C      1  0.5044190000000  0.4992960000000  0.4549940000000 1.0
C      1  0.5335980000000  0.4694240000000  0.4751950000000 1.0
C      1  0.5199700000000  0.4719270000000  0.5956840000000 1.0
C      1  0.4497280000000  0.5345620000000  0.5903020000000 1.0
C      1  0.5350190000000  0.5226020000000  0.4056910000000 1.0
C      1  0.5183830000000  0.5215990000000  0.5244160000000 1.0
C      1  0.4747000000000  0.5357090000000  0.4606900000000 1.0
C      1  0.4581230000000  0.5261990000000  0.4088820000000 1.0
C      1  0.5601810000000  0.5138750000000  0.4935200000000 1.0
C      1  0.5663480000000  0.4534930000000  0.5462160000000 1.0
C      1  0.5894200000000  0.4633000000000  0.5305000000000 1.0
C      1  0.4771170000000  0.5312480000000  0.5995820000000 1.0
C      1  0.4503440000000  0.5566540000000  0.5718140000000 1.0
C      1  0.5388630000000  0.5502430000000  0.4073010000000 1.0
C      1  0.4866410000000  0.6075410000000  0.4763410000000 1.0
C      1  0.5335260000000  0.5866840000000  0.4724050000000 1.0
C      1  0.4093730000000  0.5099070000000  0.5698630000000 1.0
C      1  0.5599950000000  0.4718510000000  0.5693720000000 1.0
C      1  0.5897220000000  0.5101620000000  0.4910740000000 1.0
C      1  0.4305030000000  0.4840040000000  0.5896820000000 1.0
C      1  0.5656520000000  0.5527510000000  0.4480450000000 1.0
C      1  0.4499870000000  0.4263370000000  0.4559060000000 1.0
C      1  0.5159410000000  0.4452800000000  0.4790590000000 1.0
C      1  0.6019410000000  0.5300490000000  0.4716620000000 1.0
C      1  0.5202940000000  0.4191640000000  0.5785580000000 1.0
C      1  0.4525540000000  0.5962150000000  0.4443720000000 1.0
C      1  0.4205150000000  0.4308610000000  0.4632780000000 1.0
C      1  0.4314170000000  0.4405750000000  0.5115770000000 1.0
C      1  0.4691730000000  0.4820540000000  0.3923850000000 1.0
C      1  0.4765950000000  0.5623690000000  0.4719120000000 1.0
C      1  0.4518660000000  0.5145770000000  0.4655940000000 1.0
C      1  0.4894500000000  0.4797050000000  0.4700020000000 1.0
C      1  0.4951770000000  0.4331220000000  0.4625050000000 1.0
C      1  0.4429430000000  0.5135650000000  0.4956440000000 1.0
C      1  0.4189150000000  0.4628910000000  0.4626940000000 1.0
C      1  0.5938340000000  0.4343470000000  0.4902200000000 1.0
C      1  0.4838350000000  0.4671770000000  0.5207840000000 1.0
C      1  0.5464380000000  0.4600050000000  0.5919140000000 1.0
C      1  0.5510490000000  0.4168750000000  0.5049120000000 1.0
C      1  0.4568950000000  0.4699940000000  0.4305250000000 1.0
C      1  0.4384190000000  0.4834720000000  0.5026130000000 1.0
C      1  0.5598470000000  0.4660180000000  0.4876150000000 1.0
C      1  0.5770080000000  0.5378300000000  0.5410470000000 1.0
C      1  0.4194740000000  0.5651670000000  0.4551790000000 1.0
C      1  0.5163350000000  0.6038400000000  0.5168740000000 1.0
C      1  0.5727240000000  0.4643500000000  0.4406010000000 1.0
C      1  0.5086660000000  0.5918880000000  0.4901770000000 1.0
C      1  0.5446580000000  0.5954650000000  0.5186690000000 1.0
C      1  0.6049090000000  0.4530300000000  0.5080200000000 1.0
C      1  0.5324640000000  0.4925510000000  0.4563740000000 1.0
C      1  0.5785170000000  0.5159470000000  0.5843900000000 1.0
C      1  0.4385540000000  0.5439690000000  0.4173650000000 1.0
C      1  0.5226270000000  0.5636840000000  0.4255820000000 1.0
C      1  0.4579470000000  0.4398060000000  0.4298850000000 1.0
C      1  0.5657240000000  0.4355740000000  0.4842440000000 1.0
C      1  0.5553960000000  0.5880190000000  0.4922220000000 1.0
C      1  0.4911430000000  0.4743530000000  0.4096920000000 1.0
C      1  0.5254160000000  0.4096770000000  0.5514140000000 1.0
C      1  0.4934060000000  0.4020040000000  0.4660730000000 1.0
C      1  0.4665170000000  0.4125680000000  0.5103980000000 1.0
C      1  0.5508010000000  0.5064180000000  0.4247650000000 1.0
C      1  0.3968810000000  0.4915430000000  0.4774970000000 1.0
C      1  0.5303820000000  0.5148200000000  0.5746270000000 1.0
C      1  0.5121520000000  0.5630720000000  0.5795940000000 1.0
C      1  0.4627290000000  0.3988700000000  0.4638540000000 1.0
C      1  0.5943280000000  0.5095700000000  0.4496390000000 1.0
C      1  0.5383390000000  0.4617420000000  0.4071120000000 1.0
C      1  0.4312830000000  0.5523720000000  0.5390510000000 1.0
C      1  0.4817700000000  0.5146800000000  0.5593030000000 1.0
C      1  0.4711730000000  0.5985870000000  0.5289910000000 1.0
C      1  0.5849400000000  0.5551380000000  0.4702460000000 1.0
C      1  0.5524120000000  0.5770840000000  0.5583750000000 1.0
C      1  0.5833590000000  0.4827860000000  0.4618310000000 1.0
C      1  0.4686580000000  0.5730950000000  0.5134640000000 1.0
C      1  0.5424870000000  0.4325370000000  0.5895360000000 1.0
C      1  0.5061460000000  0.4682460000000  0.5434430000000 1.0
C      1  0.5442920000000  0.4276730000000  0.5340810000000 1.0
C      1  0.5472890000000  0.5689390000000  0.5313420000000 1.0
C      1  0.5359150000000  0.5618630000000  0.4534910000000 1.0
C      1  0.4355250000000  0.5107910000000  0.5809240000000 1.0
C      1  0.4249400000000  0.4430870000000  0.5408110000000 1.0
C      1  0.4202030000000  0.5427040000000  0.4383510000000 1.0
C      1  0.4652050000000  0.5223190000000  0.5148550000000 1.0
C      1  0.4610770000000  0.4399630000000  0.5065280000000 1.0
C      1  0.5554730000000  0.4414910000000  0.4488810000000 1.0
C      1  0.5475490000000  0.5041500000000  0.5182600000000 1.0
C      1  0.4640850000000  0.4442010000000  0.4766110000000 1.0
C      1  0.4234530000000  0.4183750000000  0.4913160000000 1.0
C      1  0.4880100000000  0.5036110000000  0.6005110000000 1.0
C      1  0.5259040000000  0.5385430000000  0.4691390000000 1.0
C      1  0.5714930000000  0.5244720000000  0.4375310000000 1.0
C      1  0.4768580000000  0.4268660000000  0.5555750000000 1.0
C      1  0.4171080000000  0.5297550000000  0.4991500000000 1.0
C      1  0.4083620000000  0.4771830000000  0.5028080000000 1.0
C      1  0.5829760000000  0.5582050000000  0.5209570000000 1.0
C      1  0.4771430000000  0.5877530000000  0.4559040000000 1.0
C      1  0.5808850000000  0.5408650000000  0.5702690000000 1.0
C      1  0.4028110000000  0.4599810000000  0.5456080000000 1.0
C      1  0.4095010000000  0.5077410000000  0.5416140000000 1.0
C      1  0.4237540000000  0.5170860000000  0.4533600000000 1.0
C      1  0.5941400000000  0.4915390000000  0.5339070000000 1.0
C      1  0.4485590000000  0.3986070000000  0.4909480000000 1.0
C      1  0.4773920000000  0.4823420000000  0.5805270000000 1.0
C      1  0.5115700000000  0.4372250000000  0.5058210000000 1.0
C      1  0.5162250000000  0.4762800000000  0.3946110000000 1.0
C      1  0.5012510000000  0.5650480000000  0.5507450000000 1.0
C      1  0.4636320000000  0.6120350000000  0.4947400000000 1.0
C      1  0.4975530000000  0.4084400000000  0.5417160000000 1.0
C      1  0.4919690000000  0.4861440000000  0.4987760000000 1.0
C      1  0.4433100000000  0.5912770000000  0.4904660000000 1.0
C      1  0.4129350000000  0.4896990000000  0.4420160000000 1.0
C      1  0.5605740000000  0.4786470000000  0.4172390000000 1.0
C      1  0.4514950000000  0.4667760000000  0.5808650000000 1.0
C      1  0.4480590000000  0.4999080000000  0.3993070000000 1.0
C      1  0.4317540000000  0.4817670000000  0.4181150000000 1.0
C      1  0.4334770000000  0.5878900000000  0.4633190000000 1.0
C      1  0.5187730000000  0.5535800000000  0.5265550000000 1.0
C      1  0.3945080000000  0.5188870000000  0.4858540000000 1.0
C      1  0.5597910000000  0.5594430000000  0.5786700000000 1.0
C      1  0.5181560000000  0.5011040000000  0.5991880000000 1.0
C      1  0.5346820000000  0.5447350000000  0.5834220000000 1.0
C      1  0.4977300000000  0.5947750000000  0.5397540000000 1.0
C      1  0.4858500000000  0.5356370000000  0.4034230000000 1.0
C      1  0.4576710000000  0.4764420000000  0.5313790000000 1.0
C      1  0.5468610000000  0.5179520000000  0.4667380000000 1.0
C      1  0.4618520000000  0.4851440000000  0.4586860000000 1.0
C      1  0.5070990000000  0.5133960000000  0.4014590000000 1.0
C      1  0.4816450000000  0.4322020000000  0.4169430000000 1.0
C      1  0.4945380000000  0.5154470000000  0.5028020000000 1.0
C      1  0.5021630000000  0.4394590000000  0.4344660000000 1.0
C      1  0.4119860000000  0.5335970000000  0.5277320000000 1.0
C      1  0.5492580000000  0.4727390000000  0.5162850000000 1.0
C      1  0.5350760000000  0.3962720000000  0.4936620000000 1.0
C      1  0.4956890000000  0.5654120000000  0.4981070000000 1.0
C      1  0.5719220000000  0.5640260000000  0.4949470000000 1.0
C      1  0.3979360000000  0.4832380000000  0.5301050000000 1.0
C      1  0.4591470000000  0.5492740000000  0.5287800000000 1.0
C      1  0.4962310000000  0.4112260000000  0.5118900000000 1.0
C      1  0.6216830000000  0.4737860000000  0.4991480000000 1.0
C      1  0.5695920000000  0.5089820000000  0.5391910000000 1.0
C      1  0.4941540000000  0.4345680000000  0.5777160000000 1.0
C      1  0.4454980000000  0.4689180000000  0.4761190000000 1.0
C      1  0.4635530000000  0.5045100000000  0.5383260000000 1.0
C      1  0.4744480000000  0.5472410000000  0.5546460000000 1.0
C      1  0.5071740000000  0.3916220000000  0.4916230000000 1.0
C      1  0.4959880000000  0.5573280000000  0.4185500000000 1.0
C      1  0.5003060000000  0.4636730000000  0.5737170000000 1.0
C      1  0.5591300000000  0.5021250000000  0.5674400000000 1.0
C      1  0.4513550000000  0.4524270000000  0.5532870000000 1.0
C      1  0.4952490000000  0.4990400000000  0.4265550000000 1.0
C      1  0.4997700000000  0.5243970000000  0.4720100000000 1.0
C      1  0.6092970000000  0.4972130000000  0.5097840000000 1.0
C      1  0.5105660000000  0.5116600000000  0.5514620000000 1.0
END
