TITL C-950533-5798-465 -3.355972568744e-06 125000 -810.594961277552 0 0 131 (C1) n - 1
REM
REM in /home/bkarasulu/work/CARBON/AIRSS/Generating-Clusters/EDIP-Nigel-Params/with-SteepDescent/Only-C1/SD-CG/HFTN-CG
REM
REM
REM
REM
REM
REM ./C.cell (11c1c37f851c82e70ff6c80c92926a4b)
REM
REM compiler GCC version 9.2.1 20190827 (Red Hat 9.2.1-1)
REM options -cpp -mtune=generic -march=x86-64 -g -O0 -fpre-include=/usr/include/finclude/math-vector-fortran.h
REM seed -1064416099 160953679 -1772578820 784278107 -2130530318 1140296843 702546048 1984783824 1946857075 1338530263 2023552145 1641771692 2143526932 -2051931885 702108354 112016041 1813012915 -560338277 -2041439522 -73912996 1488290504 2080453025 -1876476902 -1715772782 312454346 1045399410 -1845352337 -1959859683 13949389 1369647792 2047474826 -1500678421 1279843098
REM
CELL 1.54180   50.00000   50.00000   50.00000   90.00000   90.00000   90.00000
LATT -1
SFAC C  
C      1  0.4755150000000  0.5175540000000  0.6014540000000 1.0
C      1  0.5459860000000  0.4064290000000  0.4696370000000 1.0
C      1  0.3992930000000  0.4831710000000  0.5049690000000 1.0
C      1  0.5331920000000  0.5631820000000  0.4626390000000 1.0
C      1  0.5746070000000  0.4693260000000  0.4958320000000 1.0
C      1  0.4830270000000  0.4247310000000  0.4383200000000 1.0
C      1  0.5119190000000  0.4514460000000  0.4725500000000 1.0
C      1  0.5769490000000  0.5411420000000  0.4808820000000 1.0
C      1  0.5798640000000  0.5560230000000  0.5425720000000 1.0
C      1  0.5208320000000  0.5854010000000  0.5042340000000 1.0
C      1  0.4254910000000  0.5068060000000  0.5434360000000 1.0
C      1  0.5450190000000  0.4786250000000  0.4913570000000 1.0
C      1  0.4560710000000  0.5099250000000  0.4129900000000 1.0
C      1  0.4382830000000  0.4982190000000  0.5690920000000 1.0
C      1  0.4016410000000  0.5169340000000  0.4655900000000 1.0
C      1  0.5050300000000  0.4462210000000  0.5740400000000 1.0
C      1  0.4162840000000  0.5638470000000  0.5324670000000 1.0
C      1  0.5666930000000  0.5750870000000  0.5270940000000 1.0
C      1  0.4996900000000  0.4874200000000  0.6006030000000 1.0
C      1  0.4401160000000  0.4140630000000  0.5179470000000 1.0
C      1  0.5613380000000  0.4868860000000  0.4191590000000 1.0
C      1  0.5724340000000  0.4398540000000  0.5007890000000 1.0
C      1  0.5413110000000  0.4417340000000  0.4059300000000 1.0
C      1  0.5981750000000  0.4779780000000  0.5144060000000 1.0
C      1  0.4560690000000  0.5921020000000  0.5372490000000 1.0
C      1  0.4919680000000  0.4290900000000  0.4120770000000 1.0
C      1  0.5871420000000  0.5307960000000  0.5308400000000 1.0
C      1  0.4798190000000  0.4732340000000  0.4381110000000 1.0
C      1  0.4810260000000  0.4796240000000  0.5458750000000 1.0
C      1  0.5173180000000  0.4076970000000  0.4784750000000 1.0
C      1  0.5185300000000  0.4777130000000  0.4174550000000 1.0
C      1  0.4308340000000  0.5026470000000  0.4278280000000 1.0
C      1  0.5025780000000  0.4675040000000  0.4984490000000 1.0
C      1  0.4792940000000  0.6002520000000  0.5232460000000 1.0
C      1  0.4996710000000  0.4921440000000  0.3988100000000 1.0
C      1  0.5214320000000  0.5198510000000  0.4096720000000 1.0
C      1  0.5090700000000  0.5113120000000  0.5649180000000 1.0
C      1  0.5492690000000  0.5764510000000  0.5056650000000 1.0
C      1  0.4592190000000  0.4779660000000  0.5267200000000 1.0
C      1  0.5208430000000  0.4612520000000  0.5273820000000 1.0
C      1  0.5133660000000  0.5829280000000  0.4719330000000 1.0
C      1  0.4127190000000  0.4567580000000  0.5065520000000 1.0
C      1  0.5471450000000  0.4718570000000  0.5803480000000 1.0
C      1  0.4823250000000  0.4950950000000  0.4588310000000 1.0
C      1  0.4416140000000  0.4689850000000  0.5711360000000 1.0
C      1  0.5518470000000  0.4681330000000  0.3997970000000 1.0
C      1  0.4358540000000  0.5430140000000  0.5429150000000 1.0
C      1  0.4852130000000  0.5786710000000  0.4608490000000 1.0
C      1  0.5167000000000  0.5337570000000  0.5823370000000 1.0
C      1  0.4622900000000  0.4874560000000  0.4800330000000 1.0
C      1  0.5657200000000  0.4470470000000  0.4497420000000 1.0
C      1  0.5139250000000  0.4468420000000  0.4156410000000 1.0
C      1  0.4699140000000  0.5675800000000  0.4368350000000 1.0
C      1  0.4958640000000  0.5350040000000  0.4797160000000 1.0
C      1  0.4646930000000  0.5925620000000  0.4763700000000 1.0
C      1  0.5233900000000  0.5532000000000  0.5605000000000 1.0
C      1  0.5172030000000  0.5385300000000  0.4563120000000 1.0
C      1  0.5582330000000  0.4870140000000  0.5564540000000 1.0
C      1  0.4679070000000  0.5391930000000  0.4706750000000 1.0
C      1  0.4654170000000  0.5193560000000  0.4492310000000 1.0
C      1  0.5193800000000  0.4880430000000  0.4486160000000 1.0
C      1  0.4563230000000  0.5341610000000  0.5203340000000 1.0
C      1  0.5150740000000  0.4254430000000  0.5018410000000 1.0
C      1  0.5304740000000  0.4906130000000  0.5979130000000 1.0
C      1  0.4153670000000  0.5209030000000  0.4425110000000 1.0
C      1  0.4825470000000  0.4991140000000  0.5681000000000 1.0
C      1  0.4379870000000  0.4600130000000  0.5411450000000 1.0
C      1  0.5903800000000  0.5264940000000  0.5023700000000 1.0
C      1  0.4423030000000  0.5731370000000  0.4407430000000 1.0
C      1  0.4323670000000  0.5863460000000  0.5233390000000 1.0
C      1  0.4712640000000  0.4668200000000  0.4993470000000 1.0
C      1  0.4298610000000  0.5657240000000  0.4910860000000 1.0
C      1  0.5379540000000  0.4366590000000  0.5406020000000 1.0
C      1  0.5055410000000  0.5057090000000  0.4938390000000 1.0
C      1  0.4499470000000  0.5203280000000  0.5851690000000 1.0
C      1  0.5094670000000  0.4252720000000  0.4539510000000 1.0
C      1  0.5637820000000  0.5203890000000  0.5753420000000 1.0
C      1  0.4480330000000  0.5421370000000  0.4924880000000 1.0
C      1  0.4967390000000  0.4138220000000  0.5231040000000 1.0
C      1  0.5499440000000  0.5142140000000  0.4172320000000 1.0
C      1  0.5842940000000  0.4963360000000  0.4636930000000 1.0
C      1  0.4772300000000  0.5392690000000  0.4268710000000 1.0
C      1  0.4507340000000  0.4325770000000  0.5361320000000 1.0
C      1  0.5346950000000  0.5135780000000  0.4586570000000 1.0
C      1  0.4697440000000  0.5793130000000  0.5026920000000 1.0
C      1  0.5628320000000  0.4335550000000  0.5263190000000 1.0
C      1  0.5019270000000  0.5162510000000  0.5210800000000 1.0
C      1  0.5933810000000  0.4835410000000  0.5422800000000 1.0
C      1  0.5988100000000  0.4998990000000  0.4919510000000 1.0
C      1  0.4333000000000  0.4806240000000  0.4713060000000 1.0
C      1  0.4770530000000  0.5586950000000  0.5735910000000 1.0
C      1  0.5352120000000  0.4456290000000  0.5724920000000 1.0
C      1  0.4130730000000  0.4988220000000  0.4836530000000 1.0
C      1  0.5397990000000  0.5372270000000  0.5423000000000 1.0
C      1  0.4618280000000  0.4597510000000  0.5886360000000 1.0
C      1  0.5604330000000  0.5321620000000  0.4364280000000 1.0
C      1  0.5231630000000  0.5122960000000  0.5395900000000 1.0
C      1  0.4963870000000  0.4554030000000  0.5465190000000 1.0
C      1  0.5069120000000  0.5377130000000  0.4279990000000 1.0
C      1  0.4499890000000  0.5460520000000  0.5700160000000 1.0
C      1  0.4377510000000  0.5843380000000  0.4665840000000 1.0
C      1  0.4284780000000  0.4539820000000  0.4828350000000 1.0
C      1  0.5773780000000  0.5241740000000  0.4575290000000 1.0
C      1  0.4649860000000  0.4472790000000  0.4473880000000 1.0
C      1  0.4073340000000  0.4828180000000  0.5348340000000 1.0
C      1  0.5923990000000  0.5106810000000  0.5508910000000 1.0
C      1  0.4937570000000  0.5576810000000  0.5017740000000 1.0
C      1  0.4739280000000  0.4860850000000  0.4108860000000 1.0
C      1  0.5599000000000  0.4320000000000  0.4756690000000 1.0
C      1  0.4909460000000  0.5425860000000  0.5956440000000 1.0
C      1  0.5404630000000  0.4084350000000  0.4406280000000 1.0
C      1  0.4562120000000  0.4429110000000  0.4821580000000 1.0
C      1  0.5666520000000  0.5487430000000  0.5670280000000 1.0
C      1  0.5350830000000  0.5058250000000  0.4879200000000 1.0
C      1  0.5377210000000  0.4869010000000  0.5342770000000 1.0
C      1  0.4869040000000  0.5411030000000  0.5255100000000 1.0
C      1  0.5566840000000  0.4287180000000  0.4275620000000 1.0
C      1  0.4544590000000  0.4169020000000  0.4948290000000 1.0
C      1  0.4042990000000  0.5580740000000  0.5065980000000 1.0
C      1  0.4969540000000  0.5616570000000  0.5484360000000 1.0
C      1  0.5041390000000  0.5882790000000  0.5319450000000 1.0
C      1  0.5356390000000  0.4671460000000  0.4649350000000 1.0
C      1  0.5540000000000  0.5595150000000  0.4832910000000 1.0
C      1  0.5733800000000  0.4764830000000  0.4440020000000 1.0
C      1  0.4411350000000  0.4520360000000  0.4313300000000 1.0
C      1  0.5222190000000  0.4117940000000  0.5375670000000 1.0
C      1  0.4303440000000  0.4766480000000  0.4416530000000 1.0
C      1  0.4893120000000  0.4600770000000  0.5954670000000 1.0
C      1  0.4797480000000  0.4343790000000  0.5342940000000 1.0
C      1  0.4475080000000  0.5052710000000  0.5233130000000 1.0
C      1  0.5405790000000  0.5188280000000  0.5949760000000 1.0
END
