TITL C-950528-5794-712 -4.28670615365871e-06 125000 -1125.29578999922 0 0 181 (C1) n - 1
REM
REM in /home/bkarasulu/work/CARBON/AIRSS/Generating-Clusters/EDIP-Nigel-Params/with-SteepDescent/Only-C1/SD-CG/HFTN-CG
REM
REM
REM
REM
REM
REM ./C.cell (11c1c37f851c82e70ff6c80c92926a4b)
REM
REM compiler GCC version 9.2.1 20190827 (Red Hat 9.2.1-1)
REM options -cpp -mtune=generic -march=x86-64 -g -O0 -fpre-include=/usr/include/finclude/math-vector-fortran.h
REM seed -824997267 -209663879 -306561620 1563714432 880869622 1031989605 -2043110543 -1378484774 -1972967371 -1047654147 -911633827 1651878052 -1470974836 -71101573 977107952 580103197 -1399575692 -1850575436 1455329669 -651856650 -1806668703 -729221509 457871947 1061347985 -347777506 1802394369 -1597873809 -1455652641 -292213424 -456627813 -1373991255 -2095660672 -1385433596
REM
CELL 1.54180   50.00000   50.00000   50.00000   90.00000   90.00000   90.00000
LATT -1
SFAC C  
C      1  0.6163010000000  0.4741070000000  0.4969700000000 1.0
C      1  0.4663380000000  0.5690560000000  0.5263900000000 1.0
C      1  0.4742080000000  0.4701550000000  0.3845080000000 1.0
C      1  0.4940200000000  0.4845250000000  0.3711210000000 1.0
C      1  0.4964710000000  0.5986500000000  0.4791680000000 1.0
C      1  0.5547050000000  0.4879800000000  0.4486650000000 1.0
C      1  0.5860350000000  0.5282700000000  0.5372750000000 1.0
C      1  0.5121230000000  0.5196870000000  0.5000710000000 1.0
C      1  0.3906050000000  0.5341270000000  0.5060230000000 1.0
C      1  0.5977010000000  0.5225210000000  0.4868860000000 1.0
C      1  0.5943610000000  0.4474610000000  0.5675070000000 1.0
C      1  0.5393120000000  0.5743320000000  0.4316200000000 1.0
C      1  0.5285210000000  0.4094780000000  0.4939310000000 1.0
C      1  0.4957670000000  0.4011020000000  0.5318360000000 1.0
C      1  0.5077950000000  0.4344870000000  0.3937590000000 1.0
C      1  0.4844150000000  0.4469030000000  0.5341350000000 1.0
C      1  0.4567300000000  0.4817620000000  0.4059040000000 1.0
C      1  0.5517700000000  0.3924290000000  0.5025750000000 1.0
C      1  0.5279840000000  0.5769140000000  0.5573180000000 1.0
C      1  0.4510590000000  0.4803000000000  0.4559920000000 1.0
C      1  0.4771350000000  0.5490640000000  0.4785950000000 1.0
C      1  0.4853700000000  0.6087260000000  0.5297090000000 1.0
C      1  0.5984560000000  0.5136360000000  0.5151100000000 1.0
C      1  0.4958230000000  0.5410140000000  0.5947320000000 1.0
C      1  0.5049200000000  0.5875300000000  0.5745590000000 1.0
C      1  0.5582100000000  0.6068980000000  0.5197900000000 1.0
C      1  0.5035970000000  0.5513090000000  0.4941560000000 1.0
C      1  0.4788240000000  0.4018570000000  0.4842030000000 1.0
C      1  0.5224530000000  0.5164710000000  0.6279120000000 1.0
C      1  0.4760590000000  0.5058930000000  0.6242690000000 1.0
C      1  0.4318500000000  0.5809390000000  0.5511320000000 1.0
C      1  0.5501110000000  0.4967930000000  0.3941600000000 1.0
C      1  0.4969590000000  0.5633490000000  0.5210040000000 1.0
C      1  0.4276120000000  0.4838450000000  0.5739220000000 1.0
C      1  0.5503110000000  0.4781390000000  0.4769360000000 1.0
C      1  0.4827870000000  0.5215590000000  0.5473180000000 1.0
C      1  0.4234660000000  0.5536860000000  0.5386760000000 1.0
C      1  0.4620970000000  0.4493990000000  0.4774150000000 1.0
C      1  0.4441460000000  0.4543430000000  0.5024030000000 1.0
C      1  0.4479500000000  0.5243640000000  0.5864530000000 1.0
C      1  0.5251220000000  0.4434430000000  0.5599680000000 1.0
C      1  0.5389360000000  0.4492460000000  0.4107850000000 1.0
C      1  0.4976300000000  0.4859990000000  0.6008840000000 1.0
C      1  0.5175850000000  0.5002890000000  0.5797040000000 1.0
C      1  0.5346830000000  0.4209530000000  0.5229480000000 1.0
C      1  0.5238210000000  0.5466850000000  0.5559850000000 1.0
C      1  0.4061060000000  0.4602970000000  0.5355010000000 1.0
C      1  0.5464920000000  0.4915160000000  0.5930260000000 1.0
C      1  0.5000610000000  0.4264890000000  0.5501680000000 1.0
C      1  0.5742420000000  0.5186900000000  0.5621780000000 1.0
C      1  0.5736970000000  0.4588730000000  0.4822590000000 1.0
C      1  0.4386310000000  0.5325780000000  0.4089310000000 1.0
C      1  0.5795150000000  0.5458430000000  0.4842490000000 1.0
C      1  0.4684910000000  0.3931970000000  0.5399040000000 1.0
C      1  0.5325800000000  0.5555440000000  0.4807000000000 1.0
C      1  0.5457300000000  0.5840830000000  0.4794010000000 1.0
C      1  0.3932980000000  0.5150900000000  0.5309230000000 1.0
C      1  0.5798940000000  0.4756700000000  0.5297240000000 1.0
C      1  0.4719520000000  0.4781200000000  0.4337910000000 1.0
C      1  0.5421460000000  0.4490640000000  0.5176730000000 1.0
C      1  0.5525720000000  0.5346710000000  0.4898720000000 1.0
C      1  0.4094840000000  0.4641220000000  0.5636840000000 1.0
C      1  0.6060820000000  0.4863170000000  0.5199140000000 1.0
C      1  0.5734600000000  0.4725250000000  0.4291210000000 1.0
C      1  0.4371200000000  0.4569720000000  0.4162450000000 1.0
C      1  0.5782130000000  0.5579430000000  0.4557110000000 1.0
C      1  0.3838310000000  0.4916470000000  0.4439680000000 1.0
C      1  0.5256700000000  0.5365670000000  0.4501250000000 1.0
C      1  0.4253390000000  0.5744360000000  0.4908860000000 1.0
C      1  0.5624130000000  0.4057790000000  0.5264130000000 1.0
C      1  0.4434620000000  0.4830770000000  0.5123950000000 1.0
C      1  0.5582780000000  0.5804950000000  0.4530380000000 1.0
C      1  0.4627130000000  0.5240190000000  0.4860560000000 1.0
C      1  0.4832150000000  0.4189260000000  0.5740020000000 1.0
C      1  0.5674950000000  0.5897000000000  0.4994940000000 1.0
C      1  0.4164180000000  0.4450330000000  0.4902380000000 1.0
C      1  0.5180520000000  0.5150460000000  0.4699970000000 1.0
C      1  0.5670080000000  0.5429740000000  0.5770520000000 1.0
C      1  0.5469330000000  0.5141960000000  0.6138210000000 1.0
C      1  0.4006890000000  0.4756260000000  0.4597630000000 1.0
C      1  0.4484000000000  0.4268480000000  0.4641130000000 1.0
C      1  0.5407940000000  0.4644170000000  0.6053070000000 1.0
C      1  0.5456330000000  0.5390300000000  0.5975020000000 1.0
C      1  0.5584910000000  0.4284190000000  0.4179860000000 1.0
C      1  0.5045410000000  0.4396280000000  0.6113340000000 1.0
C      1  0.4019590000000  0.5083960000000  0.4890970000000 1.0
C      1  0.4818470000000  0.5100480000000  0.5047190000000 1.0
C      1  0.4476140000000  0.4775250000000  0.5946510000000 1.0
C      1  0.4911870000000  0.5029980000000  0.4335480000000 1.0
C      1  0.5298950000000  0.5143500000000  0.3878890000000 1.0
C      1  0.4287540000000  0.5123870000000  0.5674220000000 1.0
C      1  0.4256910000000  0.4630270000000  0.4464060000000 1.0
C      1  0.4646420000000  0.5890500000000  0.4425600000000 1.0
C      1  0.4104160000000  0.5289410000000  0.5516430000000 1.0
C      1  0.5977980000000  0.4308910000000  0.5464960000000 1.0
C      1  0.4924400000000  0.5941700000000  0.4494380000000 1.0
C      1  0.4587350000000  0.5139150000000  0.4049970000000 1.0
C      1  0.4817090000000  0.5961030000000  0.5573000000000 1.0
C      1  0.4901920000000  0.4539910000000  0.4433380000000 1.0
C      1  0.4966460000000  0.5256280000000  0.6208430000000 1.0
C      1  0.4910030000000  0.4378250000000  0.4815560000000 1.0
C      1  0.5741090000000  0.4426480000000  0.4368230000000 1.0
C      1  0.5206890000000  0.4630170000000  0.4346580000000 1.0
C      1  0.5341710000000  0.4411620000000  0.5875420000000 1.0
C      1  0.5138240000000  0.4665140000000  0.6173730000000 1.0
C      1  0.4400550000000  0.4196230000000  0.5382290000000 1.0
C      1  0.5504420000000  0.5520650000000  0.4167720000000 1.0
C      1  0.4133560000000  0.4321930000000  0.5424300000000 1.0
C      1  0.5255280000000  0.4111240000000  0.4412750000000 1.0
C      1  0.5265610000000  0.4588020000000  0.4669590000000 1.0
C      1  0.5020780000000  0.4954910000000  0.5525930000000 1.0
C      1  0.5366810000000  0.4284380000000  0.4663420000000 1.0
C      1  0.5302500000000  0.6076440000000  0.5147240000000 1.0
C      1  0.4588790000000  0.4344680000000  0.4121630000000 1.0
C      1  0.4584840000000  0.5793850000000  0.5626000000000 1.0
C      1  0.5099550000000  0.3901960000000  0.4521090000000 1.0
C      1  0.4253630000000  0.5068440000000  0.5100480000000 1.0
C      1  0.4422120000000  0.5305720000000  0.5051860000000 1.0
C      1  0.5033690000000  0.5405290000000  0.5375400000000 1.0
C      1  0.4838820000000  0.5256830000000  0.3960550000000 1.0
C      1  0.5386510000000  0.4646960000000  0.5422000000000 1.0
C      1  0.5736420000000  0.5387260000000  0.4328610000000 1.0
C      1  0.5789890000000  0.4691950000000  0.5586950000000 1.0
C      1  0.5714540000000  0.4512870000000  0.5124950000000 1.0
C      1  0.4944480000000  0.5029840000000  0.4629140000000 1.0
C      1  0.4245300000000  0.5664990000000  0.4628350000000 1.0
C      1  0.5030990000000  0.4480980000000  0.5089560000000 1.0
C      1  0.5061330000000  0.4205740000000  0.4192220000000 1.0
C      1  0.4227500000000  0.4372110000000  0.4621330000000 1.0
C      1  0.5851970000000  0.5091630000000  0.4374910000000 1.0
C      1  0.5184700000000  0.4925890000000  0.4245200000000 1.0
C      1  0.5635900000000  0.5658920000000  0.5579950000000 1.0
C      1  0.5823810000000  0.5661330000000  0.5066930000000 1.0
C      1  0.4085960000000  0.5587660000000  0.5115940000000 1.0
C      1  0.4976620000000  0.5385460000000  0.4362560000000 1.0
C      1  0.4947240000000  0.4782310000000  0.4777930000000 1.0
C      1  0.4158700000000  0.5175740000000  0.4630140000000 1.0
C      1  0.3998570000000  0.5133720000000  0.4377470000000 1.0
C      1  0.4806180000000  0.4392600000000  0.5950750000000 1.0
C      1  0.4744240000000  0.5311790000000  0.5756080000000 1.0
C      1  0.4810240000000  0.4266220000000  0.4338760000000 1.0
C      1  0.5157160000000  0.5865010000000  0.5306940000000 1.0
C      1  0.5024890000000  0.5039000000000  0.3902100000000 1.0
C      1  0.3954990000000  0.4658850000000  0.4880380000000 1.0
C      1  0.5989890000000  0.4742010000000  0.4749850000000 1.0
C      1  0.4970820000000  0.5700400000000  0.5954230000000 1.0
C      1  0.4675520000000  0.4935730000000  0.5249820000000 1.0
C      1  0.4505820000000  0.5438300000000  0.5293850000000 1.0
C      1  0.5010510000000  0.4003400000000  0.5025920000000 1.0
C      1  0.4398870000000  0.5742920000000  0.4394460000000 1.0
C      1  0.5667810000000  0.4356260000000  0.4643780000000 1.0
C      1  0.5563620000000  0.4971940000000  0.5283070000000 1.0
C      1  0.4067550000000  0.5454400000000  0.4569510000000 1.0
C      1  0.5781180000000  0.5556870000000  0.5340240000000 1.0
C      1  0.5837440000000  0.4256690000000  0.5230550000000 1.0
C      1  0.4770760000000  0.5530190000000  0.4506370000000 1.0
C      1  0.5099140000000  0.4759500000000  0.5043460000000 1.0
C      1  0.5711510000000  0.4924580000000  0.5749240000000 1.0
C      1  0.5423100000000  0.5129330000000  0.4337910000000 1.0
C      1  0.5215680000000  0.4883110000000  0.5301180000000 1.0
C      1  0.4459500000000  0.5937700000000  0.5031580000000 1.0
C      1  0.4847020000000  0.4025650000000  0.4557960000000 1.0
C      1  0.4568750000000  0.4384780000000  0.5241690000000 1.0
C      1  0.5584260000000  0.4720020000000  0.4031220000000 1.0
C      1  0.4793320000000  0.4424370000000  0.3907630000000 1.0
C      1  0.5105510000000  0.5806610000000  0.4295960000000 1.0
C      1  0.5480940000000  0.5047690000000  0.4990050000000 1.0
C      1  0.4363730000000  0.5988980000000  0.5297010000000 1.0
C      1  0.5932320000000  0.5020390000000  0.4660330000000 1.0
C      1  0.5241690000000  0.6046010000000  0.4857490000000 1.0
C      1  0.4511930000000  0.5040430000000  0.6085980000000 1.0
C      1  0.3928250000000  0.4792670000000  0.5157020000000 1.0
C      1  0.4759740000000  0.4680360000000  0.5856050000000 1.0
C      1  0.5014210000000  0.5497360000000  0.4082370000000 1.0
C      1  0.5290270000000  0.5400620000000  0.4012570000000 1.0
C      1  0.4758950000000  0.6035630000000  0.5013490000000 1.0
C      1  0.4607460000000  0.4029920000000  0.5657580000000 1.0
C      1  0.4459970000000  0.5096130000000  0.4631930000000 1.0
C      1  0.5209920000000  0.5319310000000  0.5815420000000 1.0
C      1  0.4360750000000  0.5581660000000  0.4169050000000 1.0
C      1  0.4817230000000  0.4721360000000  0.5543340000000 1.0
END
