TITL C-951333-8791-488 -7.28066320542635e-07 125000 -862.892793063781 0 0 138 (C1) n - 1
REM
REM in /home/bkarasulu/work/CARBON/AIRSS/Generating-Clusters/EDIP-Nigel-Params/with-SteepDescent/Only-C1/SD-CG/HFTN-CG
REM
REM
REM
REM
REM
REM ./C.cell (11c1c37f851c82e70ff6c80c92926a4b)
REM
REM compiler GCC version 9.2.1 20190827 (Red Hat 9.2.1-1)
REM options -cpp -mtune=generic -march=x86-64 -g -O0 -fpre-include=/usr/include/finclude/math-vector-fortran.h
REM seed -156929556 1883387662 1083426272 278778420 -921531828 -599430841 388213223 -1062577708 1346346721 -579407819 362636360 3041898 -995644364 1880734034 211607834 799482704 1915309145 -1870401832 1395354066 -1935530059 -1965711209 -322016856 -1610566429 -567539205 450334080 1694739562 2143156674 -2109724077 -681417025 -833990303 1975114418 -374576120 1198976470
REM
CELL 1.54180   50.00000   50.00000   50.00000   90.00000   90.00000   90.00000
LATT -1
SFAC C  
C      1  0.4489680000000  0.4614020000000  0.5797250000000 1.0
C      1  0.4191120000000  0.4549720000000  0.4474220000000 1.0
C      1  0.5336520000000  0.4441920000000  0.4389790000000 1.0
C      1  0.5957330000000  0.4997400000000  0.5256930000000 1.0
C      1  0.5179060000000  0.5657030000000  0.4287750000000 1.0
C      1  0.5259540000000  0.4175890000000  0.4991300000000 1.0
C      1  0.5487340000000  0.5758640000000  0.4735700000000 1.0
C      1  0.4183530000000  0.4785960000000  0.5413570000000 1.0
C      1  0.5315540000000  0.4143980000000  0.4398910000000 1.0
C      1  0.4330410000000  0.5525930000000  0.4973750000000 1.0
C      1  0.4384730000000  0.5446970000000  0.5430470000000 1.0
C      1  0.4575670000000  0.5237210000000  0.5290350000000 1.0
C      1  0.4994100000000  0.4474710000000  0.5761630000000 1.0
C      1  0.5571740000000  0.5254150000000  0.5842090000000 1.0
C      1  0.4686850000000  0.5865030000000  0.5037460000000 1.0
C      1  0.4553050000000  0.4745260000000  0.4238660000000 1.0
C      1  0.5869890000000  0.4656290000000  0.4487570000000 1.0
C      1  0.4980740000000  0.5919660000000  0.4668300000000 1.0
C      1  0.5244670000000  0.5818890000000  0.4544340000000 1.0
C      1  0.5361990000000  0.5224380000000  0.5515120000000 1.0
C      1  0.5681710000000  0.4622670000000  0.5440430000000 1.0
C      1  0.4792990000000  0.5288040000000  0.5934910000000 1.0
C      1  0.4391410000000  0.4946960000000  0.4898750000000 1.0
C      1  0.4903890000000  0.4846830000000  0.5001400000000 1.0
C      1  0.4231990000000  0.4381160000000  0.4699900000000 1.0
C      1  0.5169710000000  0.5009150000000  0.4577060000000 1.0
C      1  0.4718390000000  0.5286910000000  0.4571890000000 1.0
C      1  0.4517140000000  0.5754980000000  0.4819070000000 1.0
C      1  0.5051660000000  0.5758680000000  0.5642150000000 1.0
C      1  0.5226410000000  0.4622420000000  0.5337630000000 1.0
C      1  0.5921530000000  0.4702260000000  0.5265830000000 1.0
C      1  0.5268500000000  0.4904510000000  0.4040220000000 1.0
C      1  0.4656370000000  0.4229980000000  0.5543170000000 1.0
C      1  0.5064040000000  0.4563150000000  0.4335910000000 1.0
C      1  0.5012070000000  0.5314630000000  0.4492360000000 1.0
C      1  0.4615860000000  0.4815270000000  0.5075280000000 1.0
C      1  0.6003460000000  0.4725780000000  0.4734310000000 1.0
C      1  0.4722520000000  0.5797080000000  0.4593720000000 1.0
C      1  0.4031860000000  0.5146740000000  0.5063750000000 1.0
C      1  0.4569340000000  0.4510100000000  0.4441590000000 1.0
C      1  0.5520870000000  0.4534120000000  0.4158890000000 1.0
C      1  0.4502770000000  0.5264650000000  0.5006290000000 1.0
C      1  0.4935150000000  0.4392110000000  0.4725760000000 1.0
C      1  0.4729850000000  0.4851950000000  0.5579350000000 1.0
C      1  0.4771170000000  0.5734740000000  0.5549870000000 1.0
C      1  0.4865800000000  0.4598750000000  0.4549380000000 1.0
C      1  0.5635890000000  0.5504110000000  0.4768930000000 1.0
C      1  0.4425230000000  0.4342970000000  0.5403880000000 1.0
C      1  0.4708770000000  0.4403420000000  0.5786220000000 1.0
C      1  0.4876890000000  0.5292450000000  0.5306110000000 1.0
C      1  0.4181260000000  0.5275800000000  0.4597470000000 1.0
C      1  0.5024480000000  0.4770150000000  0.4146200000000 1.0
C      1  0.4956120000000  0.5292030000000  0.5661990000000 1.0
C      1  0.5457410000000  0.5248940000000  0.4334660000000 1.0
C      1  0.4202030000000  0.5247230000000  0.5543900000000 1.0
C      1  0.5124260000000  0.5508270000000  0.4735970000000 1.0
C      1  0.4955420000000  0.5961260000000  0.4954780000000 1.0
C      1  0.4734620000000  0.5935890000000  0.5336980000000 1.0
C      1  0.5757340000000  0.5441390000000  0.5332360000000 1.0
C      1  0.4524870000000  0.5384010000000  0.5872080000000 1.0
C      1  0.4531960000000  0.5585300000000  0.5649170000000 1.0
C      1  0.3912680000000  0.4786610000000  0.4774370000000 1.0
C      1  0.5525690000000  0.4305010000000  0.5096160000000 1.0
C      1  0.4121250000000  0.4779330000000  0.4982980000000 1.0
C      1  0.5158500000000  0.5515130000000  0.5751960000000 1.0
C      1  0.5168320000000  0.4445960000000  0.4875360000000 1.0
C      1  0.5031780000000  0.6038680000000  0.5251260000000 1.0
C      1  0.4687500000000  0.5761770000000  0.4316460000000 1.0
C      1  0.4630910000000  0.5293530000000  0.4016760000000 1.0
C      1  0.4540450000000  0.4927310000000  0.5344750000000 1.0
C      1  0.5770430000000  0.5062610000000  0.4574080000000 1.0
C      1  0.5165490000000  0.4633480000000  0.5945940000000 1.0
C      1  0.5303390000000  0.5140380000000  0.5051170000000 1.0
C      1  0.4404190000000  0.4323050000000  0.5118630000000 1.0
C      1  0.4094780000000  0.5367270000000  0.4868370000000 1.0
C      1  0.5761840000000  0.5391470000000  0.5020400000000 1.0
C      1  0.5318930000000  0.3999780000000  0.4756430000000 1.0
C      1  0.4291000000000  0.4995690000000  0.4601160000000 1.0
C      1  0.5201210000000  0.5824600000000  0.5387460000000 1.0
C      1  0.4882580000000  0.5406890000000  0.4014410000000 1.0
C      1  0.5115440000000  0.3985820000000  0.4546580000000 1.0
C      1  0.4907130000000  0.5627540000000  0.4199210000000 1.0
C      1  0.5628120000000  0.5646520000000  0.5530370000000 1.0
C      1  0.4510990000000  0.4995600000000  0.4391320000000 1.0
C      1  0.5548310000000  0.4387760000000  0.5720860000000 1.0
C      1  0.5285360000000  0.5245450000000  0.4764870000000 1.0
C      1  0.5667180000000  0.4403160000000  0.4854100000000 1.0
C      1  0.5029730000000  0.5073030000000  0.5150200000000 1.0
C      1  0.4394880000000  0.4140180000000  0.4679480000000 1.0
C      1  0.4387390000000  0.5418980000000  0.4441060000000 1.0
C      1  0.4951430000000  0.5524740000000  0.5003260000000 1.0
C      1  0.5467610000000  0.5509780000000  0.5750980000000 1.0
C      1  0.5722690000000  0.5059670000000  0.5700740000000 1.0
C      1  0.4747640000000  0.5314240000000  0.4866080000000 1.0
C      1  0.4573120000000  0.4914160000000  0.5837880000000 1.0
C      1  0.4612480000000  0.4185680000000  0.4481180000000 1.0
C      1  0.5811140000000  0.5086740000000  0.5014640000000 1.0
C      1  0.5860060000000  0.5182620000000  0.5467060000000 1.0
C      1  0.5388470000000  0.5356170000000  0.5242720000000 1.0
C      1  0.5071390000000  0.4918360000000  0.5956020000000 1.0
C      1  0.4352200000000  0.5149180000000  0.5793340000000 1.0
C      1  0.5268220000000  0.4914300000000  0.5489700000000 1.0
C      1  0.5297310000000  0.5413670000000  0.4173430000000 1.0
C      1  0.4995100000000  0.4077430000000  0.5137940000000 1.0
C      1  0.5188430000000  0.5576790000000  0.5210780000000 1.0
C      1  0.4262810000000  0.5623340000000  0.5237040000000 1.0
C      1  0.5373980000000  0.4315370000000  0.5510800000000 1.0
C      1  0.4933010000000  0.4857970000000  0.4697910000000 1.0
C      1  0.4127030000000  0.5056830000000  0.5331560000000 1.0
C      1  0.5872390000000  0.4597580000000  0.4963600000000 1.0
C      1  0.5525010000000  0.4919560000000  0.4998740000000 1.0
C      1  0.4454820000000  0.5232610000000  0.4223730000000 1.0
C      1  0.5547420000000  0.5947350000000  0.4928210000000 1.0
C      1  0.5400840000000  0.4663150000000  0.3931060000000 1.0
C      1  0.5472970000000  0.4856650000000  0.4686520000000 1.0
C      1  0.5652990000000  0.5324530000000  0.4537480000000 1.0
C      1  0.4341500000000  0.4582700000000  0.5541910000000 1.0
C      1  0.5661470000000  0.4737760000000  0.4303820000000 1.0
C      1  0.4787950000000  0.4021620000000  0.4926840000000 1.0
C      1  0.5429280000000  0.4541970000000  0.4687650000000 1.0
C      1  0.5470150000000  0.4967900000000  0.4257430000000 1.0
C      1  0.5608640000000  0.5981890000000  0.5185410000000 1.0
C      1  0.4912420000000  0.4193190000000  0.5396700000000 1.0
C      1  0.4862470000000  0.4123820000000  0.4652420000000 1.0
C      1  0.5973490000000  0.5018410000000  0.4770690000000 1.0
C      1  0.5132100000000  0.5252940000000  0.3992170000000 1.0
C      1  0.4761040000000  0.4786220000000  0.4057020000000 1.0
C      1  0.4792430000000  0.5000860000000  0.6046160000000 1.0
C      1  0.4074450000000  0.4801830000000  0.4543850000000 1.0
C      1  0.5494420000000  0.4607960000000  0.5201440000000 1.0
C      1  0.4209370000000  0.4480650000000  0.4971020000000 1.0
C      1  0.5540580000000  0.4824800000000  0.5636480000000 1.0
C      1  0.5107810000000  0.4280630000000  0.5585950000000 1.0
C      1  0.4498270000000  0.4091680000000  0.4959890000000 1.0
C      1  0.5495020000000  0.5885200000000  0.5419600000000 1.0
C      1  0.5465210000000  0.4630180000000  0.5866810000000 1.0
C      1  0.5061590000000  0.4615290000000  0.5091630000000 1.0
C      1  0.5017810000000  0.4981550000000  0.5661860000000 1.0
END
