TITL C-950536-5891-388 6.49950923215612e-07 125000 -719.919206664384 0 0 115 (C1) n - 1
REM
REM in /home/bkarasulu/work/CARBON/AIRSS/Generating-Clusters/EDIP-Nigel-Params/with-SteepDescent/Only-C1/SD-CG/HFTN-CG
REM
REM
REM
REM
REM
REM ./C.cell (11c1c37f851c82e70ff6c80c92926a4b)
REM
REM compiler GCC version 9.2.1 20190827 (Red Hat 9.2.1-1)
REM options -cpp -mtune=generic -march=x86-64 -g -O0 -fpre-include=/usr/include/finclude/math-vector-fortran.h
REM seed 2135126451 843739543 120732782 1890354307 880240465 -1765761177 -1118850088 184638091 -515815336 152034915 -2075253924 1198142290 -146900721 -343636118 1821712597 1142820155 -164549508 -1742464590 497419566 2023274951 -580153815 -1686697572 -1838582539 754367509 -544828299 19300166 -336539893 -1886188136 -1907605529 -578432095 1582806580 225952771 -181424240
REM
CELL 1.54180   50.00000   50.00000   50.00000   90.00000   90.00000   90.00000
LATT -1
SFAC C  
C      1  0.5571690000000  0.4181640000000  0.4816260000000 1.0
C      1  0.4244780000000  0.5325070000000  0.5579660000000 1.0
C      1  0.5258750000000  0.5220280000000  0.5791660000000 1.0
C      1  0.5167060000000  0.5492840000000  0.5678710000000 1.0
C      1  0.5046760000000  0.5941990000000  0.4877530000000 1.0
C      1  0.4358240000000  0.5441320000000  0.4676440000000 1.0
C      1  0.4508780000000  0.5368040000000  0.5707970000000 1.0
C      1  0.4634430000000  0.5471500000000  0.4578590000000 1.0
C      1  0.4634330000000  0.5110410000000  0.5767880000000 1.0
C      1  0.4867240000000  0.4094590000000  0.4636950000000 1.0
C      1  0.5617600000000  0.4913520000000  0.5713720000000 1.0
C      1  0.5237340000000  0.4865880000000  0.4140560000000 1.0
C      1  0.4336980000000  0.4924240000000  0.5227970000000 1.0
C      1  0.5567530000000  0.5613880000000  0.4990530000000 1.0
C      1  0.5454540000000  0.5348220000000  0.4320770000000 1.0
C      1  0.4970660000000  0.5810130000000  0.4422080000000 1.0
C      1  0.4482650000000  0.4718560000000  0.4238170000000 1.0
C      1  0.5755060000000  0.5386880000000  0.4986060000000 1.0
C      1  0.5602640000000  0.5633470000000  0.5479510000000 1.0
C      1  0.5147270000000  0.5405550000000  0.5383700000000 1.0
C      1  0.4268250000000  0.5609390000000  0.4893530000000 1.0
C      1  0.4745300000000  0.5154630000000  0.5099460000000 1.0
C      1  0.4711510000000  0.5766630000000  0.4563240000000 1.0
C      1  0.5441780000000  0.5088130000000  0.4787410000000 1.0
C      1  0.5649710000000  0.4624020000000  0.4508210000000 1.0
C      1  0.4942210000000  0.4948920000000  0.4119450000000 1.0
C      1  0.4400080000000  0.5139120000000  0.4343770000000 1.0
C      1  0.4111470000000  0.5008270000000  0.4737740000000 1.0
C      1  0.4489810000000  0.4518160000000  0.5432510000000 1.0
C      1  0.5624920000000  0.5475460000000  0.4531110000000 1.0
C      1  0.5928410000000  0.4860920000000  0.4877150000000 1.0
C      1  0.4981920000000  0.5121100000000  0.4549420000000 1.0
C      1  0.4641590000000  0.4266250000000  0.5416210000000 1.0
C      1  0.4092710000000  0.5457080000000  0.5087280000000 1.0
C      1  0.5287310000000  0.4170010000000  0.4405720000000 1.0
C      1  0.4176160000000  0.5038690000000  0.5623920000000 1.0
C      1  0.4470900000000  0.4242830000000  0.4932920000000 1.0
C      1  0.5691640000000  0.5254960000000  0.4727020000000 1.0
C      1  0.5858070000000  0.4928010000000  0.5157820000000 1.0
C      1  0.5113240000000  0.4705280000000  0.5818120000000 1.0
C      1  0.4915580000000  0.4311760000000  0.5549650000000 1.0
C      1  0.5336140000000  0.4551250000000  0.5892550000000 1.0
C      1  0.4875830000000  0.4625910000000  0.4944150000000 1.0
C      1  0.5529230000000  0.4754150000000  0.5500830000000 1.0
C      1  0.5212950000000  0.5675080000000  0.5248030000000 1.0
C      1  0.5562370000000  0.4239670000000  0.5091830000000 1.0
C      1  0.5873450000000  0.5034390000000  0.4643420000000 1.0
C      1  0.4841660000000  0.5295030000000  0.4774890000000 1.0
C      1  0.4896330000000  0.5653140000000  0.5693240000000 1.0
C      1  0.5482250000000  0.4526990000000  0.5662350000000 1.0
C      1  0.5536140000000  0.5178200000000  0.5709460000000 1.0
C      1  0.4947120000000  0.5914180000000  0.5604870000000 1.0
C      1  0.4890240000000  0.5214750000000  0.4265620000000 1.0
C      1  0.5272880000000  0.5019000000000  0.4557490000000 1.0
C      1  0.5752660000000  0.4696880000000  0.5315330000000 1.0
C      1  0.5196240000000  0.5839460000000  0.4640970000000 1.0
C      1  0.4950320000000  0.4486160000000  0.4280880000000 1.0
C      1  0.4779810000000  0.4828190000000  0.5160940000000 1.0
C      1  0.4347040000000  0.4948560000000  0.4144690000000 1.0
C      1  0.4515910000000  0.5727610000000  0.5019110000000 1.0
C      1  0.4426770000000  0.4542500000000  0.4914910000000 1.0
C      1  0.4618530000000  0.5322960000000  0.4316490000000 1.0
C      1  0.4632710000000  0.4691760000000  0.5620880000000 1.0
C      1  0.5324610000000  0.5187300000000  0.5263990000000 1.0
C      1  0.4872470000000  0.4546080000000  0.5742470000000 1.0
C      1  0.5582720000000  0.5774040000000  0.5223910000000 1.0
C      1  0.5106470000000  0.4990370000000  0.5893720000000 1.0
C      1  0.5352550000000  0.4593830000000  0.4646840000000 1.0
C      1  0.5122840000000  0.4723430000000  0.4847040000000 1.0
C      1  0.5626920000000  0.5330620000000  0.5464730000000 1.0
C      1  0.5268530000000  0.4878110000000  0.5326950000000 1.0
C      1  0.5725170000000  0.4442730000000  0.5200570000000 1.0
C      1  0.5317960000000  0.4733970000000  0.5064300000000 1.0
C      1  0.5197320000000  0.5893080000000  0.5477730000000 1.0
C      1  0.4495930000000  0.4686130000000  0.5184710000000 1.0
C      1  0.5681800000000  0.4435110000000  0.4300170000000 1.0
C      1  0.5111670000000  0.4348050000000  0.5314600000000 1.0
C      1  0.4374310000000  0.4614990000000  0.4488850000000 1.0
C      1  0.4778210000000  0.4715060000000  0.4213640000000 1.0
C      1  0.5104920000000  0.5448360000000  0.4826100000000 1.0
C      1  0.5715810000000  0.4898770000000  0.4421040000000 1.0
C      1  0.5758840000000  0.5206740000000  0.5215610000000 1.0
C      1  0.4693600000000  0.5512580000000  0.5521110000000 1.0
C      1  0.4686790000000  0.4194940000000  0.5131640000000 1.0
C      1  0.4438570000000  0.4898730000000  0.5741560000000 1.0
C      1  0.5272760000000  0.5236470000000  0.4972400000000 1.0
C      1  0.5215850000000  0.4583540000000  0.4232660000000 1.0
C      1  0.4937040000000  0.4345000000000  0.5059480000000 1.0
C      1  0.5078780000000  0.4169990000000  0.4847310000000 1.0
C      1  0.4863120000000  0.5300020000000  0.5376360000000 1.0
C      1  0.5546980000000  0.4820700000000  0.4884440000000 1.0
C      1  0.5416590000000  0.4370900000000  0.4230240000000 1.0
C      1  0.5329750000000  0.4280990000000  0.4688400000000 1.0
C      1  0.4004330000000  0.5111400000000  0.4999510000000 1.0
C      1  0.4044420000000  0.4912850000000  0.5219400000000 1.0
C      1  0.4727820000000  0.5879220000000  0.4840370000000 1.0
C      1  0.3939690000000  0.4949480000000  0.5479990000000 1.0
C      1  0.4316060000000  0.5404600000000  0.5286270000000 1.0
C      1  0.5029860000000  0.5576610000000  0.4253970000000 1.0
C      1  0.4594320000000  0.4145600000000  0.4696870000000 1.0
C      1  0.5444150000000  0.5039420000000  0.4321310000000 1.0
C      1  0.5187670000000  0.3963390000000  0.5027040000000 1.0
C      1  0.4985080000000  0.4199430000000  0.4380340000000 1.0
C      1  0.4222750000000  0.5212310000000  0.4560240000000 1.0
C      1  0.4950770000000  0.4828220000000  0.5424320000000 1.0
C      1  0.4658090000000  0.4617050000000  0.4739910000000 1.0
C      1  0.4180090000000  0.4723630000000  0.4684180000000 1.0
C      1  0.5467810000000  0.5674600000000  0.4710970000000 1.0
C      1  0.5198300000000  0.5440430000000  0.4457310000000 1.0
C      1  0.4511820000000  0.5643380000000  0.5302840000000 1.0
C      1  0.5313770000000  0.4138520000000  0.5223000000000 1.0
C      1  0.4887920000000  0.5081930000000  0.5595950000000 1.0
C      1  0.5379670000000  0.5718120000000  0.5654380000000 1.0
C      1  0.4452510000000  0.5173880000000  0.5144100000000 1.0
C      1  0.5020820000000  0.5681800000000  0.5015900000000 1.0
END
