TITL C-951338-5626-328 0.000432830760507018 125000 -147.826653781654 0 0 26 (C1) n - 1
REM
REM in /home/bkarasulu/work/CARBON/AIRSS/Generating-Clusters/EDIP-Nigel-Params/with-SteepDescent/Only-C1/SD-CG/HFTN-CG
REM
REM
REM
REM
REM
REM ./C.cell (11c1c37f851c82e70ff6c80c92926a4b)
REM
REM compiler GCC version 9.2.1 20190827 (Red Hat 9.2.1-1)
REM options -cpp -mtune=generic -march=x86-64 -g -O0 -fpre-include=/usr/include/finclude/math-vector-fortran.h
REM seed -2044038067 652142006 -1651015054 -1711271915 -365201286 811072758 578021007 1377966651 -998408540 1714203674 -714502606 26699111 1732648173 -974942075 -1808959686 -764568395 246065366 -2130968780 431655847 1861978818 -859265378 508770592 1203544458 149959086 741543666 2123611082 -1177510605 -1124431029 -214353278 -1947610262 -352203804 1767065448 1493729856
REM
CELL 1.54180   50.00000   50.00000   50.00000   90.00000   90.00000   90.00000
LATT -1
SFAC C  
C      1  0.5115030000000  0.4439760000000  0.4872570000000 1.0
C      1  0.4846660000000  0.5151400000000  0.4415920000000 1.0
C      1  0.4991590000000  0.4920690000000  0.4494070000000 1.0
C      1  0.5435220000000  0.4574190000000  0.5549670000000 1.0
C      1  0.4780250000000  0.4697800000000  0.5294090000000 1.0
C      1  0.5027390000000  0.5449480000000  0.4741560000000 1.0
C      1  0.4876250000000  0.5553680000000  0.5437710000000 1.0
C      1  0.5260270000000  0.5345920000000  0.4856990000000 1.0
C      1  0.5083460000000  0.5557830000000  0.5253470000000 1.0
C      1  0.5066610000000  0.4784270000000  0.5214930000000 1.0
C      1  0.4727990000000  0.5430110000000  0.5239330000000 1.0
C      1  0.4614850000000  0.4939220000000  0.5301510000000 1.0
C      1  0.5266600000000  0.4973330000000  0.4521500000000 1.0
C      1  0.4809590000000  0.5289630000000  0.4662260000000 1.0
C      1  0.4595030000000  0.4625090000000  0.5076000000000 1.0
C      1  0.5478340000000  0.5301730000000  0.5275590000000 1.0
C      1  0.4777300000000  0.5146840000000  0.5162930000000 1.0
C      1  0.5112070000000  0.4715810000000  0.4927890000000 1.0
C      1  0.5233840000000  0.5318860000000  0.5156340000000 1.0
C      1  0.5264870000000  0.4672740000000  0.5385450000000 1.0
C      1  0.5374850000000  0.5141510000000  0.4704760000000 1.0
C      1  0.4884610000000  0.4835360000000  0.4764320000000 1.0
C      1  0.5058490000000  0.5085460000000  0.5234100000000 1.0
C      1  0.4747960000000  0.5087340000000  0.4868320000000 1.0
C      1  0.4702460000000  0.4595260000000  0.4804220000000 1.0
C      1  0.4868420000000  0.4366700000000  0.4784490000000 1.0
END
