TITL C-951347-9520-652 -5.65840811275134e-05 125000 -475.584029794771 0 0 77 (C1) n - 1
REM
REM in /home/bkarasulu/work/CARBON/AIRSS/Generating-Clusters/EDIP-Nigel-Params/with-SteepDescent/Only-C1/SD-CG/HFTN-CG
REM
REM
REM
REM
REM
REM ./C.cell (11c1c37f851c82e70ff6c80c92926a4b)
REM
REM compiler GCC version 9.2.1 20190827 (Red Hat 9.2.1-1)
REM options -cpp -mtune=generic -march=x86-64 -g -O0 -fpre-include=/usr/include/finclude/math-vector-fortran.h
REM seed 1630797991 -8225261 1166456797 -319455453 287930582 1648154942 -1457185751 2099071849 -1008271201 -962311295 -1298244073 1723049366 -321353265 -1187403002 -319656734 1431092678 1381572122 1921352460 -1716279865 241870922 -693660398 1038936765 -1986632827 617138635 484186041 1311940697 -1648625845 424794499 -1393563957 -1514868487 -312379533 1580115080 2139393303
REM
CELL 1.54180   50.00000   50.00000   50.00000   90.00000   90.00000   90.00000
LATT -1
SFAC C  
C      1  0.5638390000000  0.5420670000000  0.5041660000000 1.0
C      1  0.5096310000000  0.4760730000000  0.4112650000000 1.0
C      1  0.5314000000000  0.4964850000000  0.5026200000000 1.0
C      1  0.5397790000000  0.4388730000000  0.5429800000000 1.0
C      1  0.4369130000000  0.5473550000000  0.5017340000000 1.0
C      1  0.4669940000000  0.4121550000000  0.4850160000000 1.0
C      1  0.5462930000000  0.4838920000000  0.4399030000000 1.0
C      1  0.4667070000000  0.5517130000000  0.5490750000000 1.0
C      1  0.4973730000000  0.4621840000000  0.5301810000000 1.0
C      1  0.5097610000000  0.5699810000000  0.5068290000000 1.0
C      1  0.5573710000000  0.5023780000000  0.4599610000000 1.0
C      1  0.4848200000000  0.4525630000000  0.5717340000000 1.0
C      1  0.5082220000000  0.5189400000000  0.4369920000000 1.0
C      1  0.5178620000000  0.5741920000000  0.4789410000000 1.0
C      1  0.4343370000000  0.5170260000000  0.4980800000000 1.0
C      1  0.5352310000000  0.4874930000000  0.5635560000000 1.0
C      1  0.5250740000000  0.4967680000000  0.4230460000000 1.0
C      1  0.4558630000000  0.4814460000000  0.4416740000000 1.0
C      1  0.4437160000000  0.5344300000000  0.5377890000000 1.0
C      1  0.4457470000000  0.5072020000000  0.5493040000000 1.0
C      1  0.5042350000000  0.5061290000000  0.5122080000000 1.0
C      1  0.4810200000000  0.5748710000000  0.5068800000000 1.0
C      1  0.4979130000000  0.5666410000000  0.4351290000000 1.0
C      1  0.4416080000000  0.5256590000000  0.4510360000000 1.0
C      1  0.4903050000000  0.4915030000000  0.5338230000000 1.0
C      1  0.4276720000000  0.5086240000000  0.4701210000000 1.0
C      1  0.5156410000000  0.5427140000000  0.5698530000000 1.0
C      1  0.4774620000000  0.4467880000000  0.5451220000000 1.0
C      1  0.4815230000000  0.4690700000000  0.4501540000000 1.0
C      1  0.5558890000000  0.5028130000000  0.5208120000000 1.0
C      1  0.4628120000000  0.5081020000000  0.5734230000000 1.0
C      1  0.5300760000000  0.4665180000000  0.4947600000000 1.0
C      1  0.4371110000000  0.4803030000000  0.4649080000000 1.0
C      1  0.5392700000000  0.4579950000000  0.4525370000000 1.0
C      1  0.5078470000000  0.4210310000000  0.4591800000000 1.0
C      1  0.4371760000000  0.5533760000000  0.4507960000000 1.0
C      1  0.4607260000000  0.4898240000000  0.5297080000000 1.0
C      1  0.4591980000000  0.5684920000000  0.5253660000000 1.0
C      1  0.5420770000000  0.4614450000000  0.5571440000000 1.0
C      1  0.5858420000000  0.5252150000000  0.5106100000000 1.0
C      1  0.4645220000000  0.4881130000000  0.5930070000000 1.0
C      1  0.4944290000000  0.5767810000000  0.4614950000000 1.0
C      1  0.5572070000000  0.4470840000000  0.4713410000000 1.0
C      1  0.5281610000000  0.5666230000000  0.5286680000000 1.0
C      1  0.4864950000000  0.5108580000000  0.4899020000000 1.0
C      1  0.4806210000000  0.4595830000000  0.4785230000000 1.0
C      1  0.5548640000000  0.4514520000000  0.4983430000000 1.0
C      1  0.4947940000000  0.4131450000000  0.4826840000000 1.0
C      1  0.4531160000000  0.4606750000000  0.5337210000000 1.0
C      1  0.5186490000000  0.4403790000000  0.4418110000000 1.0
C      1  0.4889460000000  0.5094040000000  0.5593220000000 1.0
C      1  0.4929120000000  0.5380090000000  0.5507780000000 1.0
C      1  0.4455170000000  0.5618190000000  0.4763900000000 1.0
C      1  0.4543950000000  0.4713520000000  0.4878600000000 1.0
C      1  0.5551650000000  0.5601450000000  0.5246170000000 1.0
C      1  0.5567080000000  0.5436390000000  0.4763160000000 1.0
C      1  0.4892050000000  0.4754020000000  0.5876160000000 1.0
C      1  0.4821720000000  0.5186630000000  0.4246210000000 1.0
C      1  0.5474870000000  0.5099690000000  0.5490310000000 1.0
C      1  0.5147660000000  0.5216760000000  0.5896160000000 1.0
C      1  0.5190230000000  0.5478360000000  0.4384720000000 1.0
C      1  0.5340170000000  0.5122040000000  0.4769350000000 1.0
C      1  0.5058890000000  0.5109610000000  0.4661870000000 1.0
C      1  0.4590580000000  0.4987530000000  0.5007990000000 1.0
C      1  0.5784100000000  0.4927810000000  0.4763760000000 1.0
C      1  0.4429220000000  0.4512710000000  0.5073910000000 1.0
C      1  0.5033800000000  0.4522070000000  0.5013400000000 1.0
C      1  0.4716540000000  0.5742200000000  0.4797670000000 1.0
C      1  0.5327430000000  0.5542860000000  0.4644930000000 1.0
C      1  0.5081340000000  0.4143380000000  0.5078010000000 1.0
C      1  0.4568230000000  0.5096560000000  0.4321740000000 1.0
C      1  0.5835020000000  0.4973210000000  0.5036890000000 1.0
C      1  0.5155680000000  0.4928940000000  0.5850450000000 1.0
C      1  0.5288940000000  0.4249060000000  0.5225860000000 1.0
C      1  0.4488260000000  0.4247950000000  0.5004160000000 1.0
C      1  0.5405280000000  0.5393540000000  0.5534490000000 1.0
C      1  0.4981630000000  0.4571130000000  0.4290040000000 1.0
END
