TITL C-950528-5794-579 8.23766374133858e-07 125000 -278.152912550384 0 0 47 (C1) n - 1
REM
REM in /home/bkarasulu/work/CARBON/AIRSS/Generating-Clusters/EDIP-Nigel-Params/with-SteepDescent/Only-C1/SD-CG/HFTN-CG
REM
REM
REM
REM
REM
REM ./C.cell (11c1c37f851c82e70ff6c80c92926a4b)
REM
REM compiler GCC version 9.2.1 20190827 (Red Hat 9.2.1-1)
REM options -cpp -mtune=generic -march=x86-64 -g -O0 -fpre-include=/usr/include/finclude/math-vector-fortran.h
REM seed 856953656 -845399710 1054876445 877358849 1698438691 493408627 406713210 -207588171 62669778 -2108659191 -2058689529 1875639717 1429602979 1699741236 -1434413107 1295994328 110553409 136195544 1027632240 831162958 -955690322 1900978939 -1160790569 -2046454649 1823530275 -446677046 -397317969 -1954172662 -1110689716 -1838876419 -185253827 211745150 -740497787
REM
CELL 1.54180   50.00000   50.00000   50.00000   90.00000   90.00000   90.00000
LATT -1
SFAC C  
C      1  0.5415450000000  0.4554710000000  0.4872620000000 1.0
C      1  0.4941440000000  0.4700850000000  0.5450520000000 1.0
C      1  0.5152610000000  0.5090240000000  0.5274040000000 1.0
C      1  0.4460850000000  0.4869950000000  0.5460290000000 1.0
C      1  0.5402110000000  0.5081430000000  0.4712650000000 1.0
C      1  0.4817200000000  0.4952580000000  0.4391730000000 1.0
C      1  0.4660880000000  0.5290670000000  0.4871260000000 1.0
C      1  0.5115660000000  0.5009480000000  0.4774360000000 1.0
C      1  0.4780340000000  0.5284880000000  0.4399470000000 1.0
C      1  0.4865550000000  0.5736490000000  0.4928150000000 1.0
C      1  0.4552750000000  0.4989150000000  0.4508300000000 1.0
C      1  0.5026330000000  0.4807320000000  0.4558480000000 1.0
C      1  0.4640270000000  0.5558270000000  0.5013180000000 1.0
C      1  0.4972650000000  0.5275270000000  0.4815240000000 1.0
C      1  0.5474250000000  0.4951760000000  0.4461810000000 1.0
C      1  0.5086190000000  0.5665590000000  0.5101890000000 1.0
C      1  0.4533250000000  0.5264970000000  0.4601040000000 1.0
C      1  0.5562190000000  0.4771910000000  0.4985820000000 1.0
C      1  0.4746040000000  0.4900440000000  0.5550930000000 1.0
C      1  0.5221420000000  0.4716430000000  0.5541430000000 1.0
C      1  0.4498910000000  0.5225650000000  0.5321990000000 1.0
C      1  0.4673290000000  0.4390920000000  0.5173610000000 1.0
C      1  0.4587130000000  0.4633010000000  0.5043830000000 1.0
C      1  0.5399310000000  0.5475050000000  0.4973330000000 1.0
C      1  0.4902170000000  0.5157930000000  0.5461530000000 1.0
C      1  0.5652080000000  0.4731990000000  0.4501780000000 1.0
C      1  0.4841600000000  0.5546070000000  0.5494410000000 1.0
C      1  0.5571490000000  0.4775240000000  0.5275820000000 1.0
C      1  0.5375100000000  0.4940890000000  0.5431130000000 1.0
C      1  0.5141660000000  0.5382020000000  0.5058390000000 1.0
C      1  0.5354080000000  0.4495710000000  0.5402230000000 1.0
C      1  0.4927680000000  0.5697180000000  0.4652030000000 1.0
C      1  0.5070000000000  0.4873880000000  0.5044760000000 1.0
C      1  0.4989660000000  0.5436320000000  0.4565960000000 1.0
C      1  0.4636340000000  0.5479050000000  0.5303760000000 1.0
C      1  0.5750940000000  0.4716460000000  0.4770040000000 1.0
C      1  0.5142540000000  0.4564580000000  0.4970650000000 1.0
C      1  0.4946790000000  0.5358260000000  0.5667700000000 1.0
C      1  0.5490770000000  0.5342120000000  0.4754590000000 1.0
C      1  0.4547440000000  0.5077830000000  0.5068430000000 1.0
C      1  0.5276040000000  0.4754900000000  0.4402340000000 1.0
C      1  0.4885440000000  0.4423350000000  0.5361510000000 1.0
C      1  0.4363630000000  0.4763870000000  0.5206530000000 1.0
C      1  0.4678220000000  0.4494950000000  0.4798350000000 1.0
C      1  0.4952800000000  0.4543860000000  0.4722010000000 1.0
C      1  0.4772000000000  0.4867980000000  0.5076470000000 1.0
C      1  0.5145450000000  0.4378540000000  0.5223610000000 1.0
END
