TITL C-951335-1172-577 1.96661033824804e-06 125000 -1092.70404494548 0 0 175 (C1) n - 1
REM
REM in /home/bkarasulu/work/CARBON/AIRSS/Generating-Clusters/EDIP-Nigel-Params/with-SteepDescent/Only-C1/SD-CG/HFTN-CG
REM
REM
REM
REM
REM
REM ./C.cell (11c1c37f851c82e70ff6c80c92926a4b)
REM
REM compiler GCC version 9.2.1 20190827 (Red Hat 9.2.1-1)
REM options -cpp -mtune=generic -march=x86-64 -g -O0 -fpre-include=/usr/include/finclude/math-vector-fortran.h
REM seed 603583106 2111892416 2090563711 -339077385 262970491 769906343 1720729847 793948163 1280698982 567010254 1497104106 1868182727 385289986 1635684332 666151297 1254225180 1521419918 1671401156 -1009820912 112876648 2079460383 -1511598871 67508299 85932695 1904259033 -1645781834 529712567 1922042769 -1933128375 2062174414 -2100181109 -1301759714 556116778
REM
CELL 1.54180   50.00000   50.00000   50.00000   90.00000   90.00000   90.00000
LATT -1
SFAC C  
C      1  0.4209130000000  0.4182460000000  0.4548380000000 1.0
C      1  0.5085120000000  0.4558540000000  0.3990900000000 1.0
C      1  0.5212090000000  0.5242490000000  0.3863090000000 1.0
C      1  0.5684310000000  0.4964680000000  0.5318900000000 1.0
C      1  0.4743840000000  0.5996360000000  0.4871790000000 1.0
C      1  0.5599090000000  0.4812130000000  0.5947180000000 1.0
C      1  0.4901560000000  0.4479600000000  0.5160930000000 1.0
C      1  0.4310520000000  0.4896090000000  0.5928990000000 1.0
C      1  0.5283400000000  0.4793000000000  0.5551530000000 1.0
C      1  0.4290930000000  0.4498010000000  0.4507150000000 1.0
C      1  0.4805190000000  0.4239960000000  0.4999460000000 1.0
C      1  0.5642500000000  0.4659820000000  0.4454110000000 1.0
C      1  0.4051200000000  0.4198450000000  0.4786330000000 1.0
C      1  0.5387340000000  0.5016560000000  0.5383840000000 1.0
C      1  0.5718530000000  0.5821660000000  0.4828880000000 1.0
C      1  0.4611220000000  0.4592690000000  0.5317480000000 1.0
C      1  0.4444710000000  0.5189370000000  0.5398270000000 1.0
C      1  0.4654970000000  0.4761770000000  0.5591370000000 1.0
C      1  0.5083270000000  0.3939250000000  0.4634880000000 1.0
C      1  0.3963970000000  0.4761160000000  0.4814640000000 1.0
C      1  0.5909640000000  0.5513580000000  0.4538300000000 1.0
C      1  0.4751030000000  0.5205910000000  0.3958360000000 1.0
C      1  0.4486780000000  0.4324420000000  0.5402740000000 1.0
C      1  0.5428620000000  0.4325240000000  0.5919060000000 1.0
C      1  0.6120250000000  0.4926510000000  0.5305560000000 1.0
C      1  0.5398720000000  0.3999720000000  0.5282410000000 1.0
C      1  0.5313880000000  0.5537930000000  0.4835540000000 1.0
C      1  0.5359660000000  0.6042140000000  0.5553070000000 1.0
C      1  0.5438040000000  0.5462790000000  0.4410940000000 1.0
C      1  0.4584530000000  0.5061430000000  0.5623740000000 1.0
C      1  0.5041340000000  0.5735280000000  0.4051280000000 1.0
C      1  0.4551530000000  0.4413870000000  0.4084570000000 1.0
C      1  0.5017750000000  0.5565540000000  0.4777590000000 1.0
C      1  0.5792980000000  0.4518910000000  0.5604080000000 1.0
C      1  0.6214980000000  0.4672080000000  0.5236070000000 1.0
C      1  0.5180740000000  0.5502320000000  0.5492830000000 1.0
C      1  0.5055040000000  0.4376910000000  0.5424560000000 1.0
C      1  0.4537500000000  0.4752680000000  0.4863360000000 1.0
C      1  0.4604980000000  0.3970290000000  0.4366620000000 1.0
C      1  0.5497840000000  0.4576920000000  0.6083390000000 1.0
C      1  0.5107620000000  0.4360610000000  0.5940570000000 1.0
C      1  0.4482050000000  0.4063570000000  0.4615570000000 1.0
C      1  0.5351460000000  0.4904110000000  0.4902100000000 1.0
C      1  0.4836500000000  0.5225280000000  0.5694500000000 1.0
C      1  0.4485230000000  0.4146070000000  0.4169570000000 1.0
C      1  0.5297230000000  0.4390810000000  0.4116930000000 1.0
C      1  0.4241700000000  0.5532550000000  0.4568500000000 1.0
C      1  0.5426760000000  0.5799050000000  0.4736930000000 1.0
C      1  0.4388480000000  0.5161580000000  0.4960830000000 1.0
C      1  0.5519700000000  0.4567330000000  0.5215190000000 1.0
C      1  0.5685880000000  0.5786770000000  0.5329790000000 1.0
C      1  0.4169940000000  0.5293800000000  0.5456400000000 1.0
C      1  0.4924110000000  0.4868470000000  0.4367170000000 1.0
C      1  0.5483020000000  0.4040980000000  0.5005990000000 1.0
C      1  0.5751550000000  0.4150620000000  0.4947510000000 1.0
C      1  0.5406090000000  0.5823210000000  0.5738310000000 1.0
C      1  0.4409140000000  0.4980340000000  0.4737810000000 1.0
C      1  0.4768660000000  0.5787470000000  0.3990380000000 1.0
C      1  0.5184030000000  0.4437940000000  0.4884480000000 1.0
C      1  0.4590250000000  0.5386280000000  0.4977910000000 1.0
C      1  0.5784000000000  0.5332830000000  0.4754500000000 1.0
C      1  0.5906550000000  0.4310730000000  0.5140020000000 1.0
C      1  0.5015280000000  0.5216370000000  0.5124280000000 1.0
C      1  0.4610600000000  0.5410780000000  0.5281240000000 1.0
C      1  0.5030220000000  0.4786740000000  0.5698520000000 1.0
C      1  0.5629310000000  0.4426430000000  0.4277810000000 1.0
C      1  0.5165790000000  0.5632090000000  0.5765780000000 1.0
C      1  0.4497240000000  0.5118180000000  0.5999200000000 1.0
C      1  0.4394780000000  0.5772110000000  0.4626780000000 1.0
C      1  0.4953580000000  0.4099520000000  0.5484160000000 1.0
C      1  0.5007530000000  0.6087770000000  0.4456750000000 1.0
C      1  0.5981610000000  0.4988540000000  0.5574150000000 1.0
C      1  0.4950590000000  0.5585760000000  0.4471720000000 1.0
C      1  0.4571820000000  0.5983630000000  0.5131830000000 1.0
C      1  0.4209870000000  0.4365550000000  0.4952480000000 1.0
C      1  0.5967330000000  0.4666700000000  0.4827000000000 1.0
C      1  0.5703850000000  0.4565090000000  0.4727750000000 1.0
C      1  0.4055000000000  0.4944080000000  0.5833410000000 1.0
C      1  0.5542820000000  0.4098160000000  0.5504340000000 1.0
C      1  0.5638790000000  0.5376660000000  0.5616470000000 1.0
C      1  0.4490300000000  0.4604180000000  0.4303100000000 1.0
C      1  0.4127200000000  0.5506660000000  0.4853090000000 1.0
C      1  0.4619340000000  0.4892990000000  0.4303160000000 1.0
C      1  0.5251500000000  0.5755360000000  0.5331480000000 1.0
C      1  0.5770080000000  0.5112920000000  0.4359690000000 1.0
C      1  0.4425360000000  0.4753950000000  0.5130070000000 1.0
C      1  0.5225350000000  0.5438160000000  0.5967810000000 1.0
C      1  0.5531220000000  0.4358700000000  0.5630120000000 1.0
C      1  0.5815470000000  0.4774630000000  0.5743430000000 1.0
C      1  0.5646790000000  0.5676060000000  0.5606540000000 1.0
C      1  0.5984010000000  0.5075750000000  0.4556270000000 1.0
C      1  0.5128160000000  0.5357630000000  0.4359460000000 1.0
C      1  0.5255230000000  0.4278960000000  0.4409930000000 1.0
C      1  0.4969650000000  0.4484710000000  0.5706630000000 1.0
C      1  0.4738070000000  0.6055440000000  0.4575350000000 1.0
C      1  0.4442250000000  0.4484070000000  0.4776320000000 1.0
C      1  0.5620540000000  0.4183830000000  0.4448050000000 1.0
C      1  0.3986820000000  0.5206720000000  0.5233810000000 1.0
C      1  0.4651960000000  0.4276410000000  0.4751820000000 1.0
C      1  0.5041590000000  0.5112440000000  0.4553930000000 1.0
C      1  0.6092590000000  0.4510100000000  0.5042180000000 1.0
C      1  0.4755840000000  0.5459000000000  0.5877680000000 1.0
C      1  0.5387670000000  0.5290580000000  0.5508230000000 1.0
C      1  0.4669950000000  0.5475250000000  0.4226590000000 1.0
C      1  0.4196320000000  0.5186470000000  0.4238230000000 1.0
C      1  0.5089040000000  0.4846680000000  0.4097960000000 1.0
C      1  0.4059740000000  0.5171330000000  0.5689970000000 1.0
C      1  0.5105130000000  0.3958640000000  0.5277830000000 1.0
C      1  0.5107900000000  0.5820980000000  0.4344250000000 1.0
C      1  0.5833340000000  0.5228630000000  0.5459200000000 1.0
C      1  0.4919830000000  0.5358310000000  0.5380080000000 1.0
C      1  0.4982300000000  0.5031300000000  0.5889840000000 1.0
C      1  0.5339150000000  0.5052130000000  0.4642530000000 1.0
C      1  0.5474700000000  0.5046590000000  0.6033820000000 1.0
C      1  0.4442760000000  0.5678710000000  0.4930040000000 1.0
C      1  0.4502790000000  0.4672950000000  0.5860060000000 1.0
C      1  0.4670390000000  0.4113300000000  0.5461070000000 1.0
C      1  0.4990980000000  0.5043150000000  0.3884690000000 1.0
C      1  0.5186080000000  0.6213690000000  0.4634650000000 1.0
C      1  0.5223570000000  0.5166610000000  0.6017540000000 1.0
C      1  0.4129340000000  0.4645500000000  0.5051780000000 1.0
C      1  0.3973540000000  0.5059040000000  0.4750110000000 1.0
C      1  0.5181710000000  0.4507180000000  0.4597510000000 1.0
C      1  0.5790320000000  0.4631460000000  0.5323710000000 1.0
C      1  0.5245070000000  0.4129830000000  0.4833170000000 1.0
C      1  0.4068350000000  0.4542180000000  0.5508670000000 1.0
C      1  0.3961630000000  0.4678640000000  0.5292700000000 1.0
C      1  0.5004560000000  0.5832580000000  0.5204710000000 1.0
C      1  0.4697910000000  0.4693930000000  0.6079700000000 1.0
C      1  0.4868160000000  0.5724560000000  0.5796550000000 1.0
C      1  0.4993100000000  0.4013860000000  0.4998430000000 1.0
C      1  0.4870430000000  0.4322310000000  0.4366780000000 1.0
C      1  0.4121910000000  0.4987490000000  0.4473230000000 1.0
C      1  0.4854790000000  0.4371910000000  0.4062420000000 1.0
C      1  0.4285800000000  0.5080690000000  0.3997920000000 1.0
C      1  0.4372060000000  0.4415260000000  0.5851430000000 1.0
C      1  0.5236400000000  0.5032950000000  0.5132240000000 1.0
C      1  0.5525470000000  0.4932940000000  0.4397690000000 1.0
C      1  0.4290430000000  0.5585640000000  0.5794000000000 1.0
C      1  0.5527780000000  0.6024710000000  0.5322940000000 1.0
C      1  0.5208000000000  0.4562040000000  0.6135630000000 1.0
C      1  0.4054290000000  0.4683430000000  0.4527780000000 1.0
C      1  0.4595510000000  0.5849000000000  0.4444330000000 1.0
C      1  0.4555630000000  0.5838100000000  0.4162070000000 1.0
C      1  0.5726530000000  0.5405020000000  0.4319980000000 1.0
C      1  0.4105200000000  0.5234800000000  0.4956390000000 1.0
C      1  0.5997310000000  0.4955120000000  0.4821350000000 1.0
C      1  0.5342210000000  0.4520720000000  0.5448380000000 1.0
C      1  0.4471100000000  0.5441540000000  0.5957480000000 1.0
C      1  0.5877770000000  0.5375360000000  0.5043720000000 1.0
C      1  0.4702120000000  0.5853650000000  0.5592460000000 1.0
C      1  0.5445260000000  0.4620180000000  0.4934890000000 1.0
C      1  0.4787200000000  0.5962110000000  0.5339530000000 1.0
C      1  0.4927820000000  0.4608230000000  0.4517590000000 1.0
C      1  0.5000540000000  0.5861740000000  0.4918980000000 1.0
C      1  0.3888630000000  0.4950450000000  0.5302780000000 1.0
C      1  0.5241460000000  0.6017850000000  0.4826610000000 1.0
C      1  0.4545600000000  0.5096990000000  0.4513340000000 1.0
C      1  0.5374170000000  0.4934730000000  0.4139180000000 1.0
C      1  0.4464910000000  0.5672310000000  0.5356090000000 1.0
C      1  0.4757540000000  0.4972190000000  0.6081510000000 1.0
C      1  0.5747830000000  0.4279850000000  0.4686420000000 1.0
C      1  0.4885110000000  0.5298690000000  0.4866400000000 1.0
C      1  0.4225420000000  0.5587170000000  0.5519470000000 1.0
C      1  0.4909910000000  0.4008690000000  0.4405590000000 1.0
C      1  0.5890370000000  0.5782060000000  0.4609450000000 1.0
C      1  0.5789670000000  0.5665260000000  0.5079320000000 1.0
C      1  0.5065770000000  0.5429030000000  0.4064800000000 1.0
C      1  0.4269550000000  0.4368460000000  0.5596100000000 1.0
C      1  0.5469470000000  0.5333710000000  0.4689000000000 1.0
C      1  0.6024340000000  0.5102770000000  0.5077530000000 1.0
C      1  0.4410090000000  0.5336280000000  0.4389580000000 1.0
C      1  0.5395190000000  0.5762150000000  0.4436320000000 1.0
C      1  0.4553120000000  0.5013810000000  0.4038870000000 1.0
C      1  0.5450960000000  0.5126780000000  0.3952040000000 1.0
END
