TITL C-950523-3027-563 -1.64190577184028e-06 125000 -699.012818195934 0 0 114 (C1) n - 1
REM
REM in /home/bkarasulu/work/CARBON/AIRSS/Generating-Clusters/EDIP-Nigel-Params/with-SteepDescent/Only-C1/SD-CG/HFTN-CG
REM
REM
REM
REM
REM
REM ./C.cell (11c1c37f851c82e70ff6c80c92926a4b)
REM
REM compiler GCC version 9.2.1 20190827 (Red Hat 9.2.1-1)
REM options -cpp -mtune=generic -march=x86-64 -g -O0 -fpre-include=/usr/include/finclude/math-vector-fortran.h
REM seed 1170572129 334934691 2035579737 1920474338 1470033535 666227008 -332289125 -1818518918 -916405239 -68036387 327426742 -423671378 -2064958573 -84323125 2120916539 2027653261 -312507970 -794947928 -93920097 851257917 2062355602 1407344 1944203178 1741171592 -1257504424 307812103 -887562390 -1770605205 451490 69835923 -815345121 701766662 1718362035
REM
CELL 1.54180   50.00000   50.00000   50.00000   90.00000   90.00000   90.00000
LATT -1
SFAC C  
C      1  0.5634010000000  0.5483080000000  0.5781240000000 1.0
C      1  0.5040750000000  0.5774960000000  0.5452820000000 1.0
C      1  0.4376290000000  0.4708550000000  0.4605490000000 1.0
C      1  0.5712410000000  0.4689770000000  0.5324360000000 1.0
C      1  0.4485460000000  0.4483230000000  0.5801190000000 1.0
C      1  0.5573600000000  0.5790060000000  0.5417220000000 1.0
C      1  0.5402880000000  0.5623190000000  0.4306050000000 1.0
C      1  0.5970000000000  0.5138360000000  0.5000760000000 1.0
C      1  0.5796890000000  0.4999350000000  0.4342460000000 1.0
C      1  0.5053970000000  0.5710970000000  0.4606090000000 1.0
C      1  0.4898400000000  0.4631080000000  0.5735150000000 1.0
C      1  0.4497180000000  0.5163380000000  0.4650070000000 1.0
C      1  0.5354010000000  0.4842210000000  0.4509140000000 1.0
C      1  0.5325420000000  0.5904430000000  0.5018770000000 1.0
C      1  0.4619040000000  0.4308300000000  0.4489350000000 1.0
C      1  0.4212360000000  0.5028870000000  0.5377600000000 1.0
C      1  0.5124170000000  0.4970290000000  0.5495650000000 1.0
C      1  0.4788020000000  0.5856790000000  0.5037000000000 1.0
C      1  0.5264740000000  0.5146650000000  0.4536920000000 1.0
C      1  0.4748940000000  0.4980770000000  0.4551880000000 1.0
C      1  0.4861430000000  0.5451160000000  0.4704720000000 1.0
C      1  0.5142590000000  0.5500870000000  0.5039020000000 1.0
C      1  0.4305080000000  0.4615220000000  0.5617470000000 1.0
C      1  0.5539550000000  0.4919990000000  0.4901980000000 1.0
C      1  0.4608290000000  0.5717680000000  0.5233620000000 1.0
C      1  0.5068030000000  0.5052930000000  0.4153610000000 1.0
C      1  0.4613220000000  0.5254600000000  0.4093010000000 1.0
C      1  0.4995320000000  0.4090390000000  0.5127970000000 1.0
C      1  0.5701510000000  0.5495330000000  0.4694620000000 1.0
C      1  0.5279460000000  0.5815830000000  0.4754260000000 1.0
C      1  0.5398170000000  0.4549430000000  0.5653320000000 1.0
C      1  0.5276420000000  0.4723620000000  0.5333290000000 1.0
C      1  0.5578480000000  0.5793720000000  0.5135600000000 1.0
C      1  0.4842450000000  0.4844510000000  0.5519680000000 1.0
C      1  0.4531440000000  0.5167330000000  0.5006770000000 1.0
C      1  0.4069650000000  0.5069910000000  0.4742810000000 1.0
C      1  0.4980540000000  0.5156270000000  0.4668630000000 1.0
C      1  0.5792460000000  0.4918970000000  0.5052820000000 1.0
C      1  0.4998440000000  0.5042970000000  0.4960380000000 1.0
C      1  0.5257280000000  0.4062170000000  0.4725400000000 1.0
C      1  0.4444530000000  0.4159600000000  0.4650840000000 1.0
C      1  0.4272040000000  0.5541340000000  0.4919720000000 1.0
C      1  0.4791480000000  0.4441100000000  0.4695260000000 1.0
C      1  0.4753950000000  0.5721900000000  0.5495000000000 1.0
C      1  0.4472930000000  0.5437320000000  0.4508260000000 1.0
C      1  0.5131310000000  0.5676600000000  0.4325190000000 1.0
C      1  0.5226400000000  0.4957510000000  0.5782860000000 1.0
C      1  0.4242240000000  0.4550180000000  0.5256320000000 1.0
C      1  0.4727850000000  0.4719330000000  0.5966270000000 1.0
C      1  0.4713540000000  0.5808440000000  0.4758870000000 1.0
C      1  0.4726590000000  0.4142490000000  0.5525930000000 1.0
C      1  0.5626020000000  0.4438960000000  0.5224080000000 1.0
C      1  0.5400000000000  0.5360380000000  0.5037390000000 1.0
C      1  0.4338380000000  0.4902530000000  0.5613310000000 1.0
C      1  0.5857720000000  0.5345910000000  0.5154100000000 1.0
C      1  0.4753470000000  0.4733840000000  0.5265830000000 1.0
C      1  0.4958600000000  0.4652420000000  0.4556310000000 1.0
C      1  0.4993780000000  0.5424940000000  0.5784130000000 1.0
C      1  0.4904330000000  0.5276030000000  0.4062710000000 1.0
C      1  0.5353720000000  0.5103080000000  0.4155610000000 1.0
C      1  0.4954740000000  0.5299800000000  0.5106210000000 1.0
C      1  0.4949370000000  0.4778320000000  0.4132640000000 1.0
C      1  0.4454140000000  0.4411260000000  0.5106250000000 1.0
C      1  0.5120260000000  0.4510400000000  0.5184520000000 1.0
C      1  0.4104670000000  0.5329770000000  0.4839160000000 1.0
C      1  0.5192650000000  0.4240630000000  0.5290330000000 1.0
C      1  0.5468710000000  0.5655860000000  0.5639010000000 1.0
C      1  0.5078920000000  0.4566510000000  0.4294050000000 1.0
C      1  0.5188770000000  0.4656940000000  0.5820980000000 1.0
C      1  0.5467290000000  0.4205740000000  0.5188060000000 1.0
C      1  0.4618980000000  0.5014650000000  0.5648110000000 1.0
C      1  0.5072160000000  0.5777560000000  0.5147300000000 1.0
C      1  0.4393870000000  0.4220040000000  0.4909050000000 1.0
C      1  0.4489700000000  0.4554390000000  0.4367120000000 1.0
C      1  0.5656990000000  0.5523020000000  0.5004970000000 1.0
C      1  0.4648360000000  0.4758220000000  0.4185990000000 1.0
C      1  0.4711980000000  0.5422970000000  0.5001530000000 1.0
C      1  0.4729950000000  0.5483800000000  0.5659460000000 1.0
C      1  0.4730930000000  0.4383130000000  0.5672680000000 1.0
C      1  0.4938390000000  0.5551990000000  0.4152190000000 1.0
C      1  0.5006580000000  0.5148880000000  0.5919410000000 1.0
C      1  0.5577340000000  0.5442940000000  0.4427760000000 1.0
C      1  0.4566100000000  0.5499320000000  0.4241880000000 1.0
C      1  0.5034320000000  0.4229970000000  0.4850940000000 1.0
C      1  0.5188230000000  0.5589930000000  0.5621320000000 1.0
C      1  0.5186370000000  0.4712290000000  0.4729720000000 1.0
C      1  0.5652290000000  0.4811790000000  0.4490450000000 1.0
C      1  0.4751060000000  0.4046330000000  0.5267110000000 1.0
C      1  0.5756130000000  0.5206550000000  0.5384850000000 1.0
C      1  0.4027150000000  0.4882170000000  0.4942760000000 1.0
C      1  0.5389540000000  0.4198720000000  0.4506670000000 1.0
C      1  0.4734480000000  0.4432910000000  0.5233110000000 1.0
C      1  0.4607500000000  0.5268140000000  0.5513060000000 1.0
C      1  0.4169560000000  0.4822120000000  0.5175100000000 1.0
C      1  0.5554770000000  0.4380040000000  0.4659950000000 1.0
C      1  0.4727170000000  0.5018030000000  0.5935130000000 1.0
C      1  0.5386920000000  0.5163070000000  0.5280810000000 1.0
C      1  0.4517170000000  0.5015890000000  0.4235190000000 1.0
C      1  0.5381750000000  0.4518600000000  0.4302930000000 1.0
C      1  0.5531190000000  0.4993720000000  0.5750810000000 1.0
C      1  0.4461890000000  0.5643550000000  0.4712800000000 1.0
C      1  0.5308550000000  0.4926710000000  0.5097000000000 1.0
C      1  0.4345160000000  0.5555060000000  0.5203810000000 1.0
C      1  0.4279720000000  0.4985380000000  0.4544740000000 1.0
C      1  0.5259310000000  0.4471730000000  0.4889070000000 1.0
C      1  0.5608500000000  0.5195240000000  0.4269880000000 1.0
C      1  0.5617460000000  0.4735390000000  0.5607010000000 1.0
C      1  0.4609080000000  0.4688740000000  0.4803420000000 1.0
C      1  0.5718100000000  0.4539830000000  0.4490700000000 1.0
C      1  0.5448520000000  0.4063140000000  0.4941190000000 1.0
C      1  0.5472210000000  0.5191330000000  0.4772140000000 1.0
C      1  0.4721080000000  0.4900320000000  0.5019500000000 1.0
C      1  0.5630590000000  0.5242400000000  0.5637410000000 1.0
C      1  0.4396150000000  0.5263640000000  0.5296620000000 1.0
END
