TITL C-951341-1326-173 -2.41534586120439e-06 125000 -1178.58505193544 0 0 188 (C1) n - 1
REM
REM in /home/bkarasulu/work/CARBON/AIRSS/Generating-Clusters/EDIP-Nigel-Params/with-SteepDescent/Only-C1/SD-CG/HFTN-CG
REM
REM
REM
REM
REM
REM ./C.cell (11c1c37f851c82e70ff6c80c92926a4b)
REM
REM compiler GCC version 9.2.1 20190827 (Red Hat 9.2.1-1)
REM options -cpp -mtune=generic -march=x86-64 -g -O0 -fpre-include=/usr/include/finclude/math-vector-fortran.h
REM seed 1884924882 -743732706 1087350412 1683592833 -425372633 1850378866 1532917220 209189880 -1596683223 1425663088 1833133606 677453739 1455739504 -1787937653 -1134224475 -197750576 -2063440790 27827756 922175269 1546383107 -703214309 -861515433 -658696125 -1977816234 1091548316 992799353 -2044150946 -300200475 1123558646 -682143153 -1684406331 -1830011444 1797536832
REM
CELL 1.54180   50.00000   50.00000   50.00000   90.00000   90.00000   90.00000
LATT -1
SFAC C  
C      1  0.4703230000000  0.5179870000000  0.3891260000000 1.0
C      1  0.4823990000000  0.4723140000000  0.4721120000000 1.0
C      1  0.4852830000000  0.5987950000000  0.5400490000000 1.0
C      1  0.4625260000000  0.5015480000000  0.5416350000000 1.0
C      1  0.4453640000000  0.5819090000000  0.5037120000000 1.0
C      1  0.6118700000000  0.5261050000000  0.5359600000000 1.0
C      1  0.5350530000000  0.4688150000000  0.5311850000000 1.0
C      1  0.4160200000000  0.5784100000000  0.5049120000000 1.0
C      1  0.5310870000000  0.5415440000000  0.5489680000000 1.0
C      1  0.5680750000000  0.5977420000000  0.4837610000000 1.0
C      1  0.4081350000000  0.4880650000000  0.5767480000000 1.0
C      1  0.5107840000000  0.5484040000000  0.4158990000000 1.0
C      1  0.5063710000000  0.4841820000000  0.4601400000000 1.0
C      1  0.4802440000000  0.3835830000000  0.5269130000000 1.0
C      1  0.4061780000000  0.5292190000000  0.4359000000000 1.0
C      1  0.3962020000000  0.4778360000000  0.4961830000000 1.0
C      1  0.4700940000000  0.4364940000000  0.5057280000000 1.0
C      1  0.5380520000000  0.4480690000000  0.5066400000000 1.0
C      1  0.4693040000000  0.4095690000000  0.5336240000000 1.0
C      1  0.5004890000000  0.5158000000000  0.5137220000000 1.0
C      1  0.5421340000000  0.4489920000000  0.4312560000000 1.0
C      1  0.4422540000000  0.4753110000000  0.5021930000000 1.0
C      1  0.5798390000000  0.4850740000000  0.5552050000000 1.0
C      1  0.4186780000000  0.4304170000000  0.5001840000000 1.0
C      1  0.5579070000000  0.4599810000000  0.5525360000000 1.0
C      1  0.4707960000000  0.4392040000000  0.4184500000000 1.0
C      1  0.5311150000000  0.5316760000000  0.4733330000000 1.0
C      1  0.5232730000000  0.4050460000000  0.5324550000000 1.0
C      1  0.4279060000000  0.5199700000000  0.5012740000000 1.0
C      1  0.5417770000000  0.5159080000000  0.5390380000000 1.0
C      1  0.5400290000000  0.4153750000000  0.5099980000000 1.0
C      1  0.5551540000000  0.4891890000000  0.4925150000000 1.0
C      1  0.5674520000000  0.5350490000000  0.4986300000000 1.0
C      1  0.5727500000000  0.4503020000000  0.4286740000000 1.0
C      1  0.4442300000000  0.4477270000000  0.4938710000000 1.0
C      1  0.3764170000000  0.4609140000000  0.5378870000000 1.0
C      1  0.4014260000000  0.5000570000000  0.4412210000000 1.0
C      1  0.5823170000000  0.5521780000000  0.5745310000000 1.0
C      1  0.3992780000000  0.4502110000000  0.4832420000000 1.0
C      1  0.4573590000000  0.5956860000000  0.4802990000000 1.0
C      1  0.5301480000000  0.5035810000000  0.5149830000000 1.0
C      1  0.5908290000000  0.5205450000000  0.4316330000000 1.0
C      1  0.4959860000000  0.5915650000000  0.4375520000000 1.0
C      1  0.5366760000000  0.6099140000000  0.5298490000000 1.0
C      1  0.5275730000000  0.5085730000000  0.3940040000000 1.0
C      1  0.4575160000000  0.5873770000000  0.5312450000000 1.0
C      1  0.4137340000000  0.4519620000000  0.4266380000000 1.0
C      1  0.5739350000000  0.4358910000000  0.4781580000000 1.0
C      1  0.5658560000000  0.4045600000000  0.5446180000000 1.0
C      1  0.5700780000000  0.5106990000000  0.5398870000000 1.0
C      1  0.5213870000000  0.5591650000000  0.4731740000000 1.0
C      1  0.5638810000000  0.4999380000000  0.4657020000000 1.0
C      1  0.5091140000000  0.4785190000000  0.5447200000000 1.0
C      1  0.5563550000000  0.5668630000000  0.5506530000000 1.0
C      1  0.5986250000000  0.5355440000000  0.4566670000000 1.0
C      1  0.4801480000000  0.3937970000000  0.4766970000000 1.0
C      1  0.5190450000000  0.5068510000000  0.6197600000000 1.0
C      1  0.4831260000000  0.5444340000000  0.4024810000000 1.0
C      1  0.4353460000000  0.4927430000000  0.5878930000000 1.0
C      1  0.6030250000000  0.4958730000000  0.4859010000000 1.0
C      1  0.4958100000000  0.4532100000000  0.5450750000000 1.0
C      1  0.4412400000000  0.5104290000000  0.3960160000000 1.0
C      1  0.5538450000000  0.5121140000000  0.5871380000000 1.0
C      1  0.4227830000000  0.4883460000000  0.4587730000000 1.0
C      1  0.4488880000000  0.4915910000000  0.4421490000000 1.0
C      1  0.4692780000000  0.4074290000000  0.4529510000000 1.0
C      1  0.5030670000000  0.4685310000000  0.3754930000000 1.0
C      1  0.5436790000000  0.4567820000000  0.5794050000000 1.0
C      1  0.4432830000000  0.5213750000000  0.5877410000000 1.0
C      1  0.4128800000000  0.4270650000000  0.5302780000000 1.0
C      1  0.4859660000000  0.5135810000000  0.4874870000000 1.0
C      1  0.4428060000000  0.4500420000000  0.4129170000000 1.0
C      1  0.5537260000000  0.5242540000000  0.4283850000000 1.0
C      1  0.4931190000000  0.5051910000000  0.5417580000000 1.0
C      1  0.4963680000000  0.4550330000000  0.4111910000000 1.0
C      1  0.4023860000000  0.5293470000000  0.5151630000000 1.0
C      1  0.5044360000000  0.6125670000000  0.5213160000000 1.0
C      1  0.5884940000000  0.4194970000000  0.5013250000000 1.0
C      1  0.4425610000000  0.4164020000000  0.4594270000000 1.0
C      1  0.5941730000000  0.4369060000000  0.5253540000000 1.0
C      1  0.4420960000000  0.4259480000000  0.5639780000000 1.0
C      1  0.4692880000000  0.5820320000000  0.4344140000000 1.0
C      1  0.4077460000000  0.4624710000000  0.5604180000000 1.0
C      1  0.4912820000000  0.4488280000000  0.4869710000000 1.0
C      1  0.3922430000000  0.5089820000000  0.5344870000000 1.0
C      1  0.4709230000000  0.5258960000000  0.6017810000000 1.0
C      1  0.4710780000000  0.4187350000000  0.5632910000000 1.0
C      1  0.4273340000000  0.4093480000000  0.5466480000000 1.0
C      1  0.5891720000000  0.5637870000000  0.4573690000000 1.0
C      1  0.5365690000000  0.5723770000000  0.4496520000000 1.0
C      1  0.4435890000000  0.4466220000000  0.4635000000000 1.0
C      1  0.5739960000000  0.5084160000000  0.5091500000000 1.0
C      1  0.5209940000000  0.4544050000000  0.4808360000000 1.0
C      1  0.4757370000000  0.4124880000000  0.4260780000000 1.0
C      1  0.5153800000000  0.5609320000000  0.5286030000000 1.0
C      1  0.5757730000000  0.4934700000000  0.5842360000000 1.0
C      1  0.4942110000000  0.5446610000000  0.5178010000000 1.0
C      1  0.4034560000000  0.5585490000000  0.5250320000000 1.0
C      1  0.5227420000000  0.5863640000000  0.5717780000000 1.0
C      1  0.5257630000000  0.5754430000000  0.5010580000000 1.0
C      1  0.5875670000000  0.4504530000000  0.4548800000000 1.0
C      1  0.4247560000000  0.5320510000000  0.4082960000000 1.0
C      1  0.5857650000000  0.5569300000000  0.5058180000000 1.0
C      1  0.4913870000000  0.5044660000000  0.6081830000000 1.0
C      1  0.4699720000000  0.5389090000000  0.4814420000000 1.0
C      1  0.5594010000000  0.5554850000000  0.5922500000000 1.0
C      1  0.4616110000000  0.5502350000000  0.5542840000000 1.0
C      1  0.4876000000000  0.5526820000000  0.5667770000000 1.0
C      1  0.5302380000000  0.4599320000000  0.3844900000000 1.0
C      1  0.4864510000000  0.5930590000000  0.4743460000000 1.0
C      1  0.4391690000000  0.5354950000000  0.4780420000000 1.0
C      1  0.5445730000000  0.5951680000000  0.5554540000000 1.0
C      1  0.5052220000000  0.4803540000000  0.4281700000000 1.0
C      1  0.4529780000000  0.4769910000000  0.5696000000000 1.0
C      1  0.4166150000000  0.4577540000000  0.4571420000000 1.0
C      1  0.5015390000000  0.5051070000000  0.4092810000000 1.0
C      1  0.5546010000000  0.4753710000000  0.5994110000000 1.0
C      1  0.5676530000000  0.4028580000000  0.5147320000000 1.0
C      1  0.4903650000000  0.5290900000000  0.4432710000000 1.0
C      1  0.4579360000000  0.4784660000000  0.5254770000000 1.0
C      1  0.5357280000000  0.5331160000000  0.4068940000000 1.0
C      1  0.5750730000000  0.4324530000000  0.5473790000000 1.0
C      1  0.4900740000000  0.5566520000000  0.4633540000000 1.0
C      1  0.4069310000000  0.4811860000000  0.4178110000000 1.0
C      1  0.4905170000000  0.4423250000000  0.5719970000000 1.0
C      1  0.4163970000000  0.5502530000000  0.4636400000000 1.0
C      1  0.4874910000000  0.4907760000000  0.3867240000000 1.0
C      1  0.5864450000000  0.5346520000000  0.5504590000000 1.0
C      1  0.4689330000000  0.4526830000000  0.5325880000000 1.0
C      1  0.5355420000000  0.4785250000000  0.4271960000000 1.0
C      1  0.5644990000000  0.4595320000000  0.4965430000000 1.0
C      1  0.5246790000000  0.4397400000000  0.4070380000000 1.0
C      1  0.6082100000000  0.4811090000000  0.5119460000000 1.0
C      1  0.5068020000000  0.5974930000000  0.4958900000000 1.0
C      1  0.5070030000000  0.3950900000000  0.4890380000000 1.0
C      1  0.4371100000000  0.4543050000000  0.5558080000000 1.0
C      1  0.5105220000000  0.4599010000000  0.6137550000000 1.0
C      1  0.5397110000000  0.3983740000000  0.5542610000000 1.0
C      1  0.4647790000000  0.5495960000000  0.5239790000000 1.0
C      1  0.5691750000000  0.5735950000000  0.5248890000000 1.0
C      1  0.4736510000000  0.4631700000000  0.5852560000000 1.0
C      1  0.6137570000000  0.5235410000000  0.4820170000000 1.0
C      1  0.5337240000000  0.3961480000000  0.4774830000000 1.0
C      1  0.5318690000000  0.4798790000000  0.6201950000000 1.0
C      1  0.5512400000000  0.5911000000000  0.5088540000000 1.0
C      1  0.5731040000000  0.5795060000000  0.4395690000000 1.0
C      1  0.5493760000000  0.4189290000000  0.4672020000000 1.0
C      1  0.4012340000000  0.5129860000000  0.5625580000000 1.0
C      1  0.5858830000000  0.4632020000000  0.5174730000000 1.0
C      1  0.5956500000000  0.4919480000000  0.4307100000000 1.0
C      1  0.4606020000000  0.5205200000000  0.4424770000000 1.0
C      1  0.4220530000000  0.4920200000000  0.4898130000000 1.0
C      1  0.5787030000000  0.4750900000000  0.4133070000000 1.0
C      1  0.4850090000000  0.5517740000000  0.5968230000000 1.0
C      1  0.3877350000000  0.4354440000000  0.5412520000000 1.0
C      1  0.5962260000000  0.4793460000000  0.4580010000000 1.0
C      1  0.4590580000000  0.3958000000000  0.4974310000000 1.0
C      1  0.4434370000000  0.5424030000000  0.4295420000000 1.0
C      1  0.5177200000000  0.4442850000000  0.5887580000000 1.0
C      1  0.5398690000000  0.5259530000000  0.6091980000000 1.0
C      1  0.5060870000000  0.5137490000000  0.4656720000000 1.0
C      1  0.6122220000000  0.5402170000000  0.5083170000000 1.0
C      1  0.5124210000000  0.5528360000000  0.6063210000000 1.0
C      1  0.5070280000000  0.3865790000000  0.5170480000000 1.0
C      1  0.5622670000000  0.5309990000000  0.4705290000000 1.0
C      1  0.5174730000000  0.5755090000000  0.4274240000000 1.0
C      1  0.5449430000000  0.4835350000000  0.3984040000000 1.0
C      1  0.4326510000000  0.4055090000000  0.4857310000000 1.0
C      1  0.4006230000000  0.5623880000000  0.4861600000000 1.0
C      1  0.5442610000000  0.5011050000000  0.4438690000000 1.0
C      1  0.5315810000000  0.5633180000000  0.5876320000000 1.0
C      1  0.4381240000000  0.4859420000000  0.4137470000000 1.0
C      1  0.4442110000000  0.5735370000000  0.5556020000000 1.0
C      1  0.4207430000000  0.5337820000000  0.5695960000000 1.0
C      1  0.4251670000000  0.5739310000000  0.4504450000000 1.0
C      1  0.4624620000000  0.5606500000000  0.4157650000000 1.0
C      1  0.4633920000000  0.4669050000000  0.4520210000000 1.0
C      1  0.5309930000000  0.4383010000000  0.4572430000000 1.0
C      1  0.5019250000000  0.5773150000000  0.5526820000000 1.0
C      1  0.5883280000000  0.5759640000000  0.4830310000000 1.0
C      1  0.6120060000000  0.4963580000000  0.5361500000000 1.0
C      1  0.4479200000000  0.5895370000000  0.4529180000000 1.0
C      1  0.4182190000000  0.5595010000000  0.5538480000000 1.0
C      1  0.3910750000000  0.4812180000000  0.5244730000000 1.0
C      1  0.5557300000000  0.5974130000000  0.4562600000000 1.0
C      1  0.5044790000000  0.5282530000000  0.5598670000000 1.0
C      1  0.4857320000000  0.4756770000000  0.6083720000000 1.0
C      1  0.4505290000000  0.5222190000000  0.5220690000000 1.0
END
