TITL C-950523-3027-130 -2.99143120616109e-06 125000 -904.975132053626 0 0 146 (C1) n - 1
REM
REM in /home/bkarasulu/work/CARBON/AIRSS/Generating-Clusters/EDIP-Nigel-Params/with-SteepDescent/Only-C1/SD-CG/HFTN-CG
REM
REM
REM
REM
REM
REM ./C.cell (11c1c37f851c82e70ff6c80c92926a4b)
REM
REM compiler GCC version 9.2.1 20190827 (Red Hat 9.2.1-1)
REM options -cpp -mtune=generic -march=x86-64 -g -O0 -fpre-include=/usr/include/finclude/math-vector-fortran.h
REM seed 216020691 1482632776 -304166477 -1773322046 -1383365605 2036474762 -95532348 -614129803 677118737 211695786 -1873013082 -1435639148 1962996282 -1714898061 499951175 1525852739 1325963198 -1960529945 1034503625 1319332596 -561915704 -1914794215 417069559 -1481582462 543258130 -797510646 -1173370591 -1688768265 -1812217771 779684126 -1431038453 -2039554681 -1734516919
REM
CELL 1.54180   50.00000   50.00000   50.00000   90.00000   90.00000   90.00000
LATT -1
SFAC C  
C      1  0.5913540000000  0.4818670000000  0.5756450000000 1.0
C      1  0.3871110000000  0.5481300000000  0.4992070000000 1.0
C      1  0.5205740000000  0.4256720000000  0.4498510000000 1.0
C      1  0.4699160000000  0.4246210000000  0.4476100000000 1.0
C      1  0.5842380000000  0.4656020000000  0.5541610000000 1.0
C      1  0.5129600000000  0.5471860000000  0.5699500000000 1.0
C      1  0.4902000000000  0.5536390000000  0.4836430000000 1.0
C      1  0.5485740000000  0.5966640000000  0.4672880000000 1.0
C      1  0.4857510000000  0.4534800000000  0.5426060000000 1.0
C      1  0.4843370000000  0.4761470000000  0.5630450000000 1.0
C      1  0.5553430000000  0.4540420000000  0.4435840000000 1.0
C      1  0.5925310000000  0.5472640000000  0.4733820000000 1.0
C      1  0.4107750000000  0.4448770000000  0.4951230000000 1.0
C      1  0.4751410000000  0.4794430000000  0.3975000000000 1.0
C      1  0.5340900000000  0.4067650000000  0.5082220000000 1.0
C      1  0.4652960000000  0.5402770000000  0.5470390000000 1.0
C      1  0.4527550000000  0.5048300000000  0.5844570000000 1.0
C      1  0.5872100000000  0.5713760000000  0.4894700000000 1.0
C      1  0.4033570000000  0.5579420000000  0.4572380000000 1.0
C      1  0.5872510000000  0.5305430000000  0.5487660000000 1.0
C      1  0.5932330000000  0.5099470000000  0.5266530000000 1.0
C      1  0.5438850000000  0.5179260000000  0.5216650000000 1.0
C      1  0.5235610000000  0.5208030000000  0.4999610000000 1.0
C      1  0.4903830000000  0.5414790000000  0.5893860000000 1.0
C      1  0.4952460000000  0.4688500000000  0.5903300000000 1.0
C      1  0.5331020000000  0.5849050000000  0.4877020000000 1.0
C      1  0.5507600000000  0.5350020000000  0.5954780000000 1.0
C      1  0.5136640000000  0.4752990000000  0.4629890000000 1.0
C      1  0.5887160000000  0.4604750000000  0.5065370000000 1.0
C      1  0.5763140000000  0.5580130000000  0.5415820000000 1.0
C      1  0.4515000000000  0.4768190000000  0.4761240000000 1.0
C      1  0.5846280000000  0.4990260000000  0.4618770000000 1.0
C      1  0.4433790000000  0.5678890000000  0.5206340000000 1.0
C      1  0.4516520000000  0.4620570000000  0.4231330000000 1.0
C      1  0.5590500000000  0.4498730000000  0.5593720000000 1.0
C      1  0.5334960000000  0.4421800000000  0.4266070000000 1.0
C      1  0.5913810000000  0.4786400000000  0.5283450000000 1.0
C      1  0.5463630000000  0.5814840000000  0.5127090000000 1.0
C      1  0.5529810000000  0.5049220000000  0.4258350000000 1.0
C      1  0.4840090000000  0.4035160000000  0.5159420000000 1.0
C      1  0.4179940000000  0.4694000000000  0.4834350000000 1.0
C      1  0.4815960000000  0.5094570000000  0.4752940000000 1.0
C      1  0.4546490000000  0.4790540000000  0.5660110000000 1.0
C      1  0.4745440000000  0.5582430000000  0.5695500000000 1.0
C      1  0.5200890000000  0.4620970000000  0.4102830000000 1.0
C      1  0.5651120000000  0.5243150000000  0.5695190000000 1.0
C      1  0.5691630000000  0.4975420000000  0.5808940000000 1.0
C      1  0.5014970000000  0.4951500000000  0.6040090000000 1.0
C      1  0.4094790000000  0.5582030000000  0.4845120000000 1.0
C      1  0.4640590000000  0.4825160000000  0.4446380000000 1.0
C      1  0.4604810000000  0.4570090000000  0.5243560000000 1.0
C      1  0.4762710000000  0.5318010000000  0.4345680000000 1.0
C      1  0.4087090000000  0.4906520000000  0.5438670000000 1.0
C      1  0.5340570000000  0.4494950000000  0.4959060000000 1.0
C      1  0.5047890000000  0.4246170000000  0.5705720000000 1.0
C      1  0.6057200000000  0.5109800000000  0.4774820000000 1.0
C      1  0.5187760000000  0.5423720000000  0.4114280000000 1.0
C      1  0.4844470000000  0.4323290000000  0.4003140000000 1.0
C      1  0.5427110000000  0.4577520000000  0.5829190000000 1.0
C      1  0.5296990000000  0.5046280000000  0.6043590000000 1.0
C      1  0.4117180000000  0.5184010000000  0.5034900000000 1.0
C      1  0.5387150000000  0.5205800000000  0.4737260000000 1.0
C      1  0.5734790000000  0.5442850000000  0.4496380000000 1.0
C      1  0.5137800000000  0.4460290000000  0.4724210000000 1.0
C      1  0.4906530000000  0.5317810000000  0.4080370000000 1.0
C      1  0.5626830000000  0.4343860000000  0.4658580000000 1.0
C      1  0.4474570000000  0.4829100000000  0.5353450000000 1.0
C      1  0.4487440000000  0.4471450000000  0.5697600000000 1.0
C      1  0.5313400000000  0.5777690000000  0.5363480000000 1.0
C      1  0.5427820000000  0.4811840000000  0.4495210000000 1.0
C      1  0.4901270000000  0.5930450000000  0.5125740000000 1.0
C      1  0.4267950000000  0.5625530000000  0.5438650000000 1.0
C      1  0.4839900000000  0.5212200000000  0.5330360000000 1.0
C      1  0.5098600000000  0.4966220000000  0.4239830000000 1.0
C      1  0.5050590000000  0.4945870000000  0.4861560000000 1.0
C      1  0.4709150000000  0.6106150000000  0.4665760000000 1.0
C      1  0.4870490000000  0.4367450000000  0.4864600000000 1.0
C      1  0.5496380000000  0.4267160000000  0.5453870000000 1.0
C      1  0.5576610000000  0.4204040000000  0.5182830000000 1.0
C      1  0.4351720000000  0.5349150000000  0.5494800000000 1.0
C      1  0.4715550000000  0.5609290000000  0.4287650000000 1.0
C      1  0.5386660000000  0.5245350000000  0.5514540000000 1.0
C      1  0.4341450000000  0.4296940000000  0.4942520000000 1.0
C      1  0.5274140000000  0.4968640000000  0.5562700000000 1.0
C      1  0.4332630000000  0.5103610000000  0.4813790000000 1.0
C      1  0.4249700000000  0.5464520000000  0.4444630000000 1.0
C      1  0.5765940000000  0.5166540000000  0.4390140000000 1.0
C      1  0.4945900000000  0.4081370000000  0.4483370000000 1.0
C      1  0.4273770000000  0.4409300000000  0.5495160000000 1.0
C      1  0.5717720000000  0.4386060000000  0.4968960000000 1.0
C      1  0.5208390000000  0.5219230000000  0.4507170000000 1.0
C      1  0.4757730000000  0.4073390000000  0.4882160000000 1.0
C      1  0.5229160000000  0.5619710000000  0.4323300000000 1.0
C      1  0.5387180000000  0.3958530000000  0.4831240000000 1.0
C      1  0.5151340000000  0.4468910000000  0.5874490000000 1.0
C      1  0.4644640000000  0.4117150000000  0.5361200000000 1.0
C      1  0.4478080000000  0.4342780000000  0.4669740000000 1.0
C      1  0.4382330000000  0.5517140000000  0.4953000000000 1.0
C      1  0.4720770000000  0.4619770000000  0.4970910000000 1.0
C      1  0.4581330000000  0.5648120000000  0.4765220000000 1.0
C      1  0.3830370000000  0.5207320000000  0.4976670000000 1.0
C      1  0.5490520000000  0.4765050000000  0.4972690000000 1.0
C      1  0.4896140000000  0.3906350000000  0.4698960000000 1.0
C      1  0.5454380000000  0.4894480000000  0.5227630000000 1.0
C      1  0.5708090000000  0.5663260000000  0.5132920000000 1.0
C      1  0.4183650000000  0.5148980000000  0.5323570000000 1.0
C      1  0.4980050000000  0.5007170000000  0.5529280000000 1.0
C      1  0.5081070000000  0.4209940000000  0.5151800000000 1.0
C      1  0.5553460000000  0.4948230000000  0.4731600000000 1.0
C      1  0.5033670000000  0.5830260000000  0.4864840000000 1.0
C      1  0.4551740000000  0.5101850000000  0.4366920000000 1.0
C      1  0.4955060000000  0.4775800000000  0.5065910000000 1.0
C      1  0.4486840000000  0.5640280000000  0.4477580000000 1.0
C      1  0.4328330000000  0.4512360000000  0.4460340000000 1.0
C      1  0.5745290000000  0.5903250000000  0.4730210000000 1.0
C      1  0.4662650000000  0.4360650000000  0.4213690000000 1.0
C      1  0.4944500000000  0.5961880000000  0.4614570000000 1.0
C      1  0.5415190000000  0.4875720000000  0.5829420000000 1.0
C      1  0.4881600000000  0.5817120000000  0.5599530000000 1.0
C      1  0.4128670000000  0.4712440000000  0.4548020000000 1.0
C      1  0.4931520000000  0.5024430000000  0.3996970000000 1.0
C      1  0.5503060000000  0.5668340000000  0.5560480000000 1.0
C      1  0.4811670000000  0.5135840000000  0.5917990000000 1.0
C      1  0.4756620000000  0.4294540000000  0.5591020000000 1.0
C      1  0.4938640000000  0.5308360000000  0.4590450000000 1.0
C      1  0.4344240000000  0.5252560000000  0.5768530000000 1.0
C      1  0.4967280000000  0.5761960000000  0.4388520000000 1.0
C      1  0.4950620000000  0.4579110000000  0.3959720000000 1.0
C      1  0.4634430000000  0.5052340000000  0.5197530000000 1.0
C      1  0.5039050000000  0.5872190000000  0.5377600000000 1.0
C      1  0.4302560000000  0.5170280000000  0.4508870000000 1.0
C      1  0.4590600000000  0.5184370000000  0.4932290000000 1.0
C      1  0.4598200000000  0.5930440000000  0.5129130000000 1.0
C      1  0.5258710000000  0.4150190000000  0.5547370000000 1.0
C      1  0.6010070000000  0.5229860000000  0.5021970000000 1.0
C      1  0.4110060000000  0.4633180000000  0.5449430000000 1.0
C      1  0.5377320000000  0.5571260000000  0.5816440000000 1.0
C      1  0.5400130000000  0.5240190000000  0.4093250000000 1.0
C      1  0.4560340000000  0.5935740000000  0.4834680000000 1.0
C      1  0.5442740000000  0.4115000000000  0.4610900000000 1.0
C      1  0.5505770000000  0.5605430000000  0.4415760000000 1.0
C      1  0.4940160000000  0.4789530000000  0.4418300000000 1.0
C      1  0.5148970000000  0.4589150000000  0.5199990000000 1.0
C      1  0.4996640000000  0.5372610000000  0.5094020000000 1.0
C      1  0.4438820000000  0.4314220000000  0.5248350000000 1.0
C      1  0.4110860000000  0.4970450000000  0.4427370000000 1.0
END
