TITL C-950525-1983-611 -3.22960182965948e-06 125000 -1043.0199380256 0 0 166 (C1) n - 1
REM
REM in /home/bkarasulu/work/CARBON/AIRSS/Generating-Clusters/EDIP-Nigel-Params/with-SteepDescent/Only-C1/SD-CG/HFTN-CG
REM
REM
REM
REM
REM
REM ./C.cell (11c1c37f851c82e70ff6c80c92926a4b)
REM
REM compiler GCC version 9.2.1 20190827 (Red Hat 9.2.1-1)
REM options -cpp -mtune=generic -march=x86-64 -g -O0 -fpre-include=/usr/include/finclude/math-vector-fortran.h
REM seed 1787130183 1302303641 -1340329772 1157096514 -1765665930 115019836 -496823765 -517854363 -980419885 -1775611809 -1028376135 1060725059 1892570159 1508040662 468868737 1740486573 2039237986 215963852 629554062 -1179731191 -1782369449 1134583498 -2068299543 -1958714689 -1406645937 -1167732945 1713722627 1754822971 892068581 2071144863 -2083867819 -1969735974 1970177456
REM
CELL 1.54180   50.00000   50.00000   50.00000   90.00000   90.00000   90.00000
LATT -1
SFAC C  
C      1  0.5129980000000  0.4555170000000  0.5991810000000 1.0
C      1  0.5343730000000  0.4490070000000  0.4496050000000 1.0
C      1  0.5147460000000  0.4434090000000  0.5447530000000 1.0
C      1  0.4275340000000  0.5717970000000  0.4543130000000 1.0
C      1  0.4754640000000  0.5760230000000  0.5365350000000 1.0
C      1  0.5045790000000  0.4130320000000  0.5678730000000 1.0
C      1  0.5839280000000  0.4926280000000  0.5497820000000 1.0
C      1  0.5499820000000  0.4947030000000  0.5869460000000 1.0
C      1  0.4461920000000  0.5614990000000  0.5729330000000 1.0
C      1  0.5694160000000  0.5368350000000  0.5640260000000 1.0
C      1  0.5492380000000  0.4296320000000  0.5684320000000 1.0
C      1  0.5495980000000  0.5585550000000  0.4496850000000 1.0
C      1  0.5017880000000  0.5464990000000  0.4447400000000 1.0
C      1  0.4504140000000  0.5890310000000  0.4954110000000 1.0
C      1  0.5621270000000  0.5084900000000  0.4269310000000 1.0
C      1  0.5258460000000  0.5330930000000  0.4339350000000 1.0
C      1  0.5007590000000  0.4918020000000  0.4502300000000 1.0
C      1  0.5651300000000  0.5517700000000  0.4783170000000 1.0
C      1  0.4734570000000  0.5594640000000  0.5606880000000 1.0
C      1  0.5091400000000  0.5075900000000  0.4254610000000 1.0
C      1  0.4093000000000  0.4631840000000  0.4826990000000 1.0
C      1  0.4571150000000  0.4349950000000  0.5419130000000 1.0
C      1  0.5465340000000  0.4141330000000  0.4827840000000 1.0
C      1  0.5236200000000  0.5623920000000  0.5734390000000 1.0
C      1  0.5464970000000  0.5036020000000  0.4030640000000 1.0
C      1  0.5135560000000  0.3901080000000  0.5158960000000 1.0
C      1  0.5259330000000  0.4971440000000  0.4654020000000 1.0
C      1  0.5014460000000  0.5147460000000  0.3882060000000 1.0
C      1  0.5690840000000  0.4197960000000  0.5257440000000 1.0
C      1  0.4515520000000  0.5066620000000  0.4192000000000 1.0
C      1  0.4219480000000  0.4931630000000  0.4286450000000 1.0
C      1  0.5547930000000  0.4674250000000  0.4123600000000 1.0
C      1  0.5286220000000  0.5805240000000  0.4527710000000 1.0
C      1  0.5661860000000  0.4623640000000  0.4923650000000 1.0
C      1  0.5071170000000  0.5020550000000  0.6111490000000 1.0
C      1  0.5724210000000  0.5748930000000  0.4973990000000 1.0
C      1  0.3912370000000  0.4878970000000  0.4892200000000 1.0
C      1  0.5765160000000  0.4878510000000  0.5064670000000 1.0
C      1  0.5866020000000  0.4375290000000  0.4865520000000 1.0
C      1  0.4766220000000  0.5288020000000  0.5551730000000 1.0
C      1  0.4325660000000  0.4998640000000  0.5029090000000 1.0
C      1  0.5531060000000  0.5303530000000  0.5236690000000 1.0
C      1  0.4621980000000  0.5286450000000  0.4385540000000 1.0
C      1  0.5354950000000  0.5480790000000  0.4088830000000 1.0
C      1  0.4984300000000  0.4306470000000  0.5207330000000 1.0
C      1  0.5257360000000  0.5239670000000  0.4798420000000 1.0
C      1  0.5223080000000  0.4010820000000  0.5433930000000 1.0
C      1  0.5435120000000  0.5412340000000  0.4966640000000 1.0
C      1  0.4143110000000  0.5237980000000  0.4581170000000 1.0
C      1  0.4728800000000  0.4354990000000  0.5676520000000 1.0
C      1  0.4844850000000  0.5230420000000  0.5087390000000 1.0
C      1  0.5226570000000  0.5640720000000  0.5209910000000 1.0
C      1  0.4249470000000  0.5652790000000  0.5513750000000 1.0
C      1  0.5964400000000  0.5354190000000  0.4482200000000 1.0
C      1  0.5535130000000  0.4274520000000  0.4561900000000 1.0
C      1  0.4683280000000  0.4813460000000  0.4159910000000 1.0
C      1  0.5036980000000  0.4114770000000  0.4425540000000 1.0
C      1  0.4538410000000  0.4123150000000  0.4781950000000 1.0
C      1  0.5987690000000  0.4739060000000  0.5342690000000 1.0
C      1  0.5640040000000  0.5545000000000  0.4148160000000 1.0
C      1  0.4069440000000  0.4934310000000  0.5439370000000 1.0
C      1  0.4245830000000  0.5463360000000  0.4986230000000 1.0
C      1  0.5342630000000  0.4500990000000  0.4200530000000 1.0
C      1  0.5901670000000  0.5025110000000  0.4835960000000 1.0
C      1  0.6025880000000  0.4843150000000  0.4661640000000 1.0
C      1  0.4819050000000  0.4611690000000  0.6061980000000 1.0
C      1  0.4589520000000  0.4528840000000  0.5881520000000 1.0
C      1  0.5072180000000  0.4499680000000  0.4077770000000 1.0
C      1  0.5086980000000  0.4786940000000  0.5017340000000 1.0
C      1  0.5929770000000  0.4491440000000  0.5487790000000 1.0
C      1  0.4038230000000  0.5035890000000  0.5140920000000 1.0
C      1  0.4333520000000  0.4694270000000  0.4424460000000 1.0
C      1  0.4349620000000  0.5238810000000  0.4813150000000 1.0
C      1  0.4767970000000  0.5880740000000  0.4509040000000 1.0
C      1  0.5732220000000  0.4115320000000  0.4968420000000 1.0
C      1  0.5184830000000  0.6131300000000  0.5323470000000 1.0
C      1  0.5311660000000  0.4343960000000  0.5001420000000 1.0
C      1  0.4733690000000  0.4464730000000  0.5219710000000 1.0
C      1  0.4961240000000  0.4561220000000  0.5643930000000 1.0
C      1  0.4657140000000  0.4390880000000  0.4729570000000 1.0
C      1  0.4517130000000  0.5223400000000  0.3932170000000 1.0
C      1  0.4633800000000  0.5266120000000  0.4687300000000 1.0
C      1  0.5005970000000  0.5752370000000  0.4361960000000 1.0
C      1  0.5516090000000  0.5238510000000  0.5829290000000 1.0
C      1  0.5273180000000  0.4828250000000  0.6015780000000 1.0
C      1  0.4275900000000  0.5733340000000  0.4839970000000 1.0
C      1  0.5016280000000  0.3986130000000  0.4690680000000 1.0
C      1  0.5123160000000  0.4531710000000  0.4873770000000 1.0
C      1  0.4837910000000  0.5480370000000  0.4904870000000 1.0
C      1  0.4059270000000  0.5423840000000  0.5444170000000 1.0
C      1  0.4936990000000  0.5694080000000  0.5141100000000 1.0
C      1  0.4468630000000  0.4797290000000  0.5761400000000 1.0
C      1  0.4856710000000  0.4962310000000  0.4958430000000 1.0
C      1  0.5456580000000  0.5814340000000  0.5576110000000 1.0
C      1  0.4852810000000  0.3959740000000  0.5133450000000 1.0
C      1  0.5366890000000  0.5909490000000  0.5292500000000 1.0
C      1  0.4306560000000  0.5463790000000  0.4125230000000 1.0
C      1  0.4643070000000  0.4326490000000  0.4226330000000 1.0
C      1  0.4113530000000  0.4540490000000  0.4548090000000 1.0
C      1  0.5651540000000  0.4800750000000  0.4377910000000 1.0
C      1  0.4911270000000  0.4258120000000  0.4198490000000 1.0
C      1  0.5869300000000  0.5306280000000  0.4739420000000 1.0
C      1  0.5778670000000  0.5324430000000  0.4275230000000 1.0
C      1  0.3880590000000  0.5064700000000  0.4656980000000 1.0
C      1  0.4148090000000  0.5486100000000  0.4394640000000 1.0
C      1  0.5667640000000  0.5627420000000  0.5504890000000 1.0
C      1  0.5908340000000  0.5359250000000  0.5235780000000 1.0
C      1  0.4507860000000  0.4799910000000  0.4645220000000 1.0
C      1  0.4617280000000  0.5241860000000  0.5289590000000 1.0
C      1  0.4900030000000  0.4835970000000  0.5571600000000 1.0
C      1  0.5042380000000  0.5246100000000  0.5423260000000 1.0
C      1  0.4934850000000  0.5663310000000  0.5816870000000 1.0
C      1  0.5392080000000  0.4613960000000  0.5385480000000 1.0
C      1  0.4368500000000  0.4740570000000  0.4888530000000 1.0
C      1  0.4581310000000  0.5544030000000  0.4234590000000 1.0
C      1  0.4974620000000  0.6078580000000  0.5155550000000 1.0
C      1  0.4806900000000  0.4910530000000  0.6058710000000 1.0
C      1  0.5900690000000  0.4673990000000  0.4474220000000 1.0
C      1  0.4290470000000  0.4922840000000  0.5953630000000 1.0
C      1  0.5242090000000  0.4291620000000  0.5849900000000 1.0
C      1  0.5487510000000  0.5924960000000  0.5001940000000 1.0
C      1  0.5270680000000  0.5438980000000  0.5434160000000 1.0
C      1  0.5818070000000  0.5635450000000  0.5244240000000 1.0
C      1  0.4189690000000  0.4391980000000  0.5101330000000 1.0
C      1  0.4771170000000  0.3949770000000  0.4853690000000 1.0
C      1  0.5007500000000  0.6028370000000  0.4879250000000 1.0
C      1  0.4721060000000  0.4982560000000  0.5759410000000 1.0
C      1  0.4429450000000  0.5485390000000  0.5216190000000 1.0
C      1  0.4332610000000  0.4166130000000  0.4983420000000 1.0
C      1  0.5316900000000  0.5415770000000  0.5932360000000 1.0
C      1  0.4108520000000  0.5182480000000  0.5600780000000 1.0
C      1  0.4013770000000  0.5348220000000  0.5153100000000 1.0
C      1  0.5246400000000  0.5857790000000  0.4819300000000 1.0
C      1  0.3945670000000  0.4963020000000  0.4387720000000 1.0
C      1  0.5273900000000  0.4855310000000  0.5252060000000 1.0
C      1  0.5509650000000  0.5018760000000  0.5161300000000 1.0
C      1  0.5305240000000  0.5244240000000  0.3906930000000 1.0
C      1  0.4313110000000  0.4488290000000  0.5368080000000 1.0
C      1  0.4985010000000  0.4626810000000  0.4425070000000 1.0
C      1  0.4760760000000  0.5902590000000  0.4794090000000 1.0
C      1  0.5702730000000  0.4508000000000  0.5678920000000 1.0
C      1  0.5623930000000  0.4790230000000  0.5650980000000 1.0
C      1  0.4336260000000  0.4786530000000  0.5464280000000 1.0
C      1  0.4522230000000  0.4576900000000  0.4217680000000 1.0
C      1  0.5069940000000  0.5296160000000  0.6025200000000 1.0
C      1  0.4823840000000  0.5459760000000  0.6019790000000 1.0
C      1  0.4826690000000  0.5582160000000  0.4065150000000 1.0
C      1  0.4267170000000  0.5183020000000  0.5852000000000 1.0
C      1  0.5470740000000  0.4741060000000  0.4630850000000 1.0
C      1  0.4750220000000  0.4982280000000  0.4685320000000 1.0
C      1  0.5250300000000  0.3927060000000  0.4866520000000 1.0
C      1  0.5878560000000  0.5214470000000  0.5485800000000 1.0
C      1  0.4948690000000  0.4418760000000  0.4649370000000 1.0
C      1  0.4491300000000  0.4970860000000  0.5269250000000 1.0
C      1  0.5821560000000  0.4393670000000  0.4577640000000 1.0
C      1  0.4465730000000  0.5392060000000  0.5920490000000 1.0
C      1  0.4495080000000  0.5787800000000  0.5246630000000 1.0
C      1  0.5505050000000  0.4088150000000  0.5475120000000 1.0
C      1  0.4943620000000  0.4798250000000  0.4026940000000 1.0
C      1  0.5086620000000  0.5487110000000  0.4734380000000 1.0
C      1  0.4788310000000  0.5347760000000  0.3886270000000 1.0
C      1  0.5120380000000  0.4980050000000  0.5467060000000 1.0
C      1  0.5526980000000  0.4467010000000  0.5160710000000 1.0
C      1  0.5957560000000  0.4243790000000  0.5366780000000 1.0
C      1  0.4559410000000  0.4513810000000  0.4984460000000 1.0
C      1  0.4526050000000  0.5775240000000  0.4400880000000 1.0
END
