TITL C-951335-1172-30 2.60417052766318e-06 125000 -852.347998552899 0 0 136 (C1) n - 1
REM
REM in /home/bkarasulu/work/CARBON/AIRSS/Generating-Clusters/EDIP-Nigel-Params/with-SteepDescent/Only-C1/SD-CG/HFTN-CG
REM
REM
REM
REM
REM
REM ./C.cell (11c1c37f851c82e70ff6c80c92926a4b)
REM
REM compiler GCC version 9.2.1 20190827 (Red Hat 9.2.1-1)
REM options -cpp -mtune=generic -march=x86-64 -g -O0 -fpre-include=/usr/include/finclude/math-vector-fortran.h
REM seed 1910882481 -148217489 -2118643920 -2045936432 -349486377 -494042809 157770271 -1080994342 -1504678731 -1606104833 1912612834 835664360 -1342804209 1081502624 -254569197 -1998938082 -906163747 -244270207 -733325256 -922725752 1549442189 -993498723 -1429475792 1462373871 -372716466 951956855 -1645933355 210834316 1365630454 -1670564172 -820099327 1580870837 1874246114
REM
CELL 1.54180   50.00000   50.00000   50.00000   90.00000   90.00000   90.00000
LATT -1
SFAC C  
C      1  0.4437180000000  0.4277660000000  0.4660690000000 1.0
C      1  0.4165240000000  0.5501900000000  0.4948410000000 1.0
C      1  0.4432810000000  0.5590280000000  0.4814170000000 1.0
C      1  0.4774040000000  0.5647730000000  0.5735230000000 1.0
C      1  0.4305010000000  0.5063240000000  0.5602990000000 1.0
C      1  0.4139150000000  0.4793530000000  0.4648170000000 1.0
C      1  0.5511230000000  0.4524580000000  0.5578610000000 1.0
C      1  0.5731350000000  0.4496950000000  0.5406200000000 1.0
C      1  0.5168150000000  0.5499260000000  0.5229760000000 1.0
C      1  0.5650440000000  0.4754820000000  0.4332420000000 1.0
C      1  0.5338070000000  0.4307640000000  0.5630130000000 1.0
C      1  0.5220030000000  0.4614110000000  0.5344690000000 1.0
C      1  0.4860910000000  0.4051170000000  0.5009250000000 1.0
C      1  0.5787700000000  0.5176820000000  0.5187350000000 1.0
C      1  0.4250060000000  0.5048840000000  0.4993760000000 1.0
C      1  0.4467370000000  0.4811170000000  0.5534840000000 1.0
C      1  0.4671620000000  0.5222980000000  0.5152860000000 1.0
C      1  0.5026630000000  0.4715090000000  0.5766420000000 1.0
C      1  0.4896440000000  0.4377180000000  0.4132970000000 1.0
C      1  0.4904950000000  0.4220510000000  0.4585850000000 1.0
C      1  0.5396490000000  0.5103830000000  0.4601570000000 1.0
C      1  0.4961600000000  0.5352780000000  0.4466330000000 1.0
C      1  0.4700040000000  0.5003190000000  0.4712760000000 1.0
C      1  0.4907750000000  0.5420140000000  0.4088130000000 1.0
C      1  0.5970280000000  0.4993170000000  0.4628440000000 1.0
C      1  0.4869620000000  0.5117320000000  0.5341960000000 1.0
C      1  0.4206270000000  0.4323730000000  0.4833760000000 1.0
C      1  0.5281390000000  0.5972220000000  0.4583650000000 1.0
C      1  0.4625210000000  0.5364530000000  0.4177420000000 1.0
C      1  0.5776800000000  0.4257720000000  0.5273720000000 1.0
C      1  0.5002430000000  0.4877850000000  0.4302400000000 1.0
C      1  0.5460610000000  0.4875670000000  0.5942410000000 1.0
C      1  0.5582210000000  0.5298470000000  0.5436060000000 1.0
C      1  0.4696050000000  0.4977890000000  0.6024520000000 1.0
C      1  0.4549160000000  0.4599460000000  0.5746410000000 1.0
C      1  0.5259080000000  0.4910750000000  0.5312320000000 1.0
C      1  0.4656740000000  0.5819980000000  0.4806790000000 1.0
C      1  0.4983210000000  0.4031510000000  0.5503690000000 1.0
C      1  0.5573700000000  0.4257350000000  0.5067110000000 1.0
C      1  0.4492430000000  0.5575110000000  0.5645120000000 1.0
C      1  0.5701850000000  0.4668150000000  0.4808900000000 1.0
C      1  0.3961790000000  0.4953210000000  0.5232840000000 1.0
C      1  0.5061710000000  0.5786560000000  0.4489950000000 1.0
C      1  0.5218980000000  0.5101130000000  0.4859010000000 1.0
C      1  0.5953800000000  0.4931510000000  0.5142500000000 1.0
C      1  0.5224090000000  0.4155390000000  0.5403920000000 1.0
C      1  0.4741880000000  0.5762060000000  0.5292070000000 1.0
C      1  0.4783560000000  0.5898210000000  0.4546660000000 1.0
C      1  0.5515310000000  0.4812640000000  0.4590170000000 1.0
C      1  0.5861530000000  0.4734010000000  0.5329920000000 1.0
C      1  0.5171630000000  0.4217930000000  0.4700040000000 1.0
C      1  0.4096480000000  0.4596790000000  0.4871240000000 1.0
C      1  0.4864700000000  0.5445120000000  0.5923420000000 1.0
C      1  0.5169270000000  0.5131800000000  0.4387440000000 1.0
C      1  0.5347440000000  0.5532530000000  0.4181300000000 1.0
C      1  0.4292960000000  0.4695820000000  0.4410810000000 1.0
C      1  0.5789950000000  0.5344890000000  0.4955320000000 1.0
C      1  0.5306000000000  0.5237990000000  0.4130620000000 1.0
C      1  0.4605500000000  0.4403100000000  0.4175830000000 1.0
C      1  0.4983380000000  0.4911280000000  0.4008500000000 1.0
C      1  0.4125820000000  0.5101360000000  0.4710530000000 1.0
C      1  0.4560740000000  0.4978910000000  0.4999110000000 1.0
C      1  0.5353820000000  0.4504930000000  0.4317500000000 1.0
C      1  0.4447110000000  0.5285740000000  0.5744220000000 1.0
C      1  0.5194900000000  0.4500900000000  0.4819950000000 1.0
C      1  0.4478710000000  0.5134700000000  0.4297690000000 1.0
C      1  0.4455500000000  0.4267300000000  0.5125180000000 1.0
C      1  0.4891120000000  0.4226730000000  0.5716240000000 1.0
C      1  0.4717680000000  0.4800330000000  0.4446460000000 1.0
C      1  0.4366330000000  0.5505810000000  0.4539330000000 1.0
C      1  0.5478590000000  0.5792340000000  0.5403650000000 1.0
C      1  0.5706460000000  0.4354890000000  0.4801660000000 1.0
C      1  0.5494470000000  0.5557480000000  0.4432270000000 1.0
C      1  0.4771250000000  0.4000780000000  0.5293720000000 1.0
C      1  0.4695380000000  0.4156620000000  0.4771310000000 1.0
C      1  0.5084030000000  0.5670720000000  0.4192770000000 1.0
C      1  0.4419330000000  0.4870190000000  0.4215120000000 1.0
C      1  0.5469360000000  0.5537980000000  0.5257240000000 1.0
C      1  0.4794900000000  0.4864210000000  0.5493120000000 1.0
C      1  0.5675690000000  0.5342730000000  0.4471970000000 1.0
C      1  0.5585650000000  0.5747140000000  0.5655270000000 1.0
C      1  0.5269760000000  0.4653860000000  0.4569830000000 1.0
C      1  0.4553830000000  0.4182210000000  0.5379970000000 1.0
C      1  0.4453330000000  0.5355690000000  0.5316890000000 1.0
C      1  0.4888920000000  0.4598890000000  0.5362950000000 1.0
C      1  0.5904220000000  0.4865890000000  0.4381400000000 1.0
C      1  0.4944390000000  0.4645260000000  0.4872940000000 1.0
C      1  0.4051980000000  0.5103150000000  0.5461090000000 1.0
C      1  0.4305470000000  0.5226630000000  0.4505910000000 1.0
C      1  0.5093590000000  0.5957950000000  0.5066980000000 1.0
C      1  0.5084390000000  0.5403830000000  0.4931860000000 1.0
C      1  0.5376610000000  0.4233680000000  0.4466280000000 1.0
C      1  0.4759810000000  0.4731990000000  0.5913790000000 1.0
C      1  0.5366440000000  0.5478100000000  0.6060770000000 1.0
C      1  0.5527470000000  0.5812830000000  0.4573140000000 1.0
C      1  0.4703800000000  0.5302960000000  0.4641860000000 1.0
C      1  0.5079460000000  0.5293350000000  0.5437280000000 1.0
C      1  0.4548600000000  0.5587620000000  0.4337620000000 1.0
C      1  0.5658310000000  0.5475730000000  0.5676380000000 1.0
C      1  0.4204940000000  0.5305830000000  0.5167520000000 1.0
C      1  0.5099120000000  0.5474030000000  0.6068750000000 1.0
C      1  0.5808080000000  0.5226010000000  0.4692000000000 1.0
C      1  0.5070470000000  0.5186730000000  0.3952670000000 1.0
C      1  0.4480450000000  0.4552310000000  0.5091690000000 1.0
C      1  0.5370710000000  0.4506460000000  0.5085950000000 1.0
C      1  0.4701110000000  0.4394190000000  0.5556290000000 1.0
C      1  0.5589810000000  0.5365470000000  0.5937130000000 1.0
C      1  0.5618510000000  0.5090940000000  0.5960170000000 1.0
C      1  0.5612530000000  0.5561580000000  0.4995790000000 1.0
C      1  0.4980930000000  0.4917770000000  0.4779530000000 1.0
C      1  0.4620010000000  0.5858460000000  0.4320810000000 1.0
C      1  0.5634130000000  0.5785140000000  0.4830530000000 1.0
C      1  0.4322070000000  0.4653360000000  0.5309330000000 1.0
C      1  0.4935370000000  0.5750560000000  0.5505290000000 1.0
C      1  0.5630910000000  0.4216830000000  0.4573860000000 1.0
C      1  0.5403910000000  0.4984730000000  0.5075400000000 1.0
C      1  0.5239400000000  0.4939980000000  0.5786040000000 1.0
C      1  0.5183750000000  0.5871580000000  0.5347360000000 1.0
C      1  0.5573170000000  0.4728840000000  0.5066750000000 1.0
C      1  0.4665040000000  0.5233140000000  0.5928380000000 1.0
C      1  0.5149790000000  0.4022660000000  0.4936250000000 1.0
C      1  0.5303420000000  0.5110720000000  0.5526650000000 1.0
C      1  0.4447820000000  0.4451280000000  0.4418740000000 1.0
C      1  0.5114310000000  0.4407780000000  0.5793680000000 1.0
C      1  0.5236740000000  0.6056300000000  0.4848280000000 1.0
C      1  0.5129120000000  0.4570000000000  0.4097970000000 1.0
C      1  0.5348070000000  0.4067260000000  0.5150700000000 1.0
C      1  0.3981080000000  0.5357010000000  0.4781210000000 1.0
C      1  0.4830870000000  0.5841510000000  0.5035840000000 1.0
C      1  0.4770720000000  0.5415920000000  0.4931060000000 1.0
C      1  0.4752430000000  0.4673660000000  0.5100960000000 1.0
C      1  0.4066540000000  0.4694440000000  0.5168020000000 1.0
C      1  0.5969060000000  0.4804670000000  0.4855060000000 1.0
C      1  0.4884810000000  0.4478500000000  0.4436500000000 1.0
C      1  0.5110280000000  0.5533140000000  0.4651390000000 1.0
C      1  0.4482090000000  0.5651550000000  0.5345440000000 1.0
END
