TITL C-951348-1603-344 -4.18117394522374e-06 125000 -857.503822291168 0 0 138 (C1) n - 1
REM
REM in /home/bkarasulu/work/CARBON/AIRSS/Generating-Clusters/EDIP-Nigel-Params/with-SteepDescent/Only-C1/SD-CG/HFTN-CG
REM
REM
REM
REM
REM
REM ./C.cell (11c1c37f851c82e70ff6c80c92926a4b)
REM
REM compiler GCC version 9.2.1 20190827 (Red Hat 9.2.1-1)
REM options -cpp -mtune=generic -march=x86-64 -g -O0 -fpre-include=/usr/include/finclude/math-vector-fortran.h
REM seed 1777170322 1985911411 -38174146 208834778 -327398075 2054822627 353096628 1791855320 176813992 -1351298178 951921501 1452501956 -1375031472 543199656 -537696721 1148591997 648942040 -1673916820 -929282291 1403080984 1227946969 -1250700004 1102179033 -1140573648 -413380948 1837991800 -1792102683 -2008299502 -72040914 -1382203540 -711204092 -77766657 2051527674
REM
CELL 1.54180   50.00000   50.00000   50.00000   90.00000   90.00000   90.00000
LATT -1
SFAC C  
C      1  0.5905610000000  0.5003930000000  0.4787240000000 1.0
C      1  0.5319010000000  0.4409280000000  0.5264010000000 1.0
C      1  0.4422600000000  0.4562190000000  0.5267870000000 1.0
C      1  0.4320150000000  0.4776380000000  0.4288790000000 1.0
C      1  0.5514360000000  0.5214660000000  0.4609400000000 1.0
C      1  0.4875980000000  0.5091420000000  0.5228400000000 1.0
C      1  0.5148420000000  0.5304070000000  0.4877540000000 1.0
C      1  0.5690920000000  0.5337960000000  0.4227830000000 1.0
C      1  0.4714990000000  0.4545340000000  0.5265450000000 1.0
C      1  0.4335070000000  0.4713390000000  0.5008440000000 1.0
C      1  0.5666270000000  0.4311600000000  0.4921080000000 1.0
C      1  0.5036410000000  0.4452130000000  0.4278290000000 1.0
C      1  0.5511420000000  0.4916510000000  0.4136080000000 1.0
C      1  0.5440140000000  0.5054980000000  0.5213060000000 1.0
C      1  0.5523550000000  0.5389300000000  0.5495200000000 1.0
C      1  0.4587070000000  0.5587510000000  0.4487040000000 1.0
C      1  0.4635200000000  0.4249110000000  0.5584650000000 1.0
C      1  0.5285940000000  0.5832670000000  0.5593640000000 1.0
C      1  0.4196170000000  0.4745990000000  0.4551620000000 1.0
C      1  0.5030840000000  0.4941930000000  0.4546330000000 1.0
C      1  0.4295370000000  0.5512000000000  0.4659880000000 1.0
C      1  0.4405360000000  0.5084330000000  0.5072990000000 1.0
C      1  0.5470130000000  0.4721570000000  0.4363930000000 1.0
C      1  0.4440780000000  0.5420950000000  0.5702010000000 1.0
C      1  0.4621630000000  0.4009580000000  0.4688440000000 1.0
C      1  0.5726540000000  0.5506520000000  0.5312760000000 1.0
C      1  0.4566070000000  0.5130080000000  0.5319790000000 1.0
C      1  0.5428900000000  0.4993710000000  0.5781890000000 1.0
C      1  0.4414200000000  0.5050420000000  0.4205550000000 1.0
C      1  0.4326690000000  0.5317590000000  0.4174370000000 1.0
C      1  0.4717990000000  0.4719660000000  0.4074880000000 1.0
C      1  0.4770090000000  0.4853600000000  0.4664750000000 1.0
C      1  0.5050370000000  0.4076820000000  0.5363320000000 1.0
C      1  0.4789680000000  0.4363390000000  0.5801870000000 1.0
C      1  0.4951210000000  0.5694200000000  0.4117650000000 1.0
C      1  0.6033600000000  0.4629760000000  0.5068830000000 1.0
C      1  0.4122010000000  0.5270340000000  0.4639330000000 1.0
C      1  0.4775180000000  0.5541010000000  0.5392290000000 1.0
C      1  0.4854940000000  0.5202810000000  0.4089390000000 1.0
C      1  0.4843170000000  0.5716260000000  0.5788110000000 1.0
C      1  0.5260100000000  0.5425820000000  0.5900020000000 1.0
C      1  0.4970800000000  0.5934880000000  0.4545710000000 1.0
C      1  0.4764830000000  0.5494290000000  0.4046280000000 1.0
C      1  0.4667220000000  0.5493820000000  0.5873500000000 1.0
C      1  0.3992690000000  0.5048540000000  0.4928860000000 1.0
C      1  0.4826610000000  0.5549450000000  0.5114620000000 1.0
C      1  0.4301710000000  0.4742600000000  0.5474580000000 1.0
C      1  0.5656210000000  0.4399630000000  0.5444290000000 1.0
C      1  0.5377520000000  0.4289230000000  0.4516770000000 1.0
C      1  0.4435030000000  0.5608760000000  0.4918390000000 1.0
C      1  0.4507350000000  0.5421090000000  0.5407480000000 1.0
C      1  0.4524700000000  0.4118790000000  0.5158850000000 1.0
C      1  0.5011540000000  0.4760800000000  0.5990380000000 1.0
C      1  0.5309720000000  0.5594230000000  0.4439690000000 1.0
C      1  0.5092770000000  0.5125850000000  0.3941760000000 1.0
C      1  0.5132670000000  0.5662400000000  0.5769840000000 1.0
C      1  0.5886530000000  0.5274410000000  0.4916340000000 1.0
C      1  0.5638100000000  0.4063020000000  0.5084100000000 1.0
C      1  0.4740340000000  0.4866460000000  0.6026370000000 1.0
C      1  0.5503880000000  0.5296460000000  0.5775300000000 1.0
C      1  0.5047980000000  0.4814340000000  0.5142490000000 1.0
C      1  0.5562280000000  0.4442500000000  0.4346670000000 1.0
C      1  0.5803290000000  0.4889140000000  0.5514420000000 1.0
C      1  0.4863070000000  0.4605250000000  0.5018110000000 1.0
C      1  0.5694490000000  0.4979120000000  0.4559660000000 1.0
C      1  0.4078540000000  0.5478030000000  0.5177470000000 1.0
C      1  0.5750870000000  0.5047100000000  0.4260650000000 1.0
C      1  0.5615280000000  0.5376830000000  0.4857130000000 1.0
C      1  0.5119630000000  0.5804680000000  0.4315630000000 1.0
C      1  0.4441200000000  0.4115090000000  0.4871950000000 1.0
C      1  0.4260630000000  0.4299600000000  0.4767160000000 1.0
C      1  0.4045820000000  0.4777270000000  0.5064370000000 1.0
C      1  0.5291850000000  0.5120550000000  0.4137250000000 1.0
C      1  0.5182580000000  0.4015750000000  0.5115400000000 1.0
C      1  0.5507340000000  0.4537260000000  0.5640260000000 1.0
C      1  0.4925420000000  0.4414320000000  0.4769760000000 1.0
C      1  0.4843470000000  0.5429740000000  0.4554430000000 1.0
C      1  0.5042900000000  0.4485160000000  0.5889530000000 1.0
C      1  0.5398590000000  0.5378010000000  0.4222400000000 1.0
C      1  0.5577530000000  0.5740320000000  0.5087990000000 1.0
C      1  0.5199480000000  0.4156780000000  0.5588520000000 1.0
C      1  0.5246860000000  0.5054920000000  0.4740640000000 1.0
C      1  0.4770090000000  0.4881140000000  0.5642470000000 1.0
C      1  0.5858580000000  0.4844280000000  0.5027500000000 1.0
C      1  0.4584130000000  0.5082080000000  0.4613280000000 1.0
C      1  0.5233900000000  0.4251190000000  0.4268930000000 1.0
C      1  0.4051010000000  0.4803110000000  0.5350980000000 1.0
C      1  0.5891180000000  0.5281400000000  0.5212090000000 1.0
C      1  0.4624100000000  0.5129880000000  0.5983320000000 1.0
C      1  0.4331140000000  0.5587460000000  0.5207260000000 1.0
C      1  0.5416950000000  0.3906940000000  0.4992810000000 1.0
C      1  0.4986240000000  0.4627220000000  0.4057550000000 1.0
C      1  0.5269160000000  0.4390370000000  0.5731320000000 1.0
C      1  0.5106090000000  0.5532890000000  0.4681550000000 1.0
C      1  0.4596490000000  0.5861040000000  0.4858620000000 1.0
C      1  0.4894760000000  0.5181520000000  0.4396080000000 1.0
C      1  0.5224630000000  0.4957900000000  0.6006840000000 1.0
C      1  0.5299610000000  0.5830460000000  0.5092540000000 1.0
C      1  0.5381240000000  0.5343170000000  0.5079830000000 1.0
C      1  0.4512820000000  0.5533180000000  0.4196720000000 1.0
C      1  0.4672080000000  0.5874280000000  0.4567930000000 1.0
C      1  0.4365520000000  0.4567410000000  0.4734150000000 1.0
C      1  0.5413140000000  0.4497530000000  0.4968480000000 1.0
C      1  0.5231550000000  0.4448930000000  0.4724270000000 1.0
C      1  0.5272470000000  0.5507620000000  0.5383810000000 1.0
C      1  0.5922780000000  0.4415060000000  0.4951960000000 1.0
C      1  0.4411950000000  0.5142810000000  0.5783210000000 1.0
C      1  0.4272000000000  0.5015150000000  0.4661560000000 1.0
C      1  0.4584150000000  0.5254380000000  0.4868720000000 1.0
C      1  0.5150490000000  0.4671220000000  0.5408150000000 1.0
C      1  0.4744390000000  0.5880830000000  0.5560820000000 1.0
C      1  0.5167260000000  0.4713790000000  0.4388290000000 1.0
C      1  0.5761680000000  0.5481450000000  0.4458480000000 1.0
C      1  0.5041800000000  0.3927750000000  0.4890980000000 1.0
C      1  0.4869850000000  0.4112410000000  0.4764040000000 1.0
C      1  0.4661980000000  0.4582620000000  0.4595280000000 1.0
C      1  0.5752800000000  0.5010800000000  0.5254060000000 1.0
C      1  0.5629980000000  0.4791080000000  0.5712280000000 1.0
C      1  0.5089620000000  0.5214860000000  0.5998740000000 1.0
C      1  0.5585030000000  0.5686910000000  0.4546470000000 1.0
C      1  0.5090150000000  0.5822870000000  0.4848180000000 1.0
C      1  0.4492000000000  0.4964820000000  0.5555610000000 1.0
C      1  0.5264830000000  0.4957220000000  0.5519070000000 1.0
C      1  0.4758980000000  0.4115230000000  0.5360470000000 1.0
C      1  0.5013610000000  0.5099460000000  0.5645910000000 1.0
C      1  0.4868200000000  0.5283880000000  0.4999490000000 1.0
C      1  0.4350790000000  0.4281180000000  0.5326840000000 1.0
C      1  0.5314060000000  0.4869050000000  0.4989030000000 1.0
C      1  0.5669440000000  0.5759650000000  0.4814630000000 1.0
C      1  0.4890860000000  0.5959940000000  0.5313370000000 1.0
C      1  0.4125780000000  0.5204480000000  0.5140210000000 1.0
C      1  0.5184130000000  0.5932300000000  0.5341530000000 1.0
C      1  0.5009770000000  0.5360880000000  0.5472440000000 1.0
C      1  0.5572810000000  0.4145740000000  0.5354330000000 1.0
C      1  0.4860680000000  0.4616460000000  0.5515910000000 1.0
C      1  0.4642090000000  0.5001990000000  0.4039530000000 1.0
C      1  0.4840670000000  0.5822580000000  0.5025680000000 1.0
C      1  0.4555060000000  0.4592950000000  0.4287390000000 1.0
END
