TITL C-951344-124-579 -6.58583606354228e-07 125000 -938.741487443594 0 0 150 (C1) n - 1
REM
REM in /home/bkarasulu/work/CARBON/AIRSS/Generating-Clusters/EDIP-Nigel-Params/with-SteepDescent/Only-C1/SD-CG/HFTN-CG
REM
REM
REM
REM
REM
REM ./C.cell (11c1c37f851c82e70ff6c80c92926a4b)
REM
REM compiler GCC version 9.2.1 20190827 (Red Hat 9.2.1-1)
REM options -cpp -mtune=generic -march=x86-64 -g -O0 -fpre-include=/usr/include/finclude/math-vector-fortran.h
REM seed 1459407594 1912930748 -1686025631 739839238 455592120 -883453693 1007244076 -504954938 807237531 -1978854829 1882917371 1651050862 -1667154473 2093377690 -1748690349 880420789 -1347248091 -598152393 1818517504 1518146323 -1289146290 -1982854623 -261298317 -1231100648 2057293313 1901892010 -434938569 2068254870 1033566429 -952015482 -1097284849 172003053 -800669470
REM
CELL 1.54180   50.00000   50.00000   50.00000   90.00000   90.00000   90.00000
LATT -1
SFAC C  
C      1  0.5286660000000  0.4240390000000  0.4364920000000 1.0
C      1  0.5050480000000  0.5309880000000  0.5627640000000 1.0
C      1  0.5799560000000  0.5328680000000  0.5581670000000 1.0
C      1  0.5162760000000  0.4719360000000  0.4971090000000 1.0
C      1  0.4743750000000  0.4364650000000  0.4271830000000 1.0
C      1  0.6035870000000  0.5059870000000  0.5131830000000 1.0
C      1  0.4462240000000  0.5210810000000  0.4044310000000 1.0
C      1  0.5505640000000  0.4633980000000  0.4420660000000 1.0
C      1  0.5613740000000  0.5280110000000  0.5215620000000 1.0
C      1  0.4321570000000  0.4242770000000  0.5264510000000 1.0
C      1  0.4933230000000  0.5386860000000  0.5354840000000 1.0
C      1  0.4997950000000  0.3956950000000  0.4827350000000 1.0
C      1  0.4433780000000  0.4992500000000  0.4962530000000 1.0
C      1  0.4692650000000  0.5643540000000  0.4994500000000 1.0
C      1  0.5709860000000  0.4162540000000  0.5032120000000 1.0
C      1  0.5147880000000  0.5198620000000  0.4830060000000 1.0
C      1  0.4638940000000  0.5005180000000  0.4728020000000 1.0
C      1  0.5652610000000  0.4442830000000  0.4578450000000 1.0
C      1  0.5022820000000  0.4548250000000  0.5809310000000 1.0
C      1  0.5427970000000  0.5966090000000  0.5052500000000 1.0
C      1  0.4669040000000  0.5556340000000  0.4361500000000 1.0
C      1  0.5255000000000  0.3952460000000  0.4957570000000 1.0
C      1  0.4393620000000  0.5287790000000  0.5642890000000 1.0
C      1  0.5638630000000  0.5660350000000  0.4287110000000 1.0
C      1  0.4547200000000  0.5176560000000  0.5174220000000 1.0
C      1  0.4410640000000  0.4706510000000  0.5086960000000 1.0
C      1  0.5779820000000  0.4891470000000  0.5651920000000 1.0
C      1  0.5130420000000  0.5954700000000  0.5068260000000 1.0
C      1  0.5407050000000  0.5089650000000  0.5950810000000 1.0
C      1  0.4026500000000  0.5340360000000  0.4837300000000 1.0
C      1  0.4909010000000  0.4605530000000  0.4029720000000 1.0
C      1  0.5131690000000  0.5029280000000  0.5079500000000 1.0
C      1  0.5944790000000  0.4497340000000  0.5320320000000 1.0
C      1  0.5478250000000  0.4614450000000  0.5378990000000 1.0
C      1  0.5160070000000  0.5826680000000  0.4347540000000 1.0
C      1  0.4583990000000  0.4650440000000  0.5365110000000 1.0
C      1  0.5162820000000  0.5015910000000  0.6066820000000 1.0
C      1  0.4285600000000  0.5711500000000  0.4551110000000 1.0
C      1  0.5930790000000  0.5497060000000  0.4917460000000 1.0
C      1  0.5596670000000  0.5780410000000  0.5228340000000 1.0
C      1  0.5860120000000  0.5329240000000  0.4673500000000 1.0
C      1  0.4194400000000  0.5503620000000  0.5245580000000 1.0
C      1  0.4611150000000  0.4339130000000  0.5275510000000 1.0
C      1  0.4887500000000  0.5045780000000  0.4220370000000 1.0
C      1  0.4471510000000  0.4892980000000  0.4047690000000 1.0
C      1  0.5310450000000  0.4953580000000  0.4085020000000 1.0
C      1  0.4191390000000  0.4668800000000  0.4543180000000 1.0
C      1  0.4283620000000  0.4038060000000  0.5043110000000 1.0
C      1  0.4247080000000  0.5232080000000  0.4469870000000 1.0
C      1  0.4849800000000  0.5212700000000  0.4742470000000 1.0
C      1  0.5726010000000  0.4815740000000  0.4345840000000 1.0
C      1  0.5746700000000  0.5059980000000  0.5065060000000 1.0
C      1  0.5253840000000  0.4512660000000  0.5201250000000 1.0
C      1  0.5074280000000  0.5729130000000  0.5763950000000 1.0
C      1  0.4119630000000  0.4858460000000  0.4780180000000 1.0
C      1  0.4193200000000  0.4282990000000  0.4901600000000 1.0
C      1  0.5882880000000  0.4410010000000  0.5022540000000 1.0
C      1  0.5697110000000  0.4371700000000  0.5460380000000 1.0
C      1  0.5289550000000  0.4786620000000  0.4614020000000 1.0
C      1  0.4474540000000  0.5836840000000  0.4979080000000 1.0
C      1  0.4445200000000  0.5404510000000  0.5364470000000 1.0
C      1  0.4449750000000  0.4493750000000  0.4563460000000 1.0
C      1  0.5571520000000  0.5487260000000  0.5660690000000 1.0
C      1  0.4714640000000  0.5588100000000  0.5299910000000 1.0
C      1  0.5247220000000  0.5051710000000  0.5537790000000 1.0
C      1  0.4620360000000  0.5631160000000  0.5854040000000 1.0
C      1  0.4762980000000  0.5492910000000  0.4695940000000 1.0
C      1  0.5030810000000  0.4812290000000  0.5522330000000 1.0
C      1  0.4116390000000  0.5261280000000  0.5100510000000 1.0
C      1  0.5405380000000  0.5376810000000  0.5873360000000 1.0
C      1  0.5039670000000  0.5956320000000  0.5351150000000 1.0
C      1  0.5466180000000  0.5233900000000  0.4417300000000 1.0
C      1  0.4484890000000  0.5893150000000  0.4690150000000 1.0
C      1  0.5648490000000  0.4808550000000  0.5212420000000 1.0
C      1  0.4845270000000  0.5817770000000  0.4314790000000 1.0
C      1  0.6077910000000  0.5348920000000  0.5138020000000 1.0
C      1  0.5333220000000  0.4621580000000  0.5783480000000 1.0
C      1  0.4835680000000  0.5126070000000  0.5243220000000 1.0
C      1  0.4768860000000  0.4157430000000  0.5447110000000 1.0
C      1  0.5226930000000  0.5838740000000  0.5549020000000 1.0
C      1  0.4790830000000  0.4749020000000  0.5883820000000 1.0
C      1  0.5364870000000  0.5638770000000  0.4212720000000 1.0
C      1  0.4118730000000  0.4913750000000  0.5489600000000 1.0
C      1  0.5715500000000  0.5075280000000  0.4765280000000 1.0
C      1  0.5475330000000  0.4219050000000  0.4593670000000 1.0
C      1  0.4796940000000  0.5810390000000  0.5739700000000 1.0
C      1  0.4780300000000  0.4752200000000  0.4680060000000 1.0
C      1  0.5391840000000  0.5072640000000  0.4667980000000 1.0
C      1  0.4014550000000  0.5010520000000  0.5226090000000 1.0
C      1  0.5211530000000  0.5488970000000  0.4847220000000 1.0
C      1  0.5903770000000  0.5122190000000  0.5745910000000 1.0
C      1  0.5017040000000  0.4553360000000  0.5367090000000 1.0
C      1  0.5903980000000  0.4795670000000  0.5381470000000 1.0
C      1  0.5479170000000  0.5893260000000  0.4763710000000 1.0
C      1  0.5846130000000  0.4839360000000  0.4637070000000 1.0
C      1  0.5791920000000  0.4580940000000  0.4790020000000 1.0
C      1  0.5337430000000  0.4144270000000  0.5278310000000 1.0
C      1  0.5475150000000  0.4108550000000  0.4858410000000 1.0
C      1  0.4735070000000  0.4369540000000  0.4947080000000 1.0
C      1  0.5373530000000  0.4474820000000  0.4202840000000 1.0
C      1  0.4247970000000  0.5365300000000  0.4195810000000 1.0
C      1  0.5676990000000  0.5436310000000  0.4458480000000 1.0
C      1  0.5469430000000  0.4898030000000  0.5724040000000 1.0
C      1  0.4769180000000  0.4944750000000  0.5481630000000 1.0
C      1  0.5164240000000  0.5518100000000  0.5932600000000 1.0
C      1  0.4766590000000  0.5860980000000  0.5445810000000 1.0
C      1  0.4809020000000  0.5170370000000  0.5754200000000 1.0
C      1  0.5006920000000  0.5986960000000  0.4786150000000 1.0
C      1  0.5344120000000  0.5125540000000  0.5267510000000 1.0
C      1  0.4708010000000  0.5296490000000  0.4192850000000 1.0
C      1  0.5226470000000  0.5393610000000  0.4324800000000 1.0
C      1  0.5247050000000  0.4184020000000  0.5561320000000 1.0
C      1  0.4518120000000  0.3987450000000  0.4874800000000 1.0
C      1  0.5128770000000  0.5179290000000  0.4126260000000 1.0
C      1  0.4773520000000  0.5923340000000  0.4592810000000 1.0
C      1  0.5475260000000  0.5591620000000  0.4817540000000 1.0
C      1  0.4257810000000  0.5451840000000  0.4679600000000 1.0
C      1  0.4770780000000  0.4861260000000  0.4012370000000 1.0
C      1  0.5565760000000  0.5035560000000  0.4217560000000 1.0
C      1  0.5627950000000  0.4129430000000  0.5302880000000 1.0
C      1  0.4877580000000  0.4635160000000  0.4923500000000 1.0
C      1  0.4411290000000  0.4809950000000  0.4349060000000 1.0
C      1  0.4439720000000  0.4468910000000  0.4872210000000 1.0
C      1  0.4084460000000  0.4546040000000  0.5221060000000 1.0
C      1  0.4483430000000  0.5054550000000  0.4486870000000 1.0
C      1  0.5470470000000  0.5700720000000  0.5482440000000 1.0
C      1  0.4357410000000  0.5001420000000  0.5632260000000 1.0
C      1  0.5003080000000  0.4780920000000  0.4476680000000 1.0
C      1  0.3980350000000  0.4777970000000  0.5045760000000 1.0
C      1  0.4893690000000  0.5002950000000  0.5988920000000 1.0
C      1  0.4878420000000  0.4208330000000  0.4696950000000 1.0
C      1  0.3991660000000  0.5099720000000  0.4656780000000 1.0
C      1  0.5192150000000  0.4674260000000  0.4091440000000 1.0
C      1  0.4587920000000  0.5357490000000  0.5836300000000 1.0
C      1  0.4379590000000  0.5626800000000  0.4287720000000 1.0
C      1  0.4399550000000  0.4561130000000  0.5600370000000 1.0
C      1  0.4773030000000  0.3907960000000  0.5006810000000 1.0
C      1  0.5237900000000  0.5979780000000  0.4603530000000 1.0
C      1  0.4696260000000  0.4141480000000  0.4457380000000 1.0
C      1  0.4819040000000  0.3933900000000  0.5285290000000 1.0
C      1  0.5053400000000  0.5581970000000  0.4616640000000 1.0
C      1  0.4992820000000  0.4461710000000  0.4422170000000 1.0
C      1  0.5960260000000  0.5438400000000  0.5378850000000 1.0
C      1  0.4234620000000  0.5733710000000  0.5088040000000 1.0
C      1  0.4989400000000  0.4329190000000  0.5563120000000 1.0
C      1  0.5655230000000  0.5543140000000  0.5047490000000 1.0
C      1  0.4120960000000  0.4623470000000  0.5504700000000 1.0
C      1  0.5458070000000  0.4361930000000  0.5690300000000 1.0
C      1  0.4464770000000  0.4108950000000  0.4609320000000 1.0
C      1  0.4498280000000  0.4774330000000  0.5784340000000 1.0
END
