TITL C-951347-9520-61 -6.72096331422965e-08 125000 -723.987477734017 0 0 116 (C1) n - 1
REM
REM in /home/bkarasulu/work/CARBON/AIRSS/Generating-Clusters/EDIP-Nigel-Params/with-SteepDescent/Only-C1/SD-CG/HFTN-CG
REM
REM
REM
REM
REM
REM ./C.cell (11c1c37f851c82e70ff6c80c92926a4b)
REM
REM compiler GCC version 9.2.1 20190827 (Red Hat 9.2.1-1)
REM options -cpp -mtune=generic -march=x86-64 -g -O0 -fpre-include=/usr/include/finclude/math-vector-fortran.h
REM seed -314979277 -1068445251 -1168322980 797686074 653603662 1213383247 -402698113 -586535059 -1697580044 1992433760 1861604188 1792067390 242306209 1440700947 437784425 -1361066407 -299646795 -1675736480 -1046759074 -682052170 -1164369234 -1979602668 -716609421 885568969 767831162 -1599237041 -67302784 1799709456 1223212362 575002283 -821567397 222099977 -1782827552
REM
CELL 1.54180   50.00000   50.00000   50.00000   90.00000   90.00000   90.00000
LATT -1
SFAC C  
C      1  0.4224390000000  0.5036960000000  0.5439730000000 1.0
C      1  0.4732490000000  0.5424480000000  0.4736550000000 1.0
C      1  0.5235020000000  0.5178040000000  0.5478540000000 1.0
C      1  0.4498060000000  0.5530730000000  0.5513350000000 1.0
C      1  0.5657700000000  0.5544180000000  0.5028070000000 1.0
C      1  0.5770190000000  0.5189770000000  0.5414060000000 1.0
C      1  0.4053630000000  0.5213330000000  0.4989210000000 1.0
C      1  0.4951320000000  0.5017180000000  0.4717340000000 1.0
C      1  0.4830550000000  0.4364700000000  0.5763380000000 1.0
C      1  0.5045940000000  0.4392670000000  0.5297580000000 1.0
C      1  0.5226540000000  0.5246410000000  0.5022010000000 1.0
C      1  0.4079820000000  0.4920870000000  0.4572300000000 1.0
C      1  0.4907450000000  0.5036770000000  0.4181150000000 1.0
C      1  0.4055440000000  0.4575850000000  0.5187560000000 1.0
C      1  0.5587610000000  0.4204920000000  0.4647930000000 1.0
C      1  0.4352970000000  0.4791950000000  0.5500980000000 1.0
C      1  0.4957220000000  0.4414370000000  0.5003240000000 1.0
C      1  0.4916520000000  0.5382810000000  0.5890350000000 1.0
C      1  0.4594230000000  0.4344800000000  0.5317540000000 1.0
C      1  0.5031010000000  0.4807100000000  0.5863670000000 1.0
C      1  0.5055520000000  0.4392040000000  0.4171310000000 1.0
C      1  0.5483660000000  0.5568600000000  0.5278910000000 1.0
C      1  0.4630180000000  0.4979600000000  0.4737210000000 1.0
C      1  0.5004490000000  0.5063110000000  0.5012240000000 1.0
C      1  0.5179890000000  0.4637550000000  0.4923140000000 1.0
C      1  0.4221270000000  0.5167360000000  0.4522980000000 1.0
C      1  0.5387360000000  0.5334360000000  0.5685930000000 1.0
C      1  0.4317450000000  0.4257810000000  0.4692410000000 1.0
C      1  0.4378700000000  0.5803210000000  0.4869530000000 1.0
C      1  0.4772710000000  0.4494300000000  0.5508760000000 1.0
C      1  0.5855040000000  0.4628010000000  0.5291500000000 1.0
C      1  0.4634940000000  0.4757340000000  0.5577380000000 1.0
C      1  0.4638690000000  0.4412370000000  0.5018850000000 1.0
C      1  0.4978620000000  0.4130130000000  0.4593190000000 1.0
C      1  0.5806500000000  0.4973740000000  0.5618160000000 1.0
C      1  0.5160790000000  0.4869600000000  0.4280420000000 1.0
C      1  0.5347470000000  0.4470310000000  0.5299920000000 1.0
C      1  0.5545100000000  0.4215530000000  0.4923020000000 1.0
C      1  0.4772760000000  0.5206720000000  0.5149560000000 1.0
C      1  0.4718880000000  0.5197720000000  0.5803040000000 1.0
C      1  0.4615940000000  0.4981480000000  0.4231620000000 1.0
C      1  0.4783800000000  0.5886230000000  0.5319870000000 1.0
C      1  0.5272030000000  0.4898180000000  0.5384910000000 1.0
C      1  0.5419640000000  0.5847930000000  0.5308550000000 1.0
C      1  0.5632240000000  0.5052930000000  0.4239050000000 1.0
C      1  0.4907730000000  0.5446130000000  0.5261850000000 1.0
C      1  0.5689530000000  0.5031690000000  0.5866410000000 1.0
C      1  0.5244340000000  0.5410020000000  0.4788470000000 1.0
C      1  0.4548130000000  0.5493980000000  0.4515140000000 1.0
C      1  0.5540140000000  0.5441430000000  0.4776450000000 1.0
C      1  0.5110630000000  0.4105490000000  0.5373100000000 1.0
C      1  0.5159580000000  0.4248160000000  0.4390510000000 1.0
C      1  0.4343210000000  0.4302390000000  0.5426780000000 1.0
C      1  0.5228430000000  0.5576320000000  0.5761810000000 1.0
C      1  0.4939950000000  0.5626330000000  0.5731180000000 1.0
C      1  0.4213560000000  0.4548860000000  0.5413580000000 1.0
C      1  0.5282680000000  0.4157040000000  0.5603050000000 1.0
C      1  0.5700130000000  0.4653880000000  0.5063390000000 1.0
C      1  0.5065390000000  0.4165850000000  0.4882870000000 1.0
C      1  0.4231750000000  0.5330470000000  0.4776920000000 1.0
C      1  0.5422040000000  0.4659900000000  0.5524950000000 1.0
C      1  0.4780690000000  0.5631040000000  0.5460080000000 1.0
C      1  0.4729170000000  0.5676010000000  0.4369350000000 1.0
C      1  0.5467190000000  0.5670110000000  0.4390440000000 1.0
C      1  0.5195930000000  0.5731080000000  0.4400070000000 1.0
C      1  0.5314000000000  0.5974750000000  0.5095050000000 1.0
C      1  0.5115300000000  0.4832410000000  0.5143940000000 1.0
C      1  0.5642200000000  0.4801540000000  0.4398160000000 1.0
C      1  0.4665410000000  0.5849650000000  0.4838350000000 1.0
C      1  0.5940240000000  0.5235960000000  0.5175630000000 1.0
C      1  0.4494710000000  0.5311930000000  0.5685580000000 1.0
C      1  0.5201860000000  0.3995610000000  0.5099780000000 1.0
C      1  0.4985240000000  0.5513470000000  0.4353990000000 1.0
C      1  0.5083060000000  0.5910630000000  0.4620730000000 1.0
C      1  0.5554530000000  0.4866630000000  0.4666880000000 1.0
C      1  0.4172650000000  0.5251550000000  0.5261780000000 1.0
C      1  0.4391520000000  0.4541080000000  0.4631200000000 1.0
C      1  0.4991220000000  0.5320980000000  0.4118250000000 1.0
C      1  0.5420000000000  0.4342120000000  0.4473400000000 1.0
C      1  0.5233960000000  0.4970090000000  0.5968000000000 1.0
C      1  0.4581670000000  0.5234470000000  0.4914400000000 1.0
C      1  0.4219810000000  0.4693680000000  0.4447930000000 1.0
C      1  0.4782130000000  0.4919480000000  0.5765440000000 1.0
C      1  0.5234690000000  0.4611320000000  0.4145290000000 1.0
C      1  0.5925060000000  0.5052270000000  0.4965370000000 1.0
C      1  0.5204140000000  0.5388370000000  0.5269390000000 1.0
C      1  0.4203520000000  0.4747310000000  0.5018370000000 1.0
C      1  0.5443220000000  0.5147010000000  0.5913300000000 1.0
C      1  0.5094990000000  0.5940190000000  0.4927240000000 1.0
C      1  0.4998160000000  0.5327830000000  0.4620270000000 1.0
C      1  0.4831240000000  0.5954800000000  0.5049740000000 1.0
C      1  0.4313710000000  0.5505450000000  0.5293800000000 1.0
C      1  0.4515760000000  0.5129900000000  0.4477270000000 1.0
C      1  0.5059210000000  0.4514490000000  0.5846470000000 1.0
C      1  0.5728570000000  0.4702210000000  0.5529070000000 1.0
C      1  0.5177490000000  0.4822320000000  0.4610650000000 1.0
C      1  0.5462480000000  0.4489430000000  0.5027240000000 1.0
C      1  0.5309830000000  0.4415880000000  0.5734300000000 1.0
C      1  0.4552450000000  0.4181440000000  0.4840170000000 1.0
C      1  0.4285180000000  0.5719080000000  0.5118620000000 1.0
C      1  0.4644250000000  0.4519670000000  0.4465450000000 1.0
C      1  0.5654920000000  0.5506290000000  0.4512180000000 1.0
C      1  0.5741780000000  0.5284560000000  0.4359820000000 1.0
C      1  0.5928950000000  0.5499840000000  0.5080430000000 1.0
C      1  0.4473150000000  0.4689700000000  0.4880830000000 1.0
C      1  0.4293230000000  0.5616050000000  0.4662290000000 1.0
C      1  0.5353350000000  0.5078050000000  0.4184650000000 1.0
C      1  0.5257520000000  0.5294050000000  0.4031060000000 1.0
C      1  0.5494660000000  0.4554220000000  0.4284700000000 1.0
C      1  0.4685100000000  0.4215790000000  0.4554620000000 1.0
C      1  0.4789390000000  0.5889180000000  0.4572780000000 1.0
C      1  0.4545950000000  0.4697000000000  0.4246210000000 1.0
C      1  0.5753560000000  0.4852130000000  0.4875160000000 1.0
C      1  0.4024140000000  0.4930080000000  0.4878320000000 1.0
C      1  0.5626810000000  0.5427380000000  0.5516300000000 1.0
C      1  0.5482060000000  0.3980440000000  0.5067780000000 1.0
END
