TITL C-951347-9520-118 8.58576863123977e-07 125000 -462.316319303387 0 0 76 (C1) n - 1
REM
REM in /home/bkarasulu/work/CARBON/AIRSS/Generating-Clusters/EDIP-Nigel-Params/with-SteepDescent/Only-C1/SD-CG/HFTN-CG
REM
REM
REM
REM
REM
REM ./C.cell (11c1c37f851c82e70ff6c80c92926a4b)
REM
REM compiler GCC version 9.2.1 20190827 (Red Hat 9.2.1-1)
REM options -cpp -mtune=generic -march=x86-64 -g -O0 -fpre-include=/usr/include/finclude/math-vector-fortran.h
REM seed -471073275 -572736172 78469371 1110164721 -788047312 1533710271 1974596251 -1035672607 -1553344510 -952341986 90959327 1816497286 585698191 -1887816760 31045639 1644840839 -821850538 1942526142 -2009734374 -772930839 1083534963 2128808871 1248813028 704074142 411708551 543774180 -55940771 -1481766432 -800118415 1302942553 -1532356923 1385925649 1722691771
REM
CELL 1.54180   50.00000   50.00000   50.00000   90.00000   90.00000   90.00000
LATT -1
SFAC C  
C      1  0.5044830000000  0.5305090000000  0.4307220000000 1.0
C      1  0.5222680000000  0.5095000000000  0.4745310000000 1.0
C      1  0.4559830000000  0.5003570000000  0.5690610000000 1.0
C      1  0.4224400000000  0.4911530000000  0.4675250000000 1.0
C      1  0.4791700000000  0.4627070000000  0.5677550000000 1.0
C      1  0.4967680000000  0.4818930000000  0.5517550000000 1.0
C      1  0.4390390000000  0.5137860000000  0.5066410000000 1.0
C      1  0.4710170000000  0.5749110000000  0.4853670000000 1.0
C      1  0.5733620000000  0.4816470000000  0.5518480000000 1.0
C      1  0.5449000000000  0.5307170000000  0.4761370000000 1.0
C      1  0.5716350000000  0.4867620000000  0.4721460000000 1.0
C      1  0.4419260000000  0.5402230000000  0.4856980000000 1.0
C      1  0.5450780000000  0.5565750000000  0.5349670000000 1.0
C      1  0.5260850000000  0.5169400000000  0.5828830000000 1.0
C      1  0.5424760000000  0.4384870000000  0.5217130000000 1.0
C      1  0.5252470000000  0.5742390000000  0.4931570000000 1.0
C      1  0.5025640000000  0.5506290000000  0.4526420000000 1.0
C      1  0.5798120000000  0.4980250000000  0.4990260000000 1.0
C      1  0.4624230000000  0.4777420000000  0.5847900000000 1.0
C      1  0.4747900000000  0.4323460000000  0.4984700000000 1.0
C      1  0.4794900000000  0.5448240000000  0.5477860000000 1.0
C      1  0.4799570000000  0.5160800000000  0.4238890000000 1.0
C      1  0.5081190000000  0.4648650000000  0.4320370000000 1.0
C      1  0.5444720000000  0.4365180000000  0.4718530000000 1.0
C      1  0.5092790000000  0.4237680000000  0.5347140000000 1.0
C      1  0.5396660000000  0.4820600000000  0.5303770000000 1.0
C      1  0.5145310000000  0.5038600000000  0.5018340000000 1.0
C      1  0.4962680000000  0.4677660000000  0.5222190000000 1.0
C      1  0.5341960000000  0.4840670000000  0.4622870000000 1.0
C      1  0.5290520000000  0.5216950000000  0.4185850000000 1.0
C      1  0.4354090000000  0.4649930000000  0.5058210000000 1.0
C      1  0.4774340000000  0.5062260000000  0.5469260000000 1.0
C      1  0.4426110000000  0.4914790000000  0.4487400000000 1.0
C      1  0.4446130000000  0.5672970000000  0.4976230000000 1.0
C      1  0.5201760000000  0.4744130000000  0.5079550000000 1.0
C      1  0.4894440000000  0.5110560000000  0.4666620000000 1.0
C      1  0.4353090000000  0.4937100000000  0.5495070000000 1.0
C      1  0.4795270000000  0.4931960000000  0.4080100000000 1.0
C      1  0.4636690000000  0.4489520000000  0.5461700000000 1.0
C      1  0.5626590000000  0.4561880000000  0.4809630000000 1.0
C      1  0.5507790000000  0.4782310000000  0.5690430000000 1.0
C      1  0.4947680000000  0.5600630000000  0.5264350000000 1.0
C      1  0.4762650000000  0.4792520000000  0.5026520000000 1.0
C      1  0.5653460000000  0.4525500000000  0.5098050000000 1.0
C      1  0.4458080000000  0.4698840000000  0.5332700000000 1.0
C      1  0.4743880000000  0.5623270000000  0.4574280000000 1.0
C      1  0.4847050000000  0.4807440000000  0.4721400000000 1.0
C      1  0.5265340000000  0.5554000000000  0.4708820000000 1.0
C      1  0.5144240000000  0.5273720000000  0.5481630000000 1.0
C      1  0.4782640000000  0.5270570000000  0.4909120000000 1.0
C      1  0.4583570000000  0.5165020000000  0.4438070000000 1.0
C      1  0.4803490000000  0.4715050000000  0.4261080000000 1.0
C      1  0.5165750000000  0.4373680000000  0.4697700000000 1.0
C      1  0.5727520000000  0.5258560000000  0.5024170000000 1.0
C      1  0.5552530000000  0.5165880000000  0.4286760000000 1.0
C      1  0.5327890000000  0.4849940000000  0.4301210000000 1.0
C      1  0.5637750000000  0.5162620000000  0.4561830000000 1.0
C      1  0.4626400000000  0.4701740000000  0.4528720000000 1.0
C      1  0.4486050000000  0.5450440000000  0.5432070000000 1.0
C      1  0.4317070000000  0.5200660000000  0.5346260000000 1.0
C      1  0.4685490000000  0.5066540000000  0.5130930000000 1.0
C      1  0.4855400000000  0.4396270000000  0.5256890000000 1.0
C      1  0.5331530000000  0.5410970000000  0.5677970000000 1.0
C      1  0.5304650000000  0.5135890000000  0.5260140000000 1.0
C      1  0.4526340000000  0.5417560000000  0.4578010000000 1.0
C      1  0.5321460000000  0.4338500000000  0.5469610000000 1.0
C      1  0.5097260000000  0.4647110000000  0.4620390000000 1.0
C      1  0.5242970000000  0.4906150000000  0.5704240000000 1.0
C      1  0.4962870000000  0.4238600000000  0.4830350000000 1.0
C      1  0.5778020000000  0.4772800000000  0.5218300000000 1.0
C      1  0.4433070000000  0.5662700000000  0.5254910000000 1.0
C      1  0.5511980000000  0.5326730000000  0.5195250000000 1.0
C      1  0.4546410000000  0.4513850000000  0.4861080000000 1.0
C      1  0.5228790000000  0.5717480000000  0.5230140000000 1.0
C      1  0.4244240000000  0.4901510000000  0.4951190000000 1.0
C      1  0.4915180000000  0.5553370000000  0.4967460000000 1.0
END
