TITL C-950534-5965-702 -3.99660466092132e-06 125000 -996.753997989835 0 0 158 (C1) n - 1
REM
REM in /home/bkarasulu/work/CARBON/AIRSS/Generating-Clusters/EDIP-Nigel-Params/with-SteepDescent/Only-C1/SD-CG/HFTN-CG
REM
REM
REM
REM
REM
REM ./C.cell (11c1c37f851c82e70ff6c80c92926a4b)
REM
REM compiler GCC version 9.2.1 20190827 (Red Hat 9.2.1-1)
REM options -cpp -mtune=generic -march=x86-64 -g -O0 -fpre-include=/usr/include/finclude/math-vector-fortran.h
REM seed -270350800 1512726325 1534079016 877030646 -677492032 -1741508209 -412124356 450849473 -108646229 -961959043 1581689067 -1473975670 1812497641 -544902608 -1428356127 -918581702 107533853 -1319985475 806344463 1850839794 504129445 -480312203 -631177094 626630075 1411963258 -187665753 1998493519 -1135982518 824517310 148306161 -1869950483 525928285 401500570
REM
CELL 1.54180   50.00000   50.00000   50.00000   90.00000   90.00000   90.00000
LATT -1
SFAC C  
C      1  0.4654220000000  0.4615260000000  0.4353830000000 1.0
C      1  0.4003470000000  0.5289440000000  0.4759410000000 1.0
C      1  0.4652560000000  0.5388590000000  0.4136950000000 1.0
C      1  0.6029660000000  0.5333120000000  0.5002120000000 1.0
C      1  0.4003560000000  0.4556260000000  0.5375880000000 1.0
C      1  0.4775170000000  0.5136840000000  0.5474430000000 1.0
C      1  0.4660880000000  0.5410900000000  0.5722620000000 1.0
C      1  0.5299940000000  0.6026240000000  0.4689010000000 1.0
C      1  0.5802510000000  0.5344310000000  0.4479290000000 1.0
C      1  0.5130660000000  0.4587640000000  0.4453540000000 1.0
C      1  0.4982170000000  0.4527730000000  0.5986480000000 1.0
C      1  0.5388250000000  0.6036990000000  0.5173660000000 1.0
C      1  0.4565530000000  0.4128350000000  0.4256280000000 1.0
C      1  0.4529660000000  0.4574620000000  0.4652820000000 1.0
C      1  0.4424840000000  0.5285520000000  0.5152870000000 1.0
C      1  0.3964770000000  0.5009190000000  0.4675120000000 1.0
C      1  0.4901350000000  0.5089870000000  0.4396270000000 1.0
C      1  0.5687430000000  0.4437400000000  0.4766530000000 1.0
C      1  0.5181380000000  0.5492550000000  0.4639030000000 1.0
C      1  0.4558520000000  0.5934510000000  0.4780070000000 1.0
C      1  0.5514340000000  0.4346160000000  0.4325540000000 1.0
C      1  0.4044540000000  0.5450460000000  0.5000840000000 1.0
C      1  0.5463160000000  0.4815560000000  0.3948540000000 1.0
C      1  0.5210430000000  0.4133970000000  0.4814520000000 1.0
C      1  0.5035440000000  0.5351200000000  0.5495860000000 1.0
C      1  0.5437360000000  0.4134220000000  0.5363960000000 1.0
C      1  0.5084880000000  0.5598310000000  0.5053350000000 1.0
C      1  0.4313230000000  0.4970770000000  0.4277720000000 1.0
C      1  0.4468180000000  0.4495560000000  0.5339650000000 1.0
C      1  0.4330840000000  0.5825610000000  0.5182070000000 1.0
C      1  0.5794540000000  0.5816610000000  0.5348190000000 1.0
C      1  0.4052340000000  0.4939580000000  0.4404420000000 1.0
C      1  0.5157290000000  0.3895480000000  0.5010540000000 1.0
C      1  0.5391970000000  0.5006030000000  0.4416070000000 1.0
C      1  0.4847310000000  0.4447620000000  0.5715120000000 1.0
C      1  0.5206650000000  0.3953780000000  0.5298680000000 1.0
C      1  0.4950390000000  0.4800210000000  0.6094570000000 1.0
C      1  0.4230080000000  0.4468470000000  0.4310420000000 1.0
C      1  0.5821840000000  0.5123120000000  0.4055810000000 1.0
C      1  0.4916510000000  0.4786670000000  0.4325890000000 1.0
C      1  0.4467160000000  0.4776550000000  0.5169480000000 1.0
C      1  0.5284100000000  0.4519890000000  0.5514210000000 1.0
C      1  0.4495030000000  0.4891200000000  0.5956460000000 1.0
C      1  0.6110950000000  0.5310820000000  0.5266150000000 1.0
C      1  0.5272550000000  0.4263700000000  0.5699740000000 1.0
C      1  0.5792940000000  0.4715450000000  0.4291980000000 1.0
C      1  0.4371360000000  0.5632960000000  0.4431170000000 1.0
C      1  0.4461790000000  0.4267480000000  0.4715840000000 1.0
C      1  0.4862680000000  0.5763240000000  0.4428410000000 1.0
C      1  0.4823420000000  0.5908460000000  0.4674850000000 1.0
C      1  0.5013250000000  0.5224650000000  0.4641940000000 1.0
C      1  0.5745430000000  0.4852490000000  0.4053320000000 1.0
C      1  0.4582650000000  0.5030540000000  0.4789150000000 1.0
C      1  0.4733250000000  0.4069230000000  0.5241410000000 1.0
C      1  0.5136920000000  0.5399750000000  0.5919610000000 1.0
C      1  0.5141720000000  0.5664930000000  0.4401540000000 1.0
C      1  0.4977830000000  0.5014320000000  0.5069960000000 1.0
C      1  0.5745510000000  0.4375400000000  0.5047380000000 1.0
C      1  0.5229830000000  0.4631120000000  0.4750450000000 1.0
C      1  0.4994420000000  0.4319000000000  0.4408710000000 1.0
C      1  0.4826870000000  0.3932380000000  0.4996380000000 1.0
C      1  0.4175120000000  0.4892700000000  0.5062540000000 1.0
C      1  0.5332980000000  0.5084410000000  0.3941840000000 1.0
C      1  0.5380260000000  0.5012060000000  0.5368220000000 1.0
C      1  0.4979840000000  0.4134750000000  0.4629510000000 1.0
C      1  0.5963150000000  0.5085240000000  0.4878570000000 1.0
C      1  0.4541970000000  0.5051480000000  0.5302710000000 1.0
C      1  0.4925620000000  0.4739950000000  0.4977970000000 1.0
C      1  0.4571750000000  0.5951450000000  0.5067670000000 1.0
C      1  0.6028390000000  0.5188760000000  0.5490670000000 1.0
C      1  0.4858260000000  0.4898150000000  0.5623690000000 1.0
C      1  0.5179210000000  0.5396970000000  0.5234400000000 1.0
C      1  0.4952320000000  0.6026110000000  0.5395960000000 1.0
C      1  0.5895520000000  0.5654590000000  0.5555590000000 1.0
C      1  0.5820430000000  0.5587720000000  0.4633760000000 1.0
C      1  0.5571860000000  0.4246450000000  0.4584590000000 1.0
C      1  0.5230830000000  0.5127730000000  0.5584310000000 1.0
C      1  0.4045270000000  0.4521150000000  0.4775440000000 1.0
C      1  0.5052860000000  0.5989140000000  0.4841500000000 1.0
C      1  0.5356020000000  0.5186690000000  0.5845000000000 1.0
C      1  0.5905460000000  0.5573060000000  0.4907120000000 1.0
C      1  0.4644320000000  0.5681100000000  0.5577750000000 1.0
C      1  0.4398100000000  0.4634900000000  0.5846600000000 1.0
C      1  0.4290020000000  0.5065730000000  0.5842260000000 1.0
C      1  0.5990220000000  0.4859300000000  0.5052230000000 1.0
C      1  0.5034940000000  0.5056920000000  0.3936430000000 1.0
C      1  0.4851500000000  0.5284070000000  0.5932600000000 1.0
C      1  0.5327080000000  0.5887430000000  0.4440730000000 1.0
C      1  0.4982770000000  0.4629010000000  0.5505280000000 1.0
C      1  0.5170900000000  0.4912680000000  0.6229930000000 1.0
C      1  0.4225400000000  0.4638920000000  0.4563930000000 1.0
C      1  0.5096810000000  0.6031680000000  0.5146330000000 1.0
C      1  0.5512200000000  0.4673870000000  0.5626430000000 1.0
C      1  0.4926940000000  0.4522920000000  0.5202730000000 1.0
C      1  0.4790320000000  0.4970560000000  0.5910440000000 1.0
C      1  0.3992860000000  0.4815210000000  0.5489700000000 1.0
C      1  0.4383330000000  0.5252610000000  0.4199480000000 1.0
C      1  0.5237260000000  0.4609200000000  0.3994610000000 1.0
C      1  0.4320640000000  0.5125320000000  0.4908620000000 1.0
C      1  0.5511840000000  0.5863100000000  0.5379420000000 1.0
C      1  0.5662340000000  0.5567810000000  0.5693150000000 1.0
C      1  0.3962310000000  0.4785920000000  0.4882580000000 1.0
C      1  0.4407030000000  0.5645870000000  0.5404120000000 1.0
C      1  0.5350180000000  0.5673220000000  0.4932530000000 1.0
C      1  0.4189960000000  0.5700270000000  0.4950060000000 1.0
C      1  0.4039750000000  0.5019510000000  0.5288370000000 1.0
C      1  0.5691040000000  0.5329350000000  0.4200350000000 1.0
C      1  0.4228140000000  0.5443780000000  0.5503410000000 1.0
C      1  0.4060460000000  0.5322610000000  0.5284290000000 1.0
C      1  0.4544230000000  0.4478670000000  0.5651170000000 1.0
C      1  0.5635220000000  0.4877570000000  0.5449810000000 1.0
C      1  0.4746120000000  0.4345610000000  0.4258630000000 1.0
C      1  0.5653270000000  0.4099720000000  0.5146510000000 1.0
C      1  0.5502760000000  0.5435920000000  0.4788520000000 1.0
C      1  0.5651770000000  0.4868620000000  0.4498920000000 1.0
C      1  0.5831240000000  0.5085950000000  0.4614100000000 1.0
C      1  0.5245870000000  0.5131580000000  0.5131160000000 1.0
C      1  0.4202210000000  0.4342360000000  0.4954640000000 1.0
C      1  0.5429710000000  0.5132080000000  0.4894130000000 1.0
C      1  0.5590070000000  0.4865510000000  0.4957620000000 1.0
C      1  0.5798750000000  0.5086270000000  0.5609470000000 1.0
C      1  0.4724970000000  0.4085360000000  0.4760670000000 1.0
C      1  0.5762170000000  0.4721380000000  0.5176350000000 1.0
C      1  0.5635730000000  0.5282670000000  0.5767710000000 1.0
C      1  0.4629310000000  0.4759280000000  0.4892370000000 1.0
C      1  0.5542370000000  0.3905740000000  0.4951120000000 1.0
C      1  0.5895280000000  0.5785330000000  0.5088660000000 1.0
C      1  0.4816570000000  0.5190750000000  0.4888550000000 1.0
C      1  0.5500110000000  0.6021710000000  0.4901140000000 1.0
C      1  0.4356920000000  0.4216310000000  0.4424170000000 1.0
C      1  0.4402280000000  0.5267560000000  0.5661780000000 1.0
C      1  0.4985270000000  0.4774580000000  0.4026030000000 1.0
C      1  0.4421330000000  0.4709240000000  0.4179620000000 1.0
C      1  0.5373060000000  0.4593780000000  0.4265380000000 1.0
C      1  0.5157030000000  0.5624500000000  0.5726110000000 1.0
C      1  0.4350810000000  0.5747210000000  0.4702160000000 1.0
C      1  0.5543720000000  0.4691670000000  0.4731580000000 1.0
C      1  0.4098660000000  0.4858570000000  0.5755040000000 1.0
C      1  0.5455020000000  0.4682390000000  0.5914680000000 1.0
C      1  0.4801360000000  0.5687260000000  0.5126780000000 1.0
C      1  0.4677520000000  0.4354110000000  0.5185880000000 1.0
C      1  0.5363950000000  0.4942170000000  0.6027990000000 1.0
C      1  0.5271320000000  0.4441740000000  0.5962240000000 1.0
C      1  0.4633530000000  0.5626830000000  0.4308790000000 1.0
C      1  0.5398210000000  0.5232100000000  0.4199030000000 1.0
C      1  0.5203500000000  0.4400410000000  0.4969190000000 1.0
C      1  0.5251510000000  0.5058280000000  0.4668270000000 1.0
C      1  0.4976440000000  0.4097100000000  0.5392640000000 1.0
C      1  0.5354670000000  0.4411550000000  0.5241870000000 1.0
C      1  0.4200610000000  0.4395670000000  0.5253400000000 1.0
C      1  0.4201790000000  0.5441170000000  0.4314320000000 1.0
C      1  0.4932120000000  0.5254600000000  0.4152060000000 1.0
C      1  0.4678100000000  0.5418070000000  0.5047910000000 1.0
C      1  0.5170630000000  0.5446890000000  0.4196490000000 1.0
C      1  0.5541610000000  0.3980980000000  0.4676020000000 1.0
C      1  0.4875070000000  0.5752630000000  0.5413400000000 1.0
C      1  0.4982610000000  0.4186080000000  0.5663000000000 1.0
C      1  0.5420340000000  0.5724730000000  0.5631390000000 1.0
END
