TITL C-951339-9237-439 -1.57970726919151e-06 125000 -1019.75448701237 0 0 163 (C1) n - 1
REM
REM in /home/bkarasulu/work/CARBON/AIRSS/Generating-Clusters/EDIP-Nigel-Params/with-SteepDescent/Only-C1/SD-CG/HFTN-CG
REM
REM
REM
REM
REM
REM ./C.cell (11c1c37f851c82e70ff6c80c92926a4b)
REM
REM compiler GCC version 9.2.1 20190827 (Red Hat 9.2.1-1)
REM options -cpp -mtune=generic -march=x86-64 -g -O0 -fpre-include=/usr/include/finclude/math-vector-fortran.h
REM seed -2131171825 -790745829 -328273943 -913661499 -1954084666 -984212350 1298741571 -567854963 -976093985 -1403861375 1092301508 -912160024 1866152013 -775013932 1400891788 -1487451778 -586129749 1762875785 -882834870 -717190603 50480205 828693256 -996410344 550324651 -2115479637 1213175325 332864052 -1579735963 610347017 1191005156 -905978694 -1973114082 -168081590
REM
CELL 1.54180   50.00000   50.00000   50.00000   90.00000   90.00000   90.00000
LATT -1
SFAC C  
C      1  0.5313150000000  0.3992990000000  0.5193480000000 1.0
C      1  0.5337380000000  0.4756060000000  0.4692720000000 1.0
C      1  0.4760360000000  0.5632540000000  0.5861310000000 1.0
C      1  0.4425900000000  0.5156440000000  0.4836280000000 1.0
C      1  0.4732490000000  0.4671390000000  0.5528120000000 1.0
C      1  0.4498720000000  0.5203080000000  0.5320540000000 1.0
C      1  0.5439310000000  0.4322490000000  0.5517250000000 1.0
C      1  0.5920080000000  0.4900310000000  0.5472650000000 1.0
C      1  0.4509680000000  0.5846050000000  0.5503880000000 1.0
C      1  0.4537930000000  0.4789690000000  0.5941730000000 1.0
C      1  0.4940860000000  0.5964690000000  0.4802070000000 1.0
C      1  0.6004030000000  0.4426760000000  0.5451510000000 1.0
C      1  0.5823290000000  0.5063360000000  0.5917410000000 1.0
C      1  0.4488510000000  0.5810610000000  0.4773170000000 1.0
C      1  0.3884430000000  0.5398300000000  0.4928310000000 1.0
C      1  0.4889880000000  0.6129010000000  0.5300890000000 1.0
C      1  0.4679280000000  0.4282490000000  0.4517240000000 1.0
C      1  0.4881410000000  0.4269700000000  0.4073880000000 1.0
C      1  0.5805030000000  0.5745410000000  0.5487340000000 1.0
C      1  0.4378870000000  0.4996070000000  0.5841980000000 1.0
C      1  0.4770200000000  0.6000390000000  0.5545140000000 1.0
C      1  0.5458450000000  0.5299380000000  0.4670800000000 1.0
C      1  0.4241130000000  0.5536190000000  0.4501340000000 1.0
C      1  0.5066080000000  0.4012700000000  0.5327830000000 1.0
C      1  0.5438270000000  0.4837630000000  0.6071390000000 1.0
C      1  0.5449460000000  0.4246880000000  0.5223970000000 1.0
C      1  0.5793090000000  0.5011780000000  0.4652290000000 1.0
C      1  0.5948070000000  0.4400630000000  0.5180910000000 1.0
C      1  0.4456040000000  0.5265330000000  0.5930490000000 1.0
C      1  0.5632090000000  0.5731790000000  0.5707130000000 1.0
C      1  0.4866180000000  0.4762190000000  0.3954520000000 1.0
C      1  0.4470820000000  0.4507610000000  0.4197430000000 1.0
C      1  0.4908790000000  0.5508520000000  0.5281930000000 1.0
C      1  0.4645080000000  0.5159050000000  0.4641600000000 1.0
C      1  0.5974740000000  0.5443820000000  0.5119260000000 1.0
C      1  0.5726040000000  0.4565140000000  0.4442780000000 1.0
C      1  0.4782300000000  0.4826020000000  0.5785120000000 1.0
C      1  0.4238700000000  0.5255610000000  0.5493860000000 1.0
C      1  0.4787090000000  0.5821790000000  0.4361270000000 1.0
C      1  0.4132020000000  0.5664070000000  0.5209110000000 1.0
C      1  0.3988100000000  0.5298790000000  0.5204710000000 1.0
C      1  0.5536730000000  0.4588090000000  0.5553210000000 1.0
C      1  0.4763560000000  0.5770480000000  0.4655540000000 1.0
C      1  0.5362730000000  0.5013390000000  0.4538580000000 1.0
C      1  0.5500970000000  0.5309390000000  0.5060020000000 1.0
C      1  0.4551140000000  0.4712580000000  0.5062240000000 1.0
C      1  0.5697040000000  0.4797590000000  0.5029610000000 1.0
C      1  0.5398910000000  0.5293330000000  0.5930300000000 1.0
C      1  0.6079420000000  0.4908900000000  0.5219180000000 1.0
C      1  0.5113210000000  0.5665600000000  0.5442850000000 1.0
C      1  0.4106290000000  0.4561460000000  0.4483710000000 1.0
C      1  0.5973020000000  0.5083730000000  0.5686760000000 1.0
C      1  0.3953640000000  0.5199020000000  0.4703690000000 1.0
C      1  0.4379100000000  0.4255440000000  0.4927760000000 1.0
C      1  0.4169920000000  0.4268220000000  0.4498880000000 1.0
C      1  0.4521860000000  0.5936210000000  0.5028280000000 1.0
C      1  0.6001970000000  0.5336870000000  0.5590360000000 1.0
C      1  0.4308820000000  0.5577780000000  0.4787720000000 1.0
C      1  0.5744920000000  0.5082290000000  0.4932710000000 1.0
C      1  0.5279410000000  0.3583790000000  0.4647470000000 1.0
C      1  0.5283460000000  0.5513120000000  0.4999940000000 1.0
C      1  0.5144770000000  0.3829450000000  0.4695720000000 1.0
C      1  0.4308370000000  0.4408200000000  0.5668920000000 1.0
C      1  0.5302610000000  0.4463440000000  0.5040920000000 1.0
C      1  0.4147750000000  0.4837890000000  0.5352850000000 1.0
C      1  0.4963280000000  0.5801440000000  0.5687490000000 1.0
C      1  0.5229130000000  0.5091420000000  0.4000370000000 1.0
C      1  0.5573510000000  0.4710950000000  0.4229440000000 1.0
C      1  0.4178630000000  0.4140080000000  0.4754560000000 1.0
C      1  0.5803590000000  0.5583900000000  0.4911610000000 1.0
C      1  0.5233080000000  0.5929870000000  0.4767210000000 1.0
C      1  0.5001870000000  0.4552190000000  0.5425090000000 1.0
C      1  0.5292120000000  0.4080990000000  0.4707130000000 1.0
C      1  0.5485770000000  0.5568000000000  0.5878170000000 1.0
C      1  0.5861250000000  0.5246550000000  0.4494810000000 1.0
C      1  0.4044740000000  0.4569090000000  0.5307230000000 1.0
C      1  0.4656450000000  0.5584760000000  0.4210040000000 1.0
C      1  0.4886620000000  0.4993890000000  0.4775540000000 1.0
C      1  0.4864150000000  0.5177370000000  0.5693260000000 1.0
C      1  0.4651090000000  0.4211500000000  0.4804810000000 1.0
C      1  0.5194610000000  0.4285430000000  0.4303970000000 1.0
C      1  0.5662350000000  0.5822240000000  0.5017170000000 1.0
C      1  0.4716650000000  0.5362910000000  0.5464740000000 1.0
C      1  0.4238530000000  0.4692000000000  0.4242070000000 1.0
C      1  0.6016370000000  0.5155040000000  0.5039160000000 1.0
C      1  0.5317570000000  0.5835420000000  0.4485160000000 1.0
C      1  0.4320670000000  0.5438140000000  0.5725150000000 1.0
C      1  0.4766380000000  0.5331950000000  0.5938640000000 1.0
C      1  0.4909650000000  0.4170690000000  0.4349090000000 1.0
C      1  0.4998460000000  0.4679690000000  0.5935730000000 1.0
C      1  0.5301760000000  0.4616470000000  0.4144460000000 1.0
C      1  0.5125820000000  0.4575120000000  0.4623310000000 1.0
C      1  0.4936820000000  0.5454500000000  0.4190920000000 1.0
C      1  0.4896730000000  0.4251140000000  0.5258490000000 1.0
C      1  0.5088880000000  0.4000240000000  0.5607390000000 1.0
C      1  0.4169830000000  0.5004280000000  0.4828420000000 1.0
C      1  0.4428450000000  0.4261780000000  0.4353850000000 1.0
C      1  0.5257610000000  0.4981130000000  0.5446630000000 1.0
C      1  0.4017100000000  0.4547050000000  0.5032770000000 1.0
C      1  0.4770100000000  0.5006180000000  0.4078230000000 1.0
C      1  0.4369110000000  0.4180190000000  0.5230300000000 1.0
C      1  0.5654340000000  0.4294440000000  0.4463550000000 1.0
C      1  0.4779620000000  0.4541800000000  0.4140530000000 1.0
C      1  0.5569330000000  0.5080100000000  0.6025450000000 1.0
C      1  0.5200800000000  0.4249050000000  0.5675910000000 1.0
C      1  0.4374550000000  0.5820560000000  0.5247390000000 1.0
C      1  0.5736250000000  0.5232750000000  0.4227470000000 1.0
C      1  0.4987270000000  0.4672120000000  0.4370570000000 1.0
C      1  0.5843140000000  0.5468750000000  0.5392520000000 1.0
C      1  0.5163890000000  0.4798860000000  0.3952960000000 1.0
C      1  0.4586540000000  0.4855240000000  0.5318130000000 1.0
C      1  0.4294860000000  0.4700220000000  0.4683220000000 1.0
C      1  0.4789290000000  0.4704680000000  0.4872870000000 1.0
C      1  0.5501170000000  0.4999140000000  0.4261030000000 1.0
C      1  0.5376530000000  0.5402130000000  0.4187160000000 1.0
C      1  0.5415170000000  0.4148200000000  0.4449920000000 1.0
C      1  0.5255470000000  0.5882720000000  0.5280360000000 1.0
C      1  0.4186090000000  0.4987530000000  0.5610240000000 1.0
C      1  0.4852750000000  0.5474730000000  0.4718700000000 1.0
C      1  0.4561550000000  0.5583380000000  0.5633310000000 1.0
C      1  0.5233610000000  0.4830520000000  0.5877920000000 1.0
C      1  0.4799820000000  0.5999980000000  0.5057390000000 1.0
C      1  0.5361010000000  0.5799610000000  0.5011740000000 1.0
C      1  0.5718160000000  0.5479680000000  0.4626400000000 1.0
C      1  0.5078230000000  0.5799750000000  0.4290200000000 1.0
C      1  0.4626620000000  0.4932620000000  0.4402870000000 1.0
C      1  0.5017920000000  0.5124950000000  0.5003180000000 1.0
C      1  0.5723550000000  0.4239920000000  0.5133610000000 1.0
C      1  0.4460070000000  0.5331740000000  0.5050840000000 1.0
C      1  0.5003800000000  0.5418110000000  0.5007580000000 1.0
C      1  0.5064380000000  0.4421740000000  0.5848600000000 1.0
C      1  0.5492630000000  0.4638810000000  0.4897910000000 1.0
C      1  0.5170850000000  0.6148840000000  0.5317830000000 1.0
C      1  0.5049750000000  0.5031460000000  0.4497550000000 1.0
C      1  0.4580930000000  0.4413650000000  0.5594830000000 1.0
C      1  0.4065560000000  0.5014350000000  0.5127660000000 1.0
C      1  0.5331270000000  0.5459870000000  0.5540010000000 1.0
C      1  0.5269810000000  0.4728230000000  0.5590520000000 1.0
C      1  0.4181680000000  0.4335640000000  0.5422840000000 1.0
C      1  0.4058190000000  0.5637730000000  0.4934110000000 1.0
C      1  0.5141070000000  0.4330050000000  0.4813880000000 1.0
C      1  0.5008810000000  0.5346850000000  0.4471980000000 1.0
C      1  0.5832150000000  0.4630940000000  0.5544800000000 1.0
C      1  0.5117560000000  0.4937010000000  0.5197460000000 1.0
C      1  0.4959360000000  0.5215660000000  0.4017990000000 1.0
C      1  0.4451720000000  0.5419780000000  0.4341560000000 1.0
C      1  0.4301010000000  0.4551160000000  0.4945890000000 1.0
C      1  0.5638930000000  0.5535610000000  0.4176550000000 1.0
C      1  0.5057630000000  0.4649950000000  0.5139480000000 1.0
C      1  0.5630900000000  0.5707620000000  0.4425950000000 1.0
C      1  0.4882670000000  0.4282130000000  0.4957560000000 1.0
C      1  0.4344520000000  0.4955150000000  0.4318890000000 1.0
C      1  0.5863430000000  0.4720430000000  0.4670200000000 1.0
C      1  0.4288000000000  0.5212490000000  0.4206750000000 1.0
C      1  0.5975440000000  0.4664630000000  0.5033890000000 1.0
C      1  0.4618610000000  0.4663280000000  0.4586850000000 1.0
C      1  0.5560270000000  0.5360150000000  0.5355260000000 1.0
C      1  0.5280080000000  0.5447950000000  0.4471890000000 1.0
C      1  0.4030370000000  0.5341750000000  0.4458820000000 1.0
C      1  0.5756120000000  0.5908940000000  0.5267680000000 1.0
C      1  0.4623640000000  0.4216390000000  0.5382320000000 1.0
C      1  0.5179490000000  0.5197470000000  0.5638450000000 1.0
C      1  0.5160130000000  0.3618430000000  0.4886840000000 1.0
END
