TITL C-950534-5965-740 -5.44848320909778e-06 125000 -1263.31816554624 0 0 200 (C1) n - 1
REM
REM in /home/bkarasulu/work/CARBON/AIRSS/Generating-Clusters/EDIP-Nigel-Params/with-SteepDescent/Only-C1/SD-CG/HFTN-CG
REM
REM
REM
REM
REM
REM ./C.cell (11c1c37f851c82e70ff6c80c92926a4b)
REM
REM compiler GCC version 9.2.1 20190827 (Red Hat 9.2.1-1)
REM options -cpp -mtune=generic -march=x86-64 -g -O0 -fpre-include=/usr/include/finclude/math-vector-fortran.h
REM seed -1104025955 1319313438 -1936470500 1592202032 817194423 1687642399 -1922245995 465673582 1489882068 -1214753911 -1107017889 -834811716 865022760 409886555 878205778 453655208 -2016949641 419216265 716833836 1289056436 1272601542 -1755452061 2143203896 -1509012644 863442177 -808501252 129890055 1818246119 -1252374262 -2064760798 60101580 -2040404885 1574498163
REM
CELL 1.54180   50.00000   50.00000   50.00000   90.00000   90.00000   90.00000
LATT -1
SFAC C  
C      1  0.5141840000000  0.3879010000000  0.4804310000000 1.0
C      1  0.4943160000000  0.4811630000000  0.6137740000000 1.0
C      1  0.4449400000000  0.4846940000000  0.5972930000000 1.0
C      1  0.5591360000000  0.5874810000000  0.5171690000000 1.0
C      1  0.5397920000000  0.4699980000000  0.3989940000000 1.0
C      1  0.4982820000000  0.5666550000000  0.5759150000000 1.0
C      1  0.3885520000000  0.5137560000000  0.4856030000000 1.0
C      1  0.4658710000000  0.4116280000000  0.5802910000000 1.0
C      1  0.5098490000000  0.5162320000000  0.4341440000000 1.0
C      1  0.5026000000000  0.6253630000000  0.5259440000000 1.0
C      1  0.5778530000000  0.4967880000000  0.4163390000000 1.0
C      1  0.4559000000000  0.4574000000000  0.5022440000000 1.0
C      1  0.4974010000000  0.4727780000000  0.5843880000000 1.0
C      1  0.5978080000000  0.4917680000000  0.4658430000000 1.0
C      1  0.6072680000000  0.5063180000000  0.5208680000000 1.0
C      1  0.4799120000000  0.5155180000000  0.5626370000000 1.0
C      1  0.5021260000000  0.5261870000000  0.6053410000000 1.0
C      1  0.4739530000000  0.4243840000000  0.4655760000000 1.0
C      1  0.5530770000000  0.4089070000000  0.4594210000000 1.0
C      1  0.4687700000000  0.6017560000000  0.4488770000000 1.0
C      1  0.4079230000000  0.4792140000000  0.5665170000000 1.0
C      1  0.4567300000000  0.4004170000000  0.5238430000000 1.0
C      1  0.4966220000000  0.5524210000000  0.3952800000000 1.0
C      1  0.4851070000000  0.4644060000000  0.5091820000000 1.0
C      1  0.5320030000000  0.4854570000000  0.4998540000000 1.0
C      1  0.5578820000000  0.4934510000000  0.5425860000000 1.0
C      1  0.4972350000000  0.5023650000000  0.3793980000000 1.0
C      1  0.5122900000000  0.4872300000000  0.5422850000000 1.0
C      1  0.5469550000000  0.6104610000000  0.5017840000000 1.0
C      1  0.4195310000000  0.5732100000000  0.5209500000000 1.0
C      1  0.4212990000000  0.4935240000000  0.4573530000000 1.0
C      1  0.5362330000000  0.5311390000000  0.5190560000000 1.0
C      1  0.4920820000000  0.6005260000000  0.5365070000000 1.0
C      1  0.4519570000000  0.5537420000000  0.5121990000000 1.0
C      1  0.4616320000000  0.5972140000000  0.5394710000000 1.0
C      1  0.6253760000000  0.4390750000000  0.5122480000000 1.0
C      1  0.5569290000000  0.5233210000000  0.6006640000000 1.0
C      1  0.5696840000000  0.4514980000000  0.4363890000000 1.0
C      1  0.5435190000000  0.4976690000000  0.6099140000000 1.0
C      1  0.4933120000000  0.5000980000000  0.4762100000000 1.0
C      1  0.6147730000000  0.5219700000000  0.4990130000000 1.0
C      1  0.4513710000000  0.4969460000000  0.4624720000000 1.0
C      1  0.5562680000000  0.5674220000000  0.4952450000000 1.0
C      1  0.5933930000000  0.4212240000000  0.4836550000000 1.0
C      1  0.4994430000000  0.5763240000000  0.5064450000000 1.0
C      1  0.4922720000000  0.5560580000000  0.4500980000000 1.0
C      1  0.4410960000000  0.4560380000000  0.5966440000000 1.0
C      1  0.4326930000000  0.4086370000000  0.5075050000000 1.0
C      1  0.5635790000000  0.5216930000000  0.4185630000000 1.0
C      1  0.5633520000000  0.4115650000000  0.5350580000000 1.0
C      1  0.5245270000000  0.4983810000000  0.3948260000000 1.0
C      1  0.5725890000000  0.4693840000000  0.5308620000000 1.0
C      1  0.4392620000000  0.4475790000000  0.4252050000000 1.0
C      1  0.5482570000000  0.5731860000000  0.5441610000000 1.0
C      1  0.6209690000000  0.4609860000000  0.5288560000000 1.0
C      1  0.4281900000000  0.4982470000000  0.5776750000000 1.0
C      1  0.4699380000000  0.5626860000000  0.5779400000000 1.0
C      1  0.5243720000000  0.4603880000000  0.5495540000000 1.0
C      1  0.4766630000000  0.3841650000000  0.5093790000000 1.0
C      1  0.5485260000000  0.4671870000000  0.5862970000000 1.0
C      1  0.4584750000000  0.5184470000000  0.4420640000000 1.0
C      1  0.4709630000000  0.4742210000000  0.4573090000000 1.0
C      1  0.5029410000000  0.3814700000000  0.5230500000000 1.0
C      1  0.5168150000000  0.5937470000000  0.4328470000000 1.0
C      1  0.3943410000000  0.4356810000000  0.4899190000000 1.0
C      1  0.4742030000000  0.4548000000000  0.5586580000000 1.0
C      1  0.4395950000000  0.5080380000000  0.4187710000000 1.0
C      1  0.4852040000000  0.3913510000000  0.4824290000000 1.0
C      1  0.5358260000000  0.5928600000000  0.5617910000000 1.0
C      1  0.3797220000000  0.4811570000000  0.5220750000000 1.0
C      1  0.4180230000000  0.4527060000000  0.5780550000000 1.0
C      1  0.5431870000000  0.5477330000000  0.5916970000000 1.0
C      1  0.5978700000000  0.4699280000000  0.4881200000000 1.0
C      1  0.4618850000000  0.5337390000000  0.5813430000000 1.0
C      1  0.5320220000000  0.4228240000000  0.4190550000000 1.0
C      1  0.5071920000000  0.5907000000000  0.5617130000000 1.0
C      1  0.4773160000000  0.5701570000000  0.4096680000000 1.0
C      1  0.4511850000000  0.5291660000000  0.3994650000000 1.0
C      1  0.5261450000000  0.3916330000000  0.5066780000000 1.0
C      1  0.5100030000000  0.4085350000000  0.4340050000000 1.0
C      1  0.4062200000000  0.5584850000000  0.4714570000000 1.0
C      1  0.4258690000000  0.5345710000000  0.4733950000000 1.0
C      1  0.5672860000000  0.4697860000000  0.4110210000000 1.0
C      1  0.4812530000000  0.5260550000000  0.3923190000000 1.0
C      1  0.4409590000000  0.4823440000000  0.5062640000000 1.0
C      1  0.4775230000000  0.4739750000000  0.4266970000000 1.0
C      1  0.5012180000000  0.5579900000000  0.5327120000000 1.0
C      1  0.5606460000000  0.5663850000000  0.5761540000000 1.0
C      1  0.4487050000000  0.6038110000000  0.4909770000000 1.0
C      1  0.6001870000000  0.4777930000000  0.5172750000000 1.0
C      1  0.5773300000000  0.5445490000000  0.4326250000000 1.0
C      1  0.4132100000000  0.5655260000000  0.5480510000000 1.0
C      1  0.5813070000000  0.5474990000000  0.5281950000000 1.0
C      1  0.5700830000000  0.4360900000000  0.5489000000000 1.0
C      1  0.4740380000000  0.4056170000000  0.5510200000000 1.0
C      1  0.4273170000000  0.4379900000000  0.5541590000000 1.0
C      1  0.5616080000000  0.5415950000000  0.5091040000000 1.0
C      1  0.5994980000000  0.5442850000000  0.5491450000000 1.0
C      1  0.5973290000000  0.4718070000000  0.5722050000000 1.0
C      1  0.5048220000000  0.4758960000000  0.4888810000000 1.0
C      1  0.5836150000000  0.5224530000000  0.5884280000000 1.0
C      1  0.3918040000000  0.5264010000000  0.4567430000000 1.0
C      1  0.5607640000000  0.5212110000000  0.4697930000000 1.0
C      1  0.4908980000000  0.4153890000000  0.5960270000000 1.0
C      1  0.5220580000000  0.5560500000000  0.4575170000000 1.0
C      1  0.4228820000000  0.5785090000000  0.4539480000000 1.0
C      1  0.5731200000000  0.4544980000000  0.5725350000000 1.0
C      1  0.4706880000000  0.5718340000000  0.4947890000000 1.0
C      1  0.5347060000000  0.5006150000000  0.5258240000000 1.0
C      1  0.5829420000000  0.5399710000000  0.4628210000000 1.0
C      1  0.4465250000000  0.5921720000000  0.4648150000000 1.0
C      1  0.4309360000000  0.4018050000000  0.4805550000000 1.0
C      1  0.4377880000000  0.5285140000000  0.5010190000000 1.0
C      1  0.3981560000000  0.4695230000000  0.5397000000000 1.0
C      1  0.4876130000000  0.5292290000000  0.5268550000000 1.0
C      1  0.5448800000000  0.4946360000000  0.5713140000000 1.0
C      1  0.4120540000000  0.4291870000000  0.5108160000000 1.0
C      1  0.5317640000000  0.5298140000000  0.4704730000000 1.0
C      1  0.5080590000000  0.4921560000000  0.4205500000000 1.0
C      1  0.5170820000000  0.6161070000000  0.5035510000000 1.0
C      1  0.5870620000000  0.5494380000000  0.5756160000000 1.0
C      1  0.4732900000000  0.5239480000000  0.6067710000000 1.0
C      1  0.4817770000000  0.6197970000000  0.4657250000000 1.0
C      1  0.5150930000000  0.5028060000000  0.6173730000000 1.0
C      1  0.4481680000000  0.5428000000000  0.4557670000000 1.0
C      1  0.4646090000000  0.5475710000000  0.5375730000000 1.0
C      1  0.4325660000000  0.5271030000000  0.5743260000000 1.0
C      1  0.5192140000000  0.5341550000000  0.4961820000000 1.0
C      1  0.4366300000000  0.4897510000000  0.5351020000000 1.0
C      1  0.5545460000000  0.4008390000000  0.5096410000000 1.0
C      1  0.5287910000000  0.5507120000000  0.5390960000000 1.0
C      1  0.4311460000000  0.4454380000000  0.4541540000000 1.0
C      1  0.4593340000000  0.4272520000000  0.4167530000000 1.0
C      1  0.5075380000000  0.4993960000000  0.5705000000000 1.0
C      1  0.5794120000000  0.5668160000000  0.4769130000000 1.0
C      1  0.4057530000000  0.4414370000000  0.5359280000000 1.0
C      1  0.5525740000000  0.4449230000000  0.5097650000000 1.0
C      1  0.4999200000000  0.3892810000000  0.5509460000000 1.0
C      1  0.5250380000000  0.4676900000000  0.4454040000000 1.0
C      1  0.4591750000000  0.4654660000000  0.3847230000000 1.0
C      1  0.3941390000000  0.5318900000000  0.5085640000000 1.0
C      1  0.5541800000000  0.4682270000000  0.4924350000000 1.0
C      1  0.4411750000000  0.5958810000000  0.5174660000000 1.0
C      1  0.6176230000000  0.4603010000000  0.5563180000000 1.0
C      1  0.4738100000000  0.5502610000000  0.4734880000000 1.0
C      1  0.4856770000000  0.5318450000000  0.4310040000000 1.0
C      1  0.5306310000000  0.4400950000000  0.5290710000000 1.0
C      1  0.4997620000000  0.4283880000000  0.4823540000000 1.0
C      1  0.4660990000000  0.4430180000000  0.5856120000000 1.0
C      1  0.5237940000000  0.5492510000000  0.4080290000000 1.0
C      1  0.5249820000000  0.6018610000000  0.4617840000000 1.0
C      1  0.6053280000000  0.5202630000000  0.4727260000000 1.0
C      1  0.5925850000000  0.5015140000000  0.5688610000000 1.0
C      1  0.4968090000000  0.4371750000000  0.5142720000000 1.0
C      1  0.4481170000000  0.4558740000000  0.5404810000000 1.0
C      1  0.4542270000000  0.5777250000000  0.5593760000000 1.0
C      1  0.5701590000000  0.4960810000000  0.4537400000000 1.0
C      1  0.4855450000000  0.4758850000000  0.3784220000000 1.0
C      1  0.5145750000000  0.5496590000000  0.5935200000000 1.0
C      1  0.5253660000000  0.4024840000000  0.4585910000000 1.0
C      1  0.4182910000000  0.5201570000000  0.5255880000000 1.0
C      1  0.4209050000000  0.4191660000000  0.4617890000000 1.0
C      1  0.4501410000000  0.4746110000000  0.4125050000000 1.0
C      1  0.3999900000000  0.5606570000000  0.5009480000000 1.0
C      1  0.4939330000000  0.4527090000000  0.4081280000000 1.0
C      1  0.5249870000000  0.5756460000000  0.4816810000000 1.0
C      1  0.5581650000000  0.4232450000000  0.4341030000000 1.0
C      1  0.4649980000000  0.4364080000000  0.3892940000000 1.0
C      1  0.5090630000000  0.4551220000000  0.4684570000000 1.0
C      1  0.5394400000000  0.5247410000000  0.4022890000000 1.0
C      1  0.5724620000000  0.5871540000000  0.4573700000000 1.0
C      1  0.4904530000000  0.5263940000000  0.4944100000000 1.0
C      1  0.4571390000000  0.4499810000000  0.4704680000000 1.0
C      1  0.4102080000000  0.5111980000000  0.4363180000000 1.0
C      1  0.5237410000000  0.4510620000000  0.4166370000000 1.0
C      1  0.6081710000000  0.5160650000000  0.5483240000000 1.0
C      1  0.4821170000000  0.4221110000000  0.4367160000000 1.0
C      1  0.4299590000000  0.5649700000000  0.4292670000000 1.0
C      1  0.4522070000000  0.5552320000000  0.4135460000000 1.0
C      1  0.4524870000000  0.5041070000000  0.4918900000000 1.0
C      1  0.4865660000000  0.4851110000000  0.5295430000000 1.0
C      1  0.4104220000000  0.4664910000000  0.4576270000000 1.0
C      1  0.5334040000000  0.5681120000000  0.4303270000000 1.0
C      1  0.3916910000000  0.4618070000000  0.4789640000000 1.0
C      1  0.5074350000000  0.6208410000000  0.4759840000000 1.0
C      1  0.5213150000000  0.4538360000000  0.5785790000000 1.0
C      1  0.5166020000000  0.5081800000000  0.4602410000000 1.0
C      1  0.5546470000000  0.4692240000000  0.4573970000000 1.0
C      1  0.3838540000000  0.4855920000000  0.4946950000000 1.0
C      1  0.4880420000000  0.5828360000000  0.4346130000000 1.0
C      1  0.5150930000000  0.4240570000000  0.5820450000000 1.0
C      1  0.4675140000000  0.4957890000000  0.6131250000000 1.0
C      1  0.6105770000000  0.4425900000000  0.4883420000000 1.0
C      1  0.4651530000000  0.4959550000000  0.5451280000000 1.0
C      1  0.5634500000000  0.5713360000000  0.4325360000000 1.0
C      1  0.5673440000000  0.4114110000000  0.4847710000000 1.0
C      1  0.4909240000000  0.4318390000000  0.5455660000000 1.0
C      1  0.4229400000000  0.5388790000000  0.5489090000000 1.0
C      1  0.5196740000000  0.4090300000000  0.5582150000000 1.0
C      1  0.5531990000000  0.6078560000000  0.4697200000000 1.0
END
