TITL C-951337-3020-230 -1.81740976238997e-07 125000 -107.704499800722 0 0 19 (C1) n - 1
REM
REM in /home/bkarasulu/work/CARBON/AIRSS/Generating-Clusters/EDIP-Nigel-Params/with-SteepDescent/Only-C1/SD-CG/HFTN-CG
REM
REM
REM
REM
REM
REM ./C.cell (11c1c37f851c82e70ff6c80c92926a4b)
REM
REM compiler GCC version 9.2.1 20190827 (Red Hat 9.2.1-1)
REM options -cpp -mtune=generic -march=x86-64 -g -O0 -fpre-include=/usr/include/finclude/math-vector-fortran.h
REM seed -146175871 312020378 1385213682 -1541020992 -598911187 -2133047042 2056998691 1133801797 -883839402 1974877105 1156869527 1266626872 -590659600 1692353707 -284804293 -1984156862 -940060688 673870050 -1801818809 -1929235792 1889487043 186658742 725652278 -501703542 -1132262933 -1954522450 -1980274397 -123699368 -697718540 920926109 327991871 -833780930 1114640481
REM
CELL 1.54180   50.00000   50.00000   50.00000   90.00000   90.00000   90.00000
LATT -1
SFAC C  
C      1  0.5300310000000  0.5176730000000  0.5459340000000 1.0
C      1  0.4504700000000  0.5207890000000  0.4975720000000 1.0
C      1  0.5666930000000  0.4944000000000  0.4572280000000 1.0
C      1  0.5024690000000  0.5145210000000  0.5439920000000 1.0
C      1  0.4528910000000  0.5068500000000  0.4433860000000 1.0
C      1  0.4542700000000  0.5175760000000  0.4701960000000 1.0
C      1  0.4644990000000  0.5152590000000  0.5205310000000 1.0
C      1  0.5117140000000  0.4622480000000  0.5070420000000 1.0
C      1  0.4703040000000  0.4935020000000  0.4618400000000 1.0
C      1  0.5531100000000  0.4984680000000  0.4785310000000 1.0
C      1  0.5083160000000  0.4907180000000  0.4995520000000 1.0
C      1  0.4835210000000  0.5284770000000  0.5592070000000 1.0
C      1  0.5195270000000  0.4439300000000  0.4880260000000 1.0
C      1  0.5049870000000  0.4579050000000  0.4692200000000 1.0
C      1  0.4964470000000  0.4852740000000  0.4722860000000 1.0
C      1  0.4916560000000  0.5067620000000  0.5188810000000 1.0
C      1  0.5436710000000  0.5135990000000  0.5230580000000 1.0
C      1  0.5352650000000  0.5034740000000  0.4987220000000 1.0
C      1  0.4601600000000  0.5285740000000  0.5447940000000 1.0
END
