TITL C-950523-3027-565 -7.88866060625158e-07 125000 -272.566481794111 0 0 45 (C1) n - 1
REM
REM in /home/bkarasulu/work/CARBON/AIRSS/Generating-Clusters/EDIP-Nigel-Params/with-SteepDescent/Only-C1/SD-CG/HFTN-CG
REM
REM
REM
REM
REM
REM ./C.cell (11c1c37f851c82e70ff6c80c92926a4b)
REM
REM compiler GCC version 9.2.1 20190827 (Red Hat 9.2.1-1)
REM options -cpp -mtune=generic -march=x86-64 -g -O0 -fpre-include=/usr/include/finclude/math-vector-fortran.h
REM seed -3107055 1592227723 -1704317185 974124912 762783 -1406394494 354928415 -1084609759 -854698564 1970383101 1064630357 1602631079 -96147953 36503584 1267292662 1486748323 1872215369 1355270119 99843705 -222446590 1157583865 105290625 2016207216 -1844980740 -1144070061 888943950 565134310 -636494333 -146779668 1310798349 -1646216035 -47298503 1618798847
REM
CELL 1.54180   50.00000   50.00000   50.00000   90.00000   90.00000   90.00000
LATT -1
SFAC C  
C      1  0.4759480000000  0.4724680000000  0.4536410000000 1.0
C      1  0.4558990000000  0.4477070000000  0.5242610000000 1.0
C      1  0.5319740000000  0.4534330000000  0.5129840000000 1.0
C      1  0.5069730000000  0.4855430000000  0.4849380000000 1.0
C      1  0.4500720000000  0.4920210000000  0.5428550000000 1.0
C      1  0.4763900000000  0.4809460000000  0.5509950000000 1.0
C      1  0.4580730000000  0.4920070000000  0.4975570000000 1.0
C      1  0.5558410000000  0.4947520000000  0.5251560000000 1.0
C      1  0.4448330000000  0.5185920000000  0.5043730000000 1.0
C      1  0.5480820000000  0.4923840000000  0.4691260000000 1.0
C      1  0.5152390000000  0.5730450000000  0.5093340000000 1.0
C      1  0.4460740000000  0.4736660000000  0.5192240000000 1.0
C      1  0.5342250000000  0.5399670000000  0.4796450000000 1.0
C      1  0.4732010000000  0.5255160000000  0.4384830000000 1.0
C      1  0.5303260000000  0.4785640000000  0.4481880000000 1.0
C      1  0.5518980000000  0.5200700000000  0.4716830000000 1.0
C      1  0.5487970000000  0.5423570000000  0.5259290000000 1.0
C      1  0.5605060000000  0.4477340000000  0.4693270000000 1.0
C      1  0.4641700000000  0.5651440000000  0.5037380000000 1.0
C      1  0.5654210000000  0.4724600000000  0.4829560000000 1.0
C      1  0.4638150000000  0.5583460000000  0.5319160000000 1.0
C      1  0.5025920000000  0.4425420000000  0.5366710000000 1.0
C      1  0.5019100000000  0.4898660000000  0.4558510000000 1.0
C      1  0.5424360000000  0.5169040000000  0.5355840000000 1.0
C      1  0.5056950000000  0.5385590000000  0.4720980000000 1.0
C      1  0.4501000000000  0.5218850000000  0.5339030000000 1.0
C      1  0.5001410000000  0.5340870000000  0.5561100000000 1.0
C      1  0.4759880000000  0.4517530000000  0.5436780000000 1.0
C      1  0.4886580000000  0.4983160000000  0.5039790000000 1.0
C      1  0.4933800000000  0.4383060000000  0.4851090000000 1.0
C      1  0.4544400000000  0.4879660000000  0.4668940000000 1.0
C      1  0.5172210000000  0.4662870000000  0.5353630000000 1.0
C      1  0.5161390000000  0.4564780000000  0.4863930000000 1.0
C      1  0.5334170000000  0.4512680000000  0.4612140000000 1.0
C      1  0.5369550000000  0.5556270000000  0.5043300000000 1.0
C      1  0.4545290000000  0.5126770000000  0.4534280000000 1.0
C      1  0.5154550000000  0.5128460000000  0.5460330000000 1.0
C      1  0.4779310000000  0.4468320000000  0.4646540000000 1.0
C      1  0.5577930000000  0.4701930000000  0.5116050000000 1.0
C      1  0.4887800000000  0.5292780000000  0.4967250000000 1.0
C      1  0.4982060000000  0.5195520000000  0.4495700000000 1.0
C      1  0.4930710000000  0.5682050000000  0.4919620000000 1.0
C      1  0.4601300000000  0.5385800000000  0.4893130000000 1.0
C      1  0.4776190000000  0.5347450000000  0.5392030000000 1.0
C      1  0.4996590000000  0.4905250000000  0.5340230000000 1.0
END
