TITL C-950526-5686-25 -2.76841615794389e-06 125000 -731.166956376472 0 0 120 (C1) n - 1
REM
REM in /home/bkarasulu/work/CARBON/AIRSS/Generating-Clusters/EDIP-Nigel-Params/with-SteepDescent/Only-C1/SD-CG/HFTN-CG
REM
REM
REM
REM
REM
REM ./C.cell (11c1c37f851c82e70ff6c80c92926a4b)
REM
REM compiler GCC version 9.2.1 20190827 (Red Hat 9.2.1-1)
REM options -cpp -mtune=generic -march=x86-64 -g -O0 -fpre-include=/usr/include/finclude/math-vector-fortran.h
REM seed -503729484 1449054743 697453074 1159825868 962153002 358163421 1144092288 1826980059 814955447 1123264981 1126318159 320758147 1554319497 1769359803 -142720682 1126538862 -769278494 -1711805539 956102607 407826053 -944789241 383740244 1902125840 1004522499 163872544 -1507624099 -1642205106 1450873217 -1519407620 1298720705 -2091397896 439557502 -1628170232
REM
CELL 1.54180   50.00000   50.00000   50.00000   90.00000   90.00000   90.00000
LATT -1
SFAC C  
C      1  0.5032160000000  0.4766560000000  0.5071340000000 1.0
C      1  0.4211010000000  0.4990270000000  0.4484980000000 1.0
C      1  0.4796460000000  0.4889030000000  0.5508590000000 1.0
C      1  0.4830820000000  0.4275300000000  0.4520840000000 1.0
C      1  0.5355820000000  0.5416330000000  0.4323610000000 1.0
C      1  0.5676470000000  0.5543170000000  0.5618630000000 1.0
C      1  0.5652060000000  0.5032440000000  0.4414830000000 1.0
C      1  0.4202180000000  0.5273700000000  0.4576040000000 1.0
C      1  0.5809610000000  0.4874680000000  0.4813750000000 1.0
C      1  0.4837830000000  0.4450220000000  0.5375650000000 1.0
C      1  0.5086190000000  0.4973630000000  0.4539460000000 1.0
C      1  0.4414820000000  0.5271070000000  0.5659630000000 1.0
C      1  0.4294010000000  0.4444390000000  0.4586980000000 1.0
C      1  0.4345510000000  0.5207150000000  0.5350200000000 1.0
C      1  0.4783680000000  0.5681610000000  0.5039220000000 1.0
C      1  0.5794070000000  0.4624070000000  0.4645600000000 1.0
C      1  0.5023730000000  0.5298220000000  0.4831870000000 1.0
C      1  0.4763460000000  0.5026460000000  0.5780060000000 1.0
C      1  0.5445730000000  0.5138990000000  0.5000430000000 1.0
C      1  0.4550900000000  0.4856190000000  0.5900280000000 1.0
C      1  0.5692070000000  0.4278490000000  0.5029930000000 1.0
C      1  0.5224980000000  0.4977990000000  0.4048390000000 1.0
C      1  0.5551730000000  0.4442190000000  0.5242840000000 1.0
C      1  0.4149350000000  0.5259090000000  0.4876410000000 1.0
C      1  0.4694930000000  0.4117700000000  0.4736460000000 1.0
C      1  0.5477360000000  0.5637030000000  0.4490590000000 1.0
C      1  0.4170930000000  0.4951750000000  0.4925000000000 1.0
C      1  0.4638260000000  0.4653370000000  0.5475340000000 1.0
C      1  0.5246920000000  0.4772170000000  0.4817640000000 1.0
C      1  0.4507990000000  0.4640540000000  0.4653640000000 1.0
C      1  0.5487230000000  0.4639450000000  0.5696760000000 1.0
C      1  0.5320790000000  0.4480750000000  0.4769070000000 1.0
C      1  0.5369630000000  0.5235420000000  0.5262590000000 1.0
C      1  0.5378080000000  0.5640690000000  0.4773370000000 1.0
C      1  0.4371780000000  0.5858140000000  0.4822640000000 1.0
C      1  0.4716790000000  0.4244580000000  0.5016080000000 1.0
C      1  0.4701550000000  0.5430870000000  0.5439210000000 1.0
C      1  0.5397870000000  0.5560750000000  0.5655620000000 1.0
C      1  0.4845040000000  0.4444140000000  0.5820250000000 1.0
C      1  0.4696380000000  0.5455500000000  0.5742500000000 1.0
C      1  0.4072480000000  0.4812700000000  0.5169520000000 1.0
C      1  0.5159530000000  0.4616460000000  0.5673290000000 1.0
C      1  0.4134380000000  0.4536390000000  0.5165600000000 1.0
C      1  0.4319820000000  0.4212080000000  0.4435590000000 1.0
C      1  0.4159500000000  0.4970680000000  0.5396740000000 1.0
C      1  0.5127330000000  0.4884440000000  0.5796340000000 1.0
C      1  0.4818280000000  0.4567720000000  0.4950750000000 1.0
C      1  0.5409920000000  0.5858630000000  0.5225210000000 1.0
C      1  0.5271690000000  0.4363960000000  0.5246050000000 1.0
C      1  0.4622200000000  0.5990460000000  0.4921250000000 1.0
C      1  0.5357750000000  0.3898740000000  0.5090430000000 1.0
C      1  0.5096510000000  0.4220960000000  0.4448720000000 1.0
C      1  0.4471090000000  0.4898880000000  0.4945270000000 1.0
C      1  0.5329700000000  0.5888450000000  0.4934390000000 1.0
C      1  0.5597200000000  0.4017020000000  0.5052580000000 1.0
C      1  0.4580960000000  0.5104860000000  0.5145690000000 1.0
C      1  0.5802080000000  0.5567340000000  0.5371690000000 1.0
C      1  0.5890040000000  0.5337390000000  0.5205040000000 1.0
C      1  0.4790840000000  0.4025240000000  0.5485840000000 1.0
C      1  0.4063220000000  0.4831150000000  0.4674780000000 1.0
C      1  0.4900150000000  0.4264120000000  0.5595380000000 1.0
C      1  0.5624530000000  0.4394140000000  0.4755040000000 1.0
C      1  0.4959690000000  0.5791840000000  0.5517290000000 1.0
C      1  0.4411980000000  0.5456860000000  0.4450140000000 1.0
C      1  0.5028040000000  0.5105180000000  0.4224350000000 1.0
C      1  0.5233950000000  0.5680670000000  0.5423860000000 1.0
C      1  0.5557770000000  0.4731410000000  0.5189480000000 1.0
C      1  0.5073330000000  0.5425650000000  0.4245300000000 1.0
C      1  0.5749530000000  0.5581250000000  0.4536830000000 1.0
C      1  0.4854400000000  0.5025570000000  0.5259930000000 1.0
C      1  0.5655070000000  0.4736860000000  0.4399480000000 1.0
C      1  0.4591800000000  0.5473430000000  0.4896960000000 1.0
C      1  0.4558910000000  0.4646760000000  0.5093080000000 1.0
C      1  0.5238620000000  0.4702200000000  0.4107630000000 1.0
C      1  0.4217860000000  0.5719370000000  0.5017540000000 1.0
C      1  0.4994280000000  0.4566050000000  0.4107720000000 1.0
C      1  0.4744000000000  0.5215930000000  0.4810260000000 1.0
C      1  0.5065260000000  0.5543660000000  0.4987840000000 1.0
C      1  0.5382930000000  0.5161900000000  0.4478560000000 1.0
C      1  0.4590870000000  0.4587150000000  0.5767380000000 1.0
C      1  0.4316780000000  0.5445340000000  0.5039800000000 1.0
C      1  0.4376640000000  0.4416040000000  0.5090520000000 1.0
C      1  0.5682880000000  0.5784630000000  0.5241920000000 1.0
C      1  0.5659400000000  0.4464850000000  0.5525650000000 1.0
C      1  0.5300000000000  0.5311820000000  0.5743520000000 1.0
C      1  0.5931170000000  0.5040480000000  0.5256680000000 1.0
C      1  0.5748580000000  0.4820950000000  0.5399430000000 1.0
C      1  0.4861170000000  0.5689200000000  0.5764980000000 1.0
C      1  0.5390260000000  0.5131060000000  0.5541890000000 1.0
C      1  0.4834580000000  0.4715620000000  0.4287850000000 1.0
C      1  0.4415470000000  0.4090820000000  0.4666150000000 1.0
C      1  0.4525230000000  0.5646280000000  0.4653240000000 1.0
C      1  0.4786390000000  0.4566250000000  0.4559620000000 1.0
C      1  0.5865290000000  0.5381710000000  0.4697190000000 1.0
C      1  0.6011350000000  0.4900040000000  0.5023740000000 1.0
C      1  0.4617470000000  0.5187640000000  0.4083510000000 1.0
C      1  0.4653220000000  0.5312390000000  0.4333330000000 1.0
C      1  0.5314290000000  0.5256640000000  0.4770070000000 1.0
C      1  0.5159220000000  0.5440250000000  0.5255620000000 1.0
C      1  0.4883720000000  0.4043670000000  0.5211300000000 1.0
C      1  0.4129180000000  0.4873350000000  0.5658410000000 1.0
C      1  0.5523170000000  0.4873550000000  0.4941770000000 1.0
C      1  0.4846870000000  0.5991710000000  0.4734930000000 1.0
C      1  0.4785560000000  0.5761470000000  0.4563880000000 1.0
C      1  0.4320490000000  0.5018520000000  0.5807380000000 1.0
C      1  0.5100260000000  0.4582160000000  0.5335200000000 1.0
C      1  0.5585640000000  0.4925780000000  0.5629110000000 1.0
C      1  0.4934960000000  0.5647600000000  0.4354740000000 1.0
C      1  0.4488420000000  0.4892810000000  0.4505090000000 1.0
C      1  0.5095060000000  0.6022290000000  0.4859160000000 1.0
C      1  0.4700450000000  0.4924130000000  0.4119980000000 1.0
C      1  0.5180770000000  0.4090640000000  0.5196410000000 1.0
C      1  0.4966120000000  0.4997210000000  0.5986780000000 1.0
C      1  0.5342290000000  0.4367760000000  0.4488400000000 1.0
C      1  0.5838830000000  0.5103370000000  0.4621640000000 1.0
C      1  0.4939960000000  0.5283890000000  0.5368120000000 1.0
C      1  0.5972570000000  0.5421940000000  0.4951030000000 1.0
C      1  0.5399650000000  0.4613780000000  0.4329120000000 1.0
C      1  0.4724260000000  0.5090780000000  0.4532880000000 1.0
C      1  0.4738730000000  0.5703970000000  0.5334800000000 1.0
END
