TITL C-950533-5798-347 -1.45606528366493e-06 125000 -917.184102473441 0 0 147 (C1) n - 1
REM
REM in /home/bkarasulu/work/CARBON/AIRSS/Generating-Clusters/EDIP-Nigel-Params/with-SteepDescent/Only-C1/SD-CG/HFTN-CG
REM
REM
REM
REM
REM
REM ./C.cell (11c1c37f851c82e70ff6c80c92926a4b)
REM
REM compiler GCC version 9.2.1 20190827 (Red Hat 9.2.1-1)
REM options -cpp -mtune=generic -march=x86-64 -g -O0 -fpre-include=/usr/include/finclude/math-vector-fortran.h
REM seed -1192751798 1741523566 -608821796 1589697631 -1614371444 3736559 -1866200345 43860421 -580405304 -1136265665 595743120 1697184523 987857876 1813412761 890329133 -1864439533 1050343564 -447869407 796055828 1480262207 -1155436075 -1256644211 1886291517 -661229820 -1488523034 1583372526 4605452 -437389255 -236120987 2133782713 614003688 1500197276 136253864
REM
CELL 1.54180   50.00000   50.00000   50.00000   90.00000   90.00000   90.00000
LATT -1
SFAC C  
C      1  0.5001250000000  0.5133270000000  0.5028800000000 1.0
C      1  0.4996130000000  0.5506590000000  0.5520130000000 1.0
C      1  0.4032140000000  0.4623070000000  0.4643210000000 1.0
C      1  0.5803550000000  0.4686360000000  0.5345500000000 1.0
C      1  0.4928670000000  0.3994170000000  0.4865640000000 1.0
C      1  0.5385710000000  0.5282440000000  0.5946280000000 1.0
C      1  0.4750240000000  0.4686690000000  0.3974470000000 1.0
C      1  0.4123870000000  0.4707960000000  0.4912260000000 1.0
C      1  0.5726170000000  0.5436770000000  0.5611470000000 1.0
C      1  0.4402050000000  0.4281980000000  0.4708870000000 1.0
C      1  0.4646460000000  0.5603550000000  0.4288710000000 1.0
C      1  0.5213930000000  0.4101720000000  0.5553430000000 1.0
C      1  0.5648410000000  0.4961930000000  0.5692970000000 1.0
C      1  0.5038430000000  0.5082490000000  0.4038210000000 1.0
C      1  0.5090750000000  0.6011950000000  0.5014620000000 1.0
C      1  0.4781360000000  0.4079890000000  0.5339400000000 1.0
C      1  0.4183650000000  0.5389740000000  0.4539770000000 1.0
C      1  0.4784710000000  0.4313350000000  0.5523940000000 1.0
C      1  0.5453850000000  0.5818740000000  0.4667210000000 1.0
C      1  0.4778070000000  0.4980300000000  0.3957450000000 1.0
C      1  0.4559040000000  0.4735980000000  0.5728930000000 1.0
C      1  0.5501030000000  0.5025790000000  0.5925210000000 1.0
C      1  0.3950220000000  0.5121930000000  0.4876260000000 1.0
C      1  0.5780430000000  0.5615380000000  0.5379150000000 1.0
C      1  0.6055180000000  0.5067000000000  0.4647260000000 1.0
C      1  0.4630300000000  0.5842630000000  0.5684450000000 1.0
C      1  0.5117880000000  0.5297070000000  0.6029910000000 1.0
C      1  0.4349980000000  0.4544210000000  0.5333970000000 1.0
C      1  0.4020700000000  0.4971600000000  0.5323550000000 1.0
C      1  0.4597840000000  0.4351850000000  0.4913070000000 1.0
C      1  0.5640470000000  0.4210010000000  0.5240810000000 1.0
C      1  0.4293510000000  0.4845880000000  0.5712030000000 1.0
C      1  0.5396150000000  0.4883710000000  0.4924420000000 1.0
C      1  0.5437400000000  0.4903440000000  0.4294830000000 1.0
C      1  0.4719590000000  0.5671730000000  0.4579440000000 1.0
C      1  0.5077050000000  0.5777870000000  0.4292900000000 1.0
C      1  0.4997820000000  0.5260880000000  0.4749070000000 1.0
C      1  0.5214260000000  0.4979210000000  0.5671880000000 1.0
C      1  0.3923070000000  0.4878980000000  0.5049380000000 1.0
C      1  0.5147410000000  0.4795570000000  0.4777910000000 1.0
C      1  0.5158830000000  0.4097030000000  0.5072980000000 1.0
C      1  0.4204830000000  0.4784010000000  0.5445760000000 1.0
C      1  0.4422540000000  0.4851620000000  0.4901080000000 1.0
C      1  0.4129830000000  0.4281020000000  0.4797730000000 1.0
C      1  0.5071640000000  0.4773490000000  0.5823830000000 1.0
C      1  0.4792930000000  0.4594560000000  0.4508390000000 1.0
C      1  0.4515790000000  0.4564070000000  0.4112220000000 1.0
C      1  0.4981840000000  0.5200520000000  0.5679810000000 1.0
C      1  0.5477780000000  0.4482300000000  0.5676310000000 1.0
C      1  0.5789060000000  0.5141610000000  0.4520500000000 1.0
C      1  0.5009290000000  0.4550400000000  0.4059580000000 1.0
C      1  0.5235010000000  0.4863380000000  0.4080250000000 1.0
C      1  0.4540910000000  0.4168540000000  0.4478220000000 1.0
C      1  0.4188840000000  0.5476950000000  0.5471040000000 1.0
C      1  0.4667070000000  0.4388670000000  0.4310850000000 1.0
C      1  0.4760740000000  0.5013160000000  0.5538400000000 1.0
C      1  0.4709230000000  0.5439560000000  0.5933200000000 1.0
C      1  0.5757840000000  0.5577660000000  0.4882550000000 1.0
C      1  0.4118700000000  0.5266880000000  0.5084070000000 1.0
C      1  0.6088550000000  0.5018820000000  0.5118700000000 1.0
C      1  0.5429030000000  0.4298190000000  0.5450020000000 1.0
C      1  0.4556000000000  0.5155040000000  0.3949550000000 1.0
C      1  0.5261440000000  0.5018560000000  0.5164630000000 1.0
C      1  0.5568250000000  0.4429640000000  0.4374740000000 1.0
C      1  0.5215640000000  0.5670170000000  0.5683390000000 1.0
C      1  0.5472140000000  0.4054430000000  0.5045690000000 1.0
C      1  0.5530410000000  0.4145930000000  0.4788840000000 1.0
C      1  0.5579980000000  0.5647540000000  0.4480730000000 1.0
C      1  0.5538780000000  0.5117710000000  0.4735020000000 1.0
C      1  0.4899560000000  0.4811350000000  0.5371680000000 1.0
C      1  0.4293940000000  0.4814780000000  0.4283000000000 1.0
C      1  0.5229010000000  0.5474250000000  0.4657320000000 1.0
C      1  0.5897490000000  0.4606540000000  0.4846130000000 1.0
C      1  0.4130600000000  0.4435480000000  0.5052930000000 1.0
C      1  0.5871600000000  0.5467110000000  0.5133450000000 1.0
C      1  0.4655870000000  0.4873410000000  0.4613030000000 1.0
C      1  0.5850300000000  0.4685480000000  0.4340000000000 1.0
C      1  0.5282850000000  0.4411500000000  0.4479350000000 1.0
C      1  0.4748210000000  0.5404540000000  0.4711630000000 1.0
C      1  0.4068790000000  0.4850770000000  0.4467870000000 1.0
C      1  0.4983000000000  0.4604330000000  0.4942480000000 1.0
C      1  0.6122660000000  0.5313030000000  0.5066490000000 1.0
C      1  0.5063400000000  0.3973320000000  0.5333020000000 1.0
C      1  0.5193730000000  0.6011220000000  0.5277460000000 1.0
C      1  0.4582460000000  0.5885770000000  0.5004960000000 1.0
C      1  0.5727810000000  0.4943650000000  0.4290930000000 1.0
C      1  0.4619090000000  0.5148180000000  0.5918700000000 1.0
C      1  0.4346230000000  0.5125530000000  0.5767270000000 1.0
C      1  0.5273450000000  0.5343670000000  0.4385910000000 1.0
C      1  0.4535300000000  0.4621770000000  0.5081720000000 1.0
C      1  0.4486810000000  0.5804140000000  0.4733820000000 1.0
C      1  0.5042800000000  0.5318210000000  0.4214120000000 1.0
C      1  0.4819260000000  0.5346700000000  0.5145560000000 1.0
C      1  0.4538500000000  0.5679550000000  0.5216670000000 1.0
C      1  0.4701280000000  0.5641200000000  0.5484720000000 1.0
C      1  0.4523500000000  0.5381350000000  0.4893350000000 1.0
C      1  0.4528670000000  0.5633080000000  0.5831910000000 1.0
C      1  0.6155270000000  0.5324120000000  0.4764120000000 1.0
C      1  0.5191910000000  0.4822510000000  0.5382500000000 1.0
C      1  0.6047130000000  0.4866500000000  0.4864940000000 1.0
C      1  0.4252470000000  0.5650060000000  0.5262540000000 1.0
C      1  0.5064950000000  0.5516310000000  0.5234570000000 1.0
C      1  0.5793070000000  0.5451180000000  0.4448080000000 1.0
C      1  0.5483740000000  0.4588840000000  0.5005140000000 1.0
C      1  0.4817810000000  0.6031240000000  0.5009370000000 1.0
C      1  0.5385390000000  0.4390450000000  0.4775590000000 1.0
C      1  0.4827900000000  0.4453220000000  0.4760580000000 1.0
C      1  0.4117540000000  0.5565870000000  0.5017080000000 1.0
C      1  0.5966190000000  0.5539510000000  0.4669760000000 1.0
C      1  0.4611960000000  0.5221620000000  0.5370380000000 1.0
C      1  0.5880860000000  0.4964440000000  0.5313440000000 1.0
C      1  0.5756250000000  0.4552480000000  0.4584470000000 1.0
C      1  0.4300920000000  0.5560520000000  0.4778220000000 1.0
C      1  0.5617130000000  0.4709250000000  0.5565450000000 1.0
C      1  0.5473310000000  0.5414910000000  0.4851950000000 1.0
C      1  0.4632250000000  0.4753990000000  0.6008580000000 1.0
C      1  0.5337750000000  0.5079770000000  0.4499450000000 1.0
C      1  0.5198900000000  0.4503850000000  0.5810450000000 1.0
C      1  0.4977100000000  0.4987390000000  0.4612610000000 1.0
C      1  0.4301950000000  0.5214090000000  0.5471080000000 1.0
C      1  0.4797040000000  0.4751000000000  0.5116490000000 1.0
C      1  0.4919890000000  0.5579460000000  0.4164070000000 1.0
C      1  0.4700170000000  0.4092050000000  0.5045500000000 1.0
C      1  0.5761850000000  0.4499870000000  0.5112010000000 1.0
C      1  0.5095780000000  0.4169020000000  0.4392790000000 1.0
C      1  0.4544140000000  0.4472730000000  0.5572950000000 1.0
C      1  0.4984170000000  0.5826530000000  0.4555160000000 1.0
C      1  0.4104480000000  0.5106250000000  0.4624590000000 1.0
C      1  0.4877080000000  0.4059720000000  0.4573070000000 1.0
C      1  0.5187010000000  0.5888180000000  0.4760900000000 1.0
C      1  0.4875640000000  0.4881740000000  0.6006860000000 1.0
C      1  0.4316560000000  0.5427160000000  0.4281250000000 1.0
C      1  0.4984340000000  0.5533260000000  0.5960940000000 1.0
C      1  0.5308700000000  0.4528300000000  0.5265290000000 1.0
C      1  0.5102420000000  0.4395270000000  0.5117610000000 1.0
C      1  0.5362790000000  0.5464070000000  0.5164760000000 1.0
C      1  0.5692120000000  0.5162390000000  0.5473350000000 1.0
C      1  0.4410220000000  0.5141010000000  0.5052560000000 1.0
C      1  0.4539860000000  0.5238160000000  0.4226640000000 1.0
C      1  0.5089940000000  0.4643610000000  0.4369930000000 1.0
C      1  0.4479430000000  0.5002730000000  0.4406780000000 1.0
C      1  0.5440000000000  0.5211570000000  0.5297390000000 1.0
C      1  0.4921310000000  0.4279480000000  0.4176970000000 1.0
C      1  0.5023930000000  0.4277680000000  0.5704000000000 1.0
C      1  0.5458510000000  0.5487650000000  0.5755940000000 1.0
C      1  0.5517000000000  0.5708530000000  0.5275080000000 1.0
C      1  0.5346030000000  0.5865410000000  0.5466360000000 1.0
END
