TITL C-950536-5891-534 -6.97945944681124e-06 125000 -908.203474799827 0 0 145 (C1) n - 1
REM
REM in /home/bkarasulu/work/CARBON/AIRSS/Generating-Clusters/EDIP-Nigel-Params/with-SteepDescent/Only-C1/SD-CG/HFTN-CG
REM
REM
REM
REM
REM
REM ./C.cell (11c1c37f851c82e70ff6c80c92926a4b)
REM
REM compiler GCC version 9.2.1 20190827 (Red Hat 9.2.1-1)
REM options -cpp -mtune=generic -march=x86-64 -g -O0 -fpre-include=/usr/include/finclude/math-vector-fortran.h
REM seed 1084773986 -1076725025 1901877969 1690462719 516294716 -213869438 -927695471 -2007408833 1788027074 1323156285 1733886692 -725892209 132240242 1275135749 1892687241 2076503782 1092825101 425155598 506424889 89747741 783695267 1516006654 1921149542 -192668292 1037599498 -453719238 -1898644826 -436622639 790140248 -2132307877 1024538631 1867726845 -2120085796
REM
CELL 1.54180   50.00000   50.00000   50.00000   90.00000   90.00000   90.00000
LATT -1
SFAC C  
C      1  0.5330560000000  0.5484680000000  0.5856360000000 1.0
C      1  0.4983920000000  0.4211880000000  0.5453530000000 1.0
C      1  0.4175060000000  0.5227970000000  0.5265010000000 1.0
C      1  0.4598850000000  0.4384570000000  0.4271180000000 1.0
C      1  0.4266910000000  0.5287760000000  0.4324360000000 1.0
C      1  0.4354830000000  0.4553220000000  0.4273120000000 1.0
C      1  0.4387200000000  0.4272350000000  0.5082550000000 1.0
C      1  0.4700340000000  0.4601150000000  0.4756420000000 1.0
C      1  0.4241760000000  0.4220320000000  0.4626440000000 1.0
C      1  0.3964000000000  0.5060570000000  0.4688280000000 1.0
C      1  0.5255400000000  0.5037540000000  0.5451950000000 1.0
C      1  0.4485680000000  0.4458210000000  0.5537420000000 1.0
C      1  0.5235370000000  0.5722190000000  0.5713060000000 1.0
C      1  0.5075960000000  0.4740130000000  0.5851280000000 1.0
C      1  0.5687510000000  0.5800030000000  0.4939370000000 1.0
C      1  0.4479440000000  0.4859960000000  0.5283820000000 1.0
C      1  0.5126390000000  0.5193540000000  0.4062740000000 1.0
C      1  0.4767390000000  0.4110920000000  0.5287260000000 1.0
C      1  0.4648500000000  0.4675640000000  0.5428650000000 1.0
C      1  0.5637680000000  0.5198390000000  0.4995690000000 1.0
C      1  0.5711540000000  0.5386440000000  0.5210810000000 1.0
C      1  0.5889740000000  0.4413510000000  0.4872750000000 1.0
C      1  0.4382470000000  0.5010260000000  0.5925260000000 1.0
C      1  0.5428990000000  0.5463960000000  0.5300230000000 1.0
C      1  0.4678080000000  0.5303650000000  0.5473090000000 1.0
C      1  0.4027060000000  0.4650130000000  0.5070170000000 1.0
C      1  0.4278150000000  0.5216590000000  0.4931460000000 1.0
C      1  0.3951960000000  0.4854060000000  0.4885670000000 1.0
C      1  0.4050740000000  0.5471640000000  0.5374360000000 1.0
C      1  0.4502530000000  0.4216930000000  0.5346020000000 1.0
C      1  0.4679420000000  0.4435210000000  0.5801030000000 1.0
C      1  0.5342270000000  0.5208980000000  0.4608400000000 1.0
C      1  0.4498690000000  0.4133960000000  0.4736470000000 1.0
C      1  0.4726340000000  0.5434030000000  0.4239920000000 1.0
C      1  0.4131860000000  0.5553980000000  0.4694090000000 1.0
C      1  0.5306180000000  0.5553070000000  0.4293030000000 1.0
C      1  0.4305380000000  0.5216460000000  0.5746950000000 1.0
C      1  0.5170970000000  0.4453650000000  0.5818700000000 1.0
C      1  0.4490590000000  0.4907760000000  0.4174660000000 1.0
C      1  0.4791400000000  0.4158440000000  0.4988290000000 1.0
C      1  0.4540070000000  0.5911490000000  0.4783070000000 1.0
C      1  0.5429850000000  0.4400900000000  0.4282300000000 1.0
C      1  0.5140380000000  0.4102740000000  0.4685780000000 1.0
C      1  0.6059870000000  0.4956210000000  0.4962880000000 1.0
C      1  0.5267060000000  0.4743010000000  0.4864570000000 1.0
C      1  0.5214800000000  0.5526290000000  0.4923800000000 1.0
C      1  0.4982550000000  0.4234780000000  0.4488330000000 1.0
C      1  0.4209690000000  0.4491740000000  0.4529450000000 1.0
C      1  0.4809390000000  0.5116040000000  0.5689710000000 1.0
C      1  0.4309140000000  0.5533710000000  0.4458820000000 1.0
C      1  0.4583780000000  0.5625070000000  0.4407940000000 1.0
C      1  0.5405760000000  0.5120850000000  0.4095670000000 1.0
C      1  0.5802910000000  0.5045440000000  0.4556870000000 1.0
C      1  0.4416650000000  0.4874980000000  0.4473480000000 1.0
C      1  0.4314680000000  0.4575800000000  0.5069010000000 1.0
C      1  0.4934580000000  0.4296410000000  0.5731370000000 1.0
C      1  0.5854080000000  0.5540210000000  0.4556640000000 1.0
C      1  0.5505680000000  0.4469270000000  0.4565910000000 1.0
C      1  0.4616290000000  0.5742400000000  0.5022950000000 1.0
C      1  0.5641970000000  0.4774510000000  0.5566560000000 1.0
C      1  0.4973720000000  0.5966120000000  0.4765190000000 1.0
C      1  0.5024190000000  0.4908380000000  0.5576530000000 1.0
C      1  0.4682450000000  0.5024100000000  0.5115290000000 1.0
C      1  0.4825420000000  0.4521990000000  0.4147510000000 1.0
C      1  0.5434270000000  0.4822460000000  0.4067910000000 1.0
C      1  0.5494840000000  0.5874200000000  0.5144450000000 1.0
C      1  0.4767220000000  0.5891340000000  0.5226840000000 1.0
C      1  0.4404440000000  0.5148550000000  0.5457710000000 1.0
C      1  0.4689470000000  0.4231780000000  0.4508090000000 1.0
C      1  0.5452270000000  0.5396640000000  0.4804160000000 1.0
C      1  0.4488810000000  0.5634820000000  0.5562630000000 1.0
C      1  0.5287360000000  0.4978290000000  0.5928990000000 1.0
C      1  0.4196170000000  0.5769850000000  0.4871840000000 1.0
C      1  0.5228550000000  0.5752570000000  0.5123330000000 1.0
C      1  0.5012820000000  0.5953180000000  0.5063430000000 1.0
C      1  0.5527570000000  0.5352050000000  0.4231490000000 1.0
C      1  0.5900990000000  0.4886110000000  0.5456950000000 1.0
C      1  0.5368170000000  0.4371330000000  0.5611190000000 1.0
C      1  0.4970420000000  0.5431860000000  0.4796740000000 1.0
C      1  0.5995330000000  0.5443830000000  0.4805490000000 1.0
C      1  0.5876310000000  0.4814580000000  0.5163460000000 1.0
C      1  0.4905750000000  0.4855470000000  0.5094130000000 1.0
C      1  0.4240040000000  0.5102880000000  0.4556470000000 1.0
C      1  0.5954040000000  0.4773700000000  0.4571960000000 1.0
C      1  0.5573130000000  0.4582220000000  0.4118630000000 1.0
C      1  0.5121310000000  0.4755970000000  0.4375200000000 1.0
C      1  0.4748170000000  0.5464810000000  0.4982350000000 1.0
C      1  0.5798030000000  0.5312150000000  0.4371570000000 1.0
C      1  0.5179660000000  0.5225430000000  0.5242800000000 1.0
C      1  0.4682260000000  0.5435720000000  0.5961270000000 1.0
C      1  0.5521590000000  0.4102360000000  0.4959000000000 1.0
C      1  0.5647950000000  0.4478940000000  0.5588830000000 1.0
C      1  0.4761790000000  0.4808270000000  0.4132030000000 1.0
C      1  0.3945580000000  0.5340230000000  0.4784100000000 1.0
C      1  0.5357950000000  0.4735920000000  0.4588640000000 1.0
C      1  0.5275960000000  0.4148840000000  0.5411200000000 1.0
C      1  0.4977140000000  0.4949640000000  0.3999820000000 1.0
C      1  0.4885360000000  0.4442990000000  0.4940380000000 1.0
C      1  0.5101530000000  0.4417400000000  0.4279590000000 1.0
C      1  0.4013960000000  0.4727170000000  0.5355240000000 1.0
C      1  0.4260510000000  0.5652240000000  0.5371120000000 1.0
C      1  0.5352860000000  0.4276120000000  0.4796010000000 1.0
C      1  0.4922260000000  0.4969910000000  0.4512890000000 1.0
C      1  0.5165300000000  0.5249360000000  0.5910430000000 1.0
C      1  0.5912420000000  0.5157370000000  0.5534420000000 1.0
C      1  0.5446030000000  0.5711220000000  0.5493310000000 1.0
C      1  0.4343670000000  0.5679440000000  0.5103170000000 1.0
C      1  0.5877450000000  0.5591990000000  0.5048420000000 1.0
C      1  0.5591850000000  0.5453280000000  0.5747930000000 1.0
C      1  0.3996370000000  0.5008380000000  0.5327460000000 1.0
C      1  0.5135480000000  0.4989910000000  0.4969340000000 1.0
C      1  0.5195990000000  0.5931020000000  0.4599350000000 1.0
C      1  0.5189210000000  0.4488200000000  0.4983380000000 1.0
C      1  0.5431040000000  0.4824030000000  0.5346170000000 1.0
C      1  0.5390970000000  0.5763200000000  0.4488350000000 1.0
C      1  0.6168470000000  0.4797250000000  0.4756930000000 1.0
C      1  0.4827050000000  0.5276800000000  0.5213470000000 1.0
C      1  0.4689460000000  0.5851960000000  0.4550720000000 1.0
C      1  0.4447090000000  0.5471400000000  0.5812510000000 1.0
C      1  0.5176590000000  0.4747990000000  0.3992330000000 1.0
C      1  0.4905770000000  0.5286120000000  0.6023940000000 1.0
C      1  0.4965680000000  0.5767650000000  0.5662200000000 1.0
C      1  0.4510880000000  0.5225120000000  0.4165010000000 1.0
C      1  0.5026220000000  0.5438730000000  0.4189920000000 1.0
C      1  0.5715310000000  0.4361280000000  0.5324110000000 1.0
C      1  0.5515290000000  0.4981740000000  0.4582500000000 1.0
C      1  0.4665430000000  0.4889640000000  0.4649840000000 1.0
C      1  0.4986390000000  0.3973820000000  0.4880190000000 1.0
C      1  0.4399950000000  0.4559390000000  0.4779040000000 1.0
C      1  0.5236440000000  0.4565680000000  0.5299040000000 1.0
C      1  0.4760630000000  0.5739300000000  0.5479990000000 1.0
C      1  0.5802510000000  0.4520740000000  0.4629080000000 1.0
C      1  0.4618090000000  0.4912270000000  0.5802590000000 1.0
C      1  0.5594700000000  0.4911900000000  0.5105040000000 1.0
C      1  0.5888100000000  0.5162820000000  0.4830650000000 1.0
C      1  0.5882760000000  0.4513760000000  0.5134790000000 1.0
C      1  0.5068290000000  0.5147800000000  0.4711950000000 1.0
C      1  0.4557450000000  0.5084780000000  0.4862600000000 1.0
C      1  0.5489840000000  0.4214570000000  0.5212870000000 1.0
C      1  0.5564660000000  0.4954280000000  0.5805990000000 1.0
C      1  0.4943370000000  0.4708600000000  0.5355330000000 1.0
C      1  0.4215970000000  0.4590650000000  0.5512550000000 1.0
C      1  0.4770360000000  0.4697370000000  0.5923120000000 1.0
C      1  0.5720250000000  0.5199560000000  0.5739220000000 1.0
C      1  0.5597320000000  0.5641670000000  0.4683360000000 1.0
END
