TITL C-951336-9012-412 -1.30014533528923e-06 125000 -1001.61871107352 0 0 161 (C1) n - 1
REM
REM in /home/bkarasulu/work/CARBON/AIRSS/Generating-Clusters/EDIP-Nigel-Params/with-SteepDescent/Only-C1/SD-CG/HFTN-CG
REM
REM
REM
REM
REM
REM ./C.cell (11c1c37f851c82e70ff6c80c92926a4b)
REM
REM compiler GCC version 9.2.1 20190827 (Red Hat 9.2.1-1)
REM options -cpp -mtune=generic -march=x86-64 -g -O0 -fpre-include=/usr/include/finclude/math-vector-fortran.h
REM seed 1988974938 1698697713 -1436396179 1913578666 1248248063 1662074566 -1168056337 -1907768261 1757447469 936591924 1566706572 895746096 -1252532707 1600462677 1545046633 -423167148 988159392 2043515118 1829641123 1420200939 -1773336166 14857616 290480605 1368217868 -612460006 -172518586 1472398078 -1342431485 -273780380 -1100294437 614471961 -1955794907 145685922
REM
CELL 1.54180   50.00000   50.00000   50.00000   90.00000   90.00000   90.00000
LATT -1
SFAC C  
C      1  0.4007270000000  0.4865680000000  0.5006380000000 1.0
C      1  0.5507560000000  0.4038850000000  0.4633950000000 1.0
C      1  0.4448540000000  0.5241470000000  0.3958360000000 1.0
C      1  0.5108660000000  0.4517950000000  0.5418870000000 1.0
C      1  0.5207960000000  0.5482790000000  0.6003310000000 1.0
C      1  0.5160800000000  0.4540700000000  0.5726940000000 1.0
C      1  0.4166550000000  0.5546570000000  0.4285620000000 1.0
C      1  0.5240140000000  0.5192190000000  0.4700860000000 1.0
C      1  0.4653550000000  0.4439620000000  0.4916580000000 1.0
C      1  0.5227320000000  0.5553060000000  0.4123090000000 1.0
C      1  0.5100800000000  0.4482230000000  0.4822480000000 1.0
C      1  0.4496840000000  0.5833460000000  0.5138040000000 1.0
C      1  0.6070050000000  0.5173470000000  0.4634230000000 1.0
C      1  0.4945900000000  0.4657030000000  0.4115500000000 1.0
C      1  0.4260500000000  0.5713870000000  0.4505900000000 1.0
C      1  0.4806810000000  0.5293080000000  0.4741180000000 1.0
C      1  0.5872830000000  0.4896480000000  0.4490480000000 1.0
C      1  0.5202680000000  0.5975520000000  0.4717050000000 1.0
C      1  0.4909970000000  0.4423390000000  0.5858110000000 1.0
C      1  0.5621860000000  0.5213960000000  0.5869850000000 1.0
C      1  0.4591150000000  0.4385390000000  0.5485850000000 1.0
C      1  0.4976800000000  0.4983570000000  0.5592170000000 1.0
C      1  0.5781060000000  0.5498130000000  0.5253570000000 1.0
C      1  0.5505770000000  0.4235550000000  0.5567340000000 1.0
C      1  0.4614450000000  0.6033640000000  0.4907200000000 1.0
C      1  0.5658460000000  0.5379420000000  0.4368620000000 1.0
C      1  0.4771880000000  0.4989210000000  0.4382520000000 1.0
C      1  0.5568360000000  0.5370050000000  0.5411800000000 1.0
C      1  0.4405120000000  0.4651370000000  0.4489250000000 1.0
C      1  0.5437720000000  0.4641990000000  0.4225990000000 1.0
C      1  0.5461280000000  0.5989840000000  0.5340970000000 1.0
C      1  0.5192910000000  0.4901070000000  0.4639510000000 1.0
C      1  0.4584020000000  0.4418440000000  0.4443740000000 1.0
C      1  0.5481200000000  0.5477780000000  0.5877600000000 1.0
C      1  0.4628380000000  0.4228010000000  0.4683940000000 1.0
C      1  0.4742330000000  0.5604340000000  0.5781440000000 1.0
C      1  0.4652640000000  0.5587000000000  0.4232670000000 1.0
C      1  0.4897410000000  0.6047360000000  0.5007110000000 1.0
C      1  0.5750440000000  0.4721080000000  0.4255740000000 1.0
C      1  0.5654500000000  0.4986640000000  0.5002690000000 1.0
C      1  0.5639800000000  0.4632100000000  0.5789830000000 1.0
C      1  0.4413780000000  0.5436200000000  0.4175860000000 1.0
C      1  0.4633130000000  0.5094820000000  0.4632490000000 1.0
C      1  0.4753570000000  0.4879540000000  0.4008000000000 1.0
C      1  0.5376680000000  0.4540220000000  0.5260810000000 1.0
C      1  0.4720240000000  0.4623240000000  0.5922100000000 1.0
C      1  0.5522520000000  0.5016010000000  0.6050170000000 1.0
C      1  0.4258480000000  0.5037150000000  0.5008700000000 1.0
C      1  0.4468240000000  0.4831800000000  0.5381180000000 1.0
C      1  0.4411120000000  0.5467630000000  0.4768970000000 1.0
C      1  0.5037660000000  0.3973680000000  0.4901910000000 1.0
C      1  0.5692850000000  0.5162160000000  0.5585250000000 1.0
C      1  0.4166870000000  0.4840030000000  0.4470600000000 1.0
C      1  0.4476140000000  0.4833300000000  0.5085400000000 1.0
C      1  0.4387160000000  0.4079880000000  0.4914250000000 1.0
C      1  0.5701850000000  0.3980250000000  0.5166770000000 1.0
C      1  0.4886800000000  0.5686280000000  0.4928390000000 1.0
C      1  0.4106580000000  0.5525070000000  0.4806600000000 1.0
C      1  0.5453580000000  0.4970110000000  0.5208050000000 1.0
C      1  0.4573890000000  0.5361910000000  0.5841700000000 1.0
C      1  0.4396600000000  0.4565330000000  0.4958630000000 1.0
C      1  0.5874240000000  0.4677720000000  0.4726110000000 1.0
C      1  0.5317210000000  0.4703610000000  0.4820220000000 1.0
C      1  0.5121780000000  0.5210960000000  0.5468150000000 1.0
C      1  0.4781650000000  0.4232130000000  0.5679030000000 1.0
C      1  0.4123990000000  0.4479910000000  0.5296870000000 1.0
C      1  0.4584460000000  0.5804390000000  0.5625870000000 1.0
C      1  0.5456190000000  0.5586200000000  0.5598110000000 1.0
C      1  0.4692890000000  0.5942180000000  0.4627840000000 1.0
C      1  0.4854620000000  0.4653300000000  0.4840500000000 1.0
C      1  0.5937360000000  0.4969040000000  0.5120930000000 1.0
C      1  0.6013850000000  0.4685060000000  0.5000600000000 1.0
C      1  0.4290030000000  0.4736260000000  0.5712960000000 1.0
C      1  0.5419640000000  0.4299100000000  0.5066270000000 1.0
C      1  0.3947390000000  0.5389350000000  0.4356360000000 1.0
C      1  0.4544070000000  0.5114620000000  0.5455840000000 1.0
C      1  0.4116640000000  0.4963950000000  0.5615580000000 1.0
C      1  0.4731780000000  0.5341580000000  0.5245700000000 1.0
C      1  0.6025840000000  0.5229810000000  0.4924950000000 1.0
C      1  0.5438130000000  0.4430930000000  0.5770550000000 1.0
C      1  0.4897250000000  0.4078660000000  0.4644800000000 1.0
C      1  0.4988920000000  0.5204620000000  0.4298610000000 1.0
C      1  0.4199090000000  0.5258130000000  0.5211300000000 1.0
C      1  0.5035480000000  0.5675310000000  0.5842110000000 1.0
C      1  0.5184020000000  0.5294180000000  0.4997710000000 1.0
C      1  0.5006280000000  0.5843480000000  0.4317920000000 1.0
C      1  0.4923080000000  0.4766820000000  0.5372930000000 1.0
C      1  0.5627740000000  0.5821610000000  0.5517200000000 1.0
C      1  0.5157090000000  0.5585640000000  0.4968710000000 1.0
C      1  0.4315770000000  0.5690970000000  0.5568330000000 1.0
C      1  0.5618390000000  0.5755270000000  0.4884290000000 1.0
C      1  0.4352760000000  0.5159450000000  0.4718190000000 1.0
C      1  0.5859540000000  0.5740080000000  0.5375090000000 1.0
C      1  0.5154810000000  0.5665080000000  0.5562590000000 1.0
C      1  0.5054270000000  0.4234550000000  0.4457610000000 1.0
C      1  0.5816660000000  0.4683810000000  0.5572880000000 1.0
C      1  0.4677780000000  0.4666070000000  0.5482050000000 1.0
C      1  0.4585160000000  0.4022000000000  0.5125540000000 1.0
C      1  0.4810530000000  0.3876750000000  0.5052120000000 1.0
C      1  0.5274060000000  0.4778640000000  0.5103590000000 1.0
C      1  0.4932210000000  0.4781850000000  0.4537410000000 1.0
C      1  0.4309940000000  0.5422200000000  0.5699500000000 1.0
C      1  0.4098930000000  0.5512950000000  0.5118010000000 1.0
C      1  0.5641890000000  0.5135140000000  0.4547640000000 1.0
C      1  0.5859240000000  0.4952250000000  0.5451600000000 1.0
C      1  0.5797040000000  0.4414900000000  0.4335730000000 1.0
C      1  0.3996660000000  0.5010220000000  0.4654150000000 1.0
C      1  0.4879540000000  0.5413080000000  0.4099770000000 1.0
C      1  0.4546700000000  0.5750500000000  0.4461360000000 1.0
C      1  0.5581090000000  0.5957220000000  0.5084020000000 1.0
C      1  0.3944730000000  0.4710350000000  0.5247710000000 1.0
C      1  0.5839500000000  0.4404060000000  0.4628360000000 1.0
C      1  0.5348760000000  0.4205140000000  0.4464750000000 1.0
C      1  0.5031200000000  0.4056900000000  0.5471230000000 1.0
C      1  0.4743690000000  0.5193480000000  0.3925520000000 1.0
C      1  0.5162100000000  0.4841080000000  0.5776400000000 1.0
C      1  0.4541240000000  0.4833830000000  0.5866030000000 1.0
C      1  0.5440500000000  0.3886320000000  0.5220960000000 1.0
C      1  0.5108660000000  0.5223980000000  0.6057740000000 1.0
C      1  0.4674590000000  0.5080120000000  0.5733570000000 1.0
C      1  0.5838430000000  0.4171440000000  0.5009140000000 1.0
C      1  0.5452900000000  0.5350730000000  0.4149130000000 1.0
C      1  0.4964490000000  0.5445900000000  0.5430600000000 1.0
C      1  0.5336190000000  0.5223370000000  0.5263920000000 1.0
C      1  0.5737860000000  0.4473900000000  0.5386420000000 1.0
C      1  0.4985100000000  0.4275790000000  0.5273230000000 1.0
C      1  0.4972190000000  0.5999350000000  0.4545380000000 1.0
C      1  0.4618360000000  0.5570680000000  0.5028450000000 1.0
C      1  0.5337080000000  0.5730150000000  0.4790760000000 1.0
C      1  0.5264720000000  0.5120340000000  0.4184430000000 1.0
C      1  0.4349130000000  0.4989510000000  0.4312230000000 1.0
C      1  0.5156960000000  0.5620310000000  0.4402510000000 1.0
C      1  0.4925940000000  0.6034340000000  0.5298400000000 1.0
C      1  0.4842820000000  0.4874140000000  0.5069730000000 1.0
C      1  0.5176300000000  0.5912470000000  0.5395530000000 1.0
C      1  0.5928810000000  0.4426910000000  0.5158420000000 1.0
C      1  0.4680450000000  0.5889610000000  0.5364760000000 1.0
C      1  0.5040320000000  0.5361280000000  0.4545310000000 1.0
C      1  0.4870840000000  0.4450950000000  0.4336380000000 1.0
C      1  0.5131080000000  0.4247920000000  0.5010810000000 1.0
C      1  0.5329440000000  0.4019360000000  0.5466660000000 1.0
C      1  0.5636920000000  0.4250000000000  0.4798550000000 1.0
C      1  0.5596930000000  0.5232540000000  0.4845400000000 1.0
C      1  0.4259770000000  0.5205900000000  0.5501200000000 1.0
C      1  0.5224000000000  0.4705900000000  0.4040970000000 1.0
C      1  0.3898740000000  0.4872190000000  0.5471980000000 1.0
C      1  0.4326030000000  0.4980500000000  0.4025610000000 1.0
C      1  0.3951460000000  0.5312660000000  0.4627590000000 1.0
C      1  0.4493480000000  0.4772320000000  0.3928920000000 1.0
C      1  0.4688010000000  0.4290940000000  0.5199790000000 1.0
C      1  0.5253870000000  0.4966330000000  0.3947190000000 1.0
C      1  0.4889290000000  0.5190560000000  0.5019360000000 1.0
C      1  0.5949980000000  0.5334700000000  0.4419160000000 1.0
C      1  0.5500980000000  0.4357370000000  0.4273720000000 1.0
C      1  0.5242890000000  0.4979880000000  0.6021230000000 1.0
C      1  0.4289600000000  0.4463580000000  0.5542910000000 1.0
C      1  0.5614400000000  0.4760960000000  0.4822210000000 1.0
C      1  0.4222050000000  0.4319290000000  0.4979270000000 1.0
C      1  0.5270730000000  0.3818010000000  0.4999540000000 1.0
C      1  0.4230040000000  0.5740070000000  0.5269350000000 1.0
C      1  0.5782760000000  0.5473080000000  0.4954220000000 1.0
END
