TITL C-950528-5794-489 -1.00642005967576e-06 125000 -978.384718972493 0 0 157 (C1) n - 1
REM
REM in /home/bkarasulu/work/CARBON/AIRSS/Generating-Clusters/EDIP-Nigel-Params/with-SteepDescent/Only-C1/SD-CG/HFTN-CG
REM
REM
REM
REM
REM
REM ./C.cell (11c1c37f851c82e70ff6c80c92926a4b)
REM
REM compiler GCC version 9.2.1 20190827 (Red Hat 9.2.1-1)
REM options -cpp -mtune=generic -march=x86-64 -g -O0 -fpre-include=/usr/include/finclude/math-vector-fortran.h
REM seed -428371595 -659348407 1529030102 2073406461 883981138 2034681307 1715127918 -1998334388 1882439967 1201257168 -1830514514 1712947878 -242645536 942142309 -1213963177 435005177 619466367 1865919825 -1373196622 1483491530 116343029 629769484 -231868367 541946073 1653063756 528396621 -46686147 1385857557 1879396872 1100756693 -1502891195 -472546791 -79693999
REM
CELL 1.54180   50.00000   50.00000   50.00000   90.00000   90.00000   90.00000
LATT -1
SFAC C  
C      1  0.5140790000000  0.5969460000000  0.4954120000000 1.0
C      1  0.4319710000000  0.4461170000000  0.5243920000000 1.0
C      1  0.4369770000000  0.5568770000000  0.5798530000000 1.0
C      1  0.5741510000000  0.4638540000000  0.5811420000000 1.0
C      1  0.5136870000000  0.6063960000000  0.5226510000000 1.0
C      1  0.4959390000000  0.5251530000000  0.4858300000000 1.0
C      1  0.4968710000000  0.4323200000000  0.4941190000000 1.0
C      1  0.5091200000000  0.3992570000000  0.5280870000000 1.0
C      1  0.4348820000000  0.4441820000000  0.4537290000000 1.0
C      1  0.5672100000000  0.4513470000000  0.4355490000000 1.0
C      1  0.5979280000000  0.5477780000000  0.5032910000000 1.0
C      1  0.5528960000000  0.4538790000000  0.5124140000000 1.0
C      1  0.4418620000000  0.4245500000000  0.5033360000000 1.0
C      1  0.4856970000000  0.5033850000000  0.5018910000000 1.0
C      1  0.5335680000000  0.4476380000000  0.5752440000000 1.0
C      1  0.5557470000000  0.4649580000000  0.4830050000000 1.0
C      1  0.3952340000000  0.5083770000000  0.4577750000000 1.0
C      1  0.4281630000000  0.5820750000000  0.5183740000000 1.0
C      1  0.5590100000000  0.4885720000000  0.5904560000000 1.0
C      1  0.5547640000000  0.5781130000000  0.5368320000000 1.0
C      1  0.4815470000000  0.4102690000000  0.5333860000000 1.0
C      1  0.4681420000000  0.5077240000000  0.5270170000000 1.0
C      1  0.4564200000000  0.5800330000000  0.5122930000000 1.0
C      1  0.5084090000000  0.4848060000000  0.5346110000000 1.0
C      1  0.4108270000000  0.5125410000000  0.5030620000000 1.0
C      1  0.4790200000000  0.5256520000000  0.4019400000000 1.0
C      1  0.5455210000000  0.4170040000000  0.5040600000000 1.0
C      1  0.5248830000000  0.5240390000000  0.4873510000000 1.0
C      1  0.4516920000000  0.4625210000000  0.4359600000000 1.0
C      1  0.3946820000000  0.4560440000000  0.4860620000000 1.0
C      1  0.4638760000000  0.6006580000000  0.4911340000000 1.0
C      1  0.4423040000000  0.5999500000000  0.4731320000000 1.0
C      1  0.4792400000000  0.4887930000000  0.5491030000000 1.0
C      1  0.5249850000000  0.5615150000000  0.4569790000000 1.0
C      1  0.4984630000000  0.5174840000000  0.5766760000000 1.0
C      1  0.4051990000000  0.5295210000000  0.5457390000000 1.0
C      1  0.5143890000000  0.5487310000000  0.4151680000000 1.0
C      1  0.5586180000000  0.4406840000000  0.5859290000000 1.0
C      1  0.5836540000000  0.5705300000000  0.4921560000000 1.0
C      1  0.4860770000000  0.5261530000000  0.4578810000000 1.0
C      1  0.6038940000000  0.5216230000000  0.4909840000000 1.0
C      1  0.5759820000000  0.5657340000000  0.4639290000000 1.0
C      1  0.5399240000000  0.5435050000000  0.5898900000000 1.0
C      1  0.5022920000000  0.5492310000000  0.4440800000000 1.0
C      1  0.4768210000000  0.4786520000000  0.3993520000000 1.0
C      1  0.4567340000000  0.5039030000000  0.5835440000000 1.0
C      1  0.4826140000000  0.4028690000000  0.4624570000000 1.0
C      1  0.5323420000000  0.5247400000000  0.4128130000000 1.0
C      1  0.4887630000000  0.4964380000000  0.4463980000000 1.0
C      1  0.4414610000000  0.4455200000000  0.5535040000000 1.0
C      1  0.4087290000000  0.5635110000000  0.4780830000000 1.0
C      1  0.4098360000000  0.4595240000000  0.4614960000000 1.0
C      1  0.5416720000000  0.4346440000000  0.4346650000000 1.0
C      1  0.5243850000000  0.5678650000000  0.5867860000000 1.0
C      1  0.5650070000000  0.5849750000000  0.5101600000000 1.0
C      1  0.4699250000000  0.4557430000000  0.4134800000000 1.0
C      1  0.4931550000000  0.4383400000000  0.4167640000000 1.0
C      1  0.5276250000000  0.5916650000000  0.5432500000000 1.0
C      1  0.4761830000000  0.5626130000000  0.5377130000000 1.0
C      1  0.5316840000000  0.4751150000000  0.4145100000000 1.0
C      1  0.5652230000000  0.5861230000000  0.4475250000000 1.0
C      1  0.4103000000000  0.5638370000000  0.5069110000000 1.0
C      1  0.4801280000000  0.4317820000000  0.4698190000000 1.0
C      1  0.5302880000000  0.5717250000000  0.5015940000000 1.0
C      1  0.5732660000000  0.4994470000000  0.4274880000000 1.0
C      1  0.4521210000000  0.4402640000000  0.4783720000000 1.0
C      1  0.4730120000000  0.3908750000000  0.4866170000000 1.0
C      1  0.5308990000000  0.4776860000000  0.5785430000000 1.0
C      1  0.5327570000000  0.4864040000000  0.5510110000000 1.0
C      1  0.5276680000000  0.4583150000000  0.4685950000000 1.0
C      1  0.4380080000000  0.5280750000000  0.4603630000000 1.0
C      1  0.5281490000000  0.5134920000000  0.5166520000000 1.0
C      1  0.5097160000000  0.4007190000000  0.4547770000000 1.0
C      1  0.5676480000000  0.5368570000000  0.4593660000000 1.0
C      1  0.5813240000000  0.4731460000000  0.5519180000000 1.0
C      1  0.5304260000000  0.5727210000000  0.4121970000000 1.0
C      1  0.5368760000000  0.5060770000000  0.4669170000000 1.0
C      1  0.4302700000000  0.5691310000000  0.4376590000000 1.0
C      1  0.4895800000000  0.5005990000000  0.4126730000000 1.0
C      1  0.5121630000000  0.4538630000000  0.5292490000000 1.0
C      1  0.4089560000000  0.5344700000000  0.4547280000000 1.0
C      1  0.5081300000000  0.5583720000000  0.5220270000000 1.0
C      1  0.4722890000000  0.4000090000000  0.5584830000000 1.0
C      1  0.5596770000000  0.4957260000000  0.4850770000000 1.0
C      1  0.4150840000000  0.4874400000000  0.5672120000000 1.0
C      1  0.4731010000000  0.5792250000000  0.4248580000000 1.0
C      1  0.5024410000000  0.4901620000000  0.5858580000000 1.0
C      1  0.5106350000000  0.5759620000000  0.5627540000000 1.0
C      1  0.4366250000000  0.4879020000000  0.4337790000000 1.0
C      1  0.5998750000000  0.5168980000000  0.5352240000000 1.0
C      1  0.5737270000000  0.5286570000000  0.5247000000000 1.0
C      1  0.5377680000000  0.5507470000000  0.4802990000000 1.0
C      1  0.4511270000000  0.5619060000000  0.4206560000000 1.0
C      1  0.4243320000000  0.5814590000000  0.4619400000000 1.0
C      1  0.4493460000000  0.5139800000000  0.4369760000000 1.0
C      1  0.4168610000000  0.5440950000000  0.5668820000000 1.0
C      1  0.4026840000000  0.4510780000000  0.5231880000000 1.0
C      1  0.4675340000000  0.5335070000000  0.5429480000000 1.0
C      1  0.4570530000000  0.4681240000000  0.4874600000000 1.0
C      1  0.4817280000000  0.5703360000000  0.4511810000000 1.0
C      1  0.3928400000000  0.4789210000000  0.5248240000000 1.0
C      1  0.5958570000000  0.4564140000000  0.5314850000000 1.0
C      1  0.4926160000000  0.4551560000000  0.4510140000000 1.0
C      1  0.5163290000000  0.4098840000000  0.5018020000000 1.0
C      1  0.4728320000000  0.4075940000000  0.5840970000000 1.0
C      1  0.4446720000000  0.4703160000000  0.5126990000000 1.0
C      1  0.5083630000000  0.4592850000000  0.4923420000000 1.0
C      1  0.4803310000000  0.5756500000000  0.5644240000000 1.0
C      1  0.5209490000000  0.4479340000000  0.4181430000000 1.0
C      1  0.5410890000000  0.5755300000000  0.4382080000000 1.0
C      1  0.4651900000000  0.5563160000000  0.5829530000000 1.0
C      1  0.5736310000000  0.5115290000000  0.5763310000000 1.0
C      1  0.4424010000000  0.4913760000000  0.5630450000000 1.0
C      1  0.5196520000000  0.5343190000000  0.5672860000000 1.0
C      1  0.4744080000000  0.4812230000000  0.5920450000000 1.0
C      1  0.4396970000000  0.4974600000000  0.5205550000000 1.0
C      1  0.4574730000000  0.5528820000000  0.4662470000000 1.0
C      1  0.5561550000000  0.4790020000000  0.5338730000000 1.0
C      1  0.5184130000000  0.4851330000000  0.4552770000000 1.0
C      1  0.5264920000000  0.5371770000000  0.5364430000000 1.0
C      1  0.5532010000000  0.4101030000000  0.4766690000000 1.0
C      1  0.5928100000000  0.4305170000000  0.4913130000000 1.0
C      1  0.4612930000000  0.4541280000000  0.5858860000000 1.0
C      1  0.5995840000000  0.4574470000000  0.4834680000000 1.0
C      1  0.5631460000000  0.5395840000000  0.5725570000000 1.0
C      1  0.4895580000000  0.5945870000000  0.4784600000000 1.0
C      1  0.5797130000000  0.4163170000000  0.4711130000000 1.0
C      1  0.3856780000000  0.5075810000000  0.4858220000000 1.0
C      1  0.5183440000000  0.4996350000000  0.4064560000000 1.0
C      1  0.4726760000000  0.4309540000000  0.5970110000000 1.0
C      1  0.4679220000000  0.4585010000000  0.5481430000000 1.0
C      1  0.4899590000000  0.5495370000000  0.4981510000000 1.0
C      1  0.4556760000000  0.5327660000000  0.4153880000000 1.0
C      1  0.6098980000000  0.5011950000000  0.5115800000000 1.0
C      1  0.4096670000000  0.5375250000000  0.5187150000000 1.0
C      1  0.5781080000000  0.4348070000000  0.5174630000000 1.0
C      1  0.4364570000000  0.5071470000000  0.4844630000000 1.0
C      1  0.5560890000000  0.5473440000000  0.5430390000000 1.0
C      1  0.5290500000000  0.4105140000000  0.5444920000000 1.0
C      1  0.5938480000000  0.4997770000000  0.5579900000000 1.0
C      1  0.5565330000000  0.5041640000000  0.5150850000000 1.0
C      1  0.5911640000000  0.4935120000000  0.4501020000000 1.0
C      1  0.5537760000000  0.5209840000000  0.4349370000000 1.0
C      1  0.3813570000000  0.4801840000000  0.4974350000000 1.0
C      1  0.4032920000000  0.4995320000000  0.5448930000000 1.0
C      1  0.4618680000000  0.4032800000000  0.5100840000000 1.0
C      1  0.5314040000000  0.4384140000000  0.5475970000000 1.0
C      1  0.4621200000000  0.5552140000000  0.4961540000000 1.0
C      1  0.4175620000000  0.4874890000000  0.4565820000000 1.0
C      1  0.4865000000000  0.4402290000000  0.5363270000000 1.0
C      1  0.5987440000000  0.4738570000000  0.5078620000000 1.0
C      1  0.5334040000000  0.4164410000000  0.4561170000000 1.0
C      1  0.5603770000000  0.4745290000000  0.4186910000000 1.0
C      1  0.4846960000000  0.4797910000000  0.4835190000000 1.0
C      1  0.5852610000000  0.4651780000000  0.4577440000000 1.0
C      1  0.4715510000000  0.5280110000000  0.5723520000000 1.0
C      1  0.5827980000000  0.5122960000000  0.4718940000000 1.0
END
