TITL C-951335-1172-106 -3.318432873945e-06 125000 -1029.05071938623 0 0 165 (C1) n - 1
REM
REM in /home/bkarasulu/work/CARBON/AIRSS/Generating-Clusters/EDIP-Nigel-Params/with-SteepDescent/Only-C1/SD-CG/HFTN-CG
REM
REM
REM
REM
REM
REM ./C.cell (11c1c37f851c82e70ff6c80c92926a4b)
REM
REM compiler GCC version 9.2.1 20190827 (Red Hat 9.2.1-1)
REM options -cpp -mtune=generic -march=x86-64 -g -O0 -fpre-include=/usr/include/finclude/math-vector-fortran.h
REM seed 1744151899 859533137 -1098160380 1760708063 1970603544 -674343774 -1944111694 1033422313 748274589 1085394876 361632551 -214973664 516863401 740049463 -1784780503 -553363942 157694948 -49113998 -1608797466 -1173349201 419188805 -758614707 -1691120605 392340407 -1588926908 443025714 -1211997935 -1374355552 -1537077181 972121738 1780505429 1458360723 848284455
REM
CELL 1.54180   50.00000   50.00000   50.00000   90.00000   90.00000   90.00000
LATT -1
SFAC C  
C      1  0.4123500000000  0.5506060000000  0.5533150000000 1.0
C      1  0.4725260000000  0.4813190000000  0.6053810000000 1.0
C      1  0.4510840000000  0.4664740000000  0.5343910000000 1.0
C      1  0.4410230000000  0.5513850000000  0.5613460000000 1.0
C      1  0.4754240000000  0.5625470000000  0.4908810000000 1.0
C      1  0.4683020000000  0.4471870000000  0.4139250000000 1.0
C      1  0.4597450000000  0.5975730000000  0.4838010000000 1.0
C      1  0.5895260000000  0.4606990000000  0.5268230000000 1.0
C      1  0.4929560000000  0.4887130000000  0.5452130000000 1.0
C      1  0.4988900000000  0.4966250000000  0.6010460000000 1.0
C      1  0.4873890000000  0.6008850000000  0.4733000000000 1.0
C      1  0.4971670000000  0.4751570000000  0.3875350000000 1.0
C      1  0.5265990000000  0.5198090000000  0.5667610000000 1.0
C      1  0.5766680000000  0.5118100000000  0.4136510000000 1.0
C      1  0.6047050000000  0.4788960000000  0.5105710000000 1.0
C      1  0.5081370000000  0.5152270000000  0.4526480000000 1.0
C      1  0.5830050000000  0.5505490000000  0.5373990000000 1.0
C      1  0.3991500000000  0.4940790000000  0.4707720000000 1.0
C      1  0.4986020000000  0.5210860000000  0.4234520000000 1.0
C      1  0.5986050000000  0.5071740000000  0.5117310000000 1.0
C      1  0.5357820000000  0.4049860000000  0.5160550000000 1.0
C      1  0.5375100000000  0.4724950000000  0.5585750000000 1.0
C      1  0.5068900000000  0.5828670000000  0.4287030000000 1.0
C      1  0.4698260000000  0.4079820000000  0.4444460000000 1.0
C      1  0.4621830000000  0.4627820000000  0.5842400000000 1.0
C      1  0.4871270000000  0.5370840000000  0.5576410000000 1.0
C      1  0.4599050000000  0.5715110000000  0.4149970000000 1.0
C      1  0.4527320000000  0.4277560000000  0.5521690000000 1.0
C      1  0.5465880000000  0.4250930000000  0.5586080000000 1.0
C      1  0.4439200000000  0.4762550000000  0.5651490000000 1.0
C      1  0.5330320000000  0.4388180000000  0.4702040000000 1.0
C      1  0.5916950000000  0.4597690000000  0.4662370000000 1.0
C      1  0.3974900000000  0.5240300000000  0.4740520000000 1.0
C      1  0.5236140000000  0.6116640000000  0.5114920000000 1.0
C      1  0.5566110000000  0.5895320000000  0.4352960000000 1.0
C      1  0.4834280000000  0.4062210000000  0.5089250000000 1.0
C      1  0.5451010000000  0.5697290000000  0.4779280000000 1.0
C      1  0.4821190000000  0.4216810000000  0.4204900000000 1.0
C      1  0.4620190000000  0.4195270000000  0.4949380000000 1.0
C      1  0.4701450000000  0.5751220000000  0.5373590000000 1.0
C      1  0.5277870000000  0.4936530000000  0.4546830000000 1.0
C      1  0.4731340000000  0.4897460000000  0.3921710000000 1.0
C      1  0.4832290000000  0.3996120000000  0.5360160000000 1.0
C      1  0.4177510000000  0.5345640000000  0.4555390000000 1.0
C      1  0.4214870000000  0.4906620000000  0.4506890000000 1.0
C      1  0.4407600000000  0.5033040000000  0.5225750000000 1.0
C      1  0.4484170000000  0.5410830000000  0.5876400000000 1.0
C      1  0.4869830000000  0.5734210000000  0.5884340000000 1.0
C      1  0.5578140000000  0.4525780000000  0.4312730000000 1.0
C      1  0.4625710000000  0.5389190000000  0.4494990000000 1.0
C      1  0.4513090000000  0.5010000000000  0.4739230000000 1.0
C      1  0.4869730000000  0.5160990000000  0.5048360000000 1.0
C      1  0.4152690000000  0.4770080000000  0.5717100000000 1.0
C      1  0.4115740000000  0.5134540000000  0.5216480000000 1.0
C      1  0.5221990000000  0.5396300000000  0.6005830000000 1.0
C      1  0.5791870000000  0.4178300000000  0.4924170000000 1.0
C      1  0.5073490000000  0.6097230000000  0.4904110000000 1.0
C      1  0.5078680000000  0.4210310000000  0.5042400000000 1.0
C      1  0.5454040000000  0.5406010000000  0.4705190000000 1.0
C      1  0.5351870000000  0.5728220000000  0.4267250000000 1.0
C      1  0.4651830000000  0.4675640000000  0.4365470000000 1.0
C      1  0.4855530000000  0.5870040000000  0.5603540000000 1.0
C      1  0.5189800000000  0.5520670000000  0.5171590000000 1.0
C      1  0.4447270000000  0.5302100000000  0.4706140000000 1.0
C      1  0.4896420000000  0.5799950000000  0.4531740000000 1.0
C      1  0.4236870000000  0.5148930000000  0.4327330000000 1.0
C      1  0.4900290000000  0.5742490000000  0.4059570000000 1.0
C      1  0.5111830000000  0.4477820000000  0.4501530000000 1.0
C      1  0.4414730000000  0.5826420000000  0.4645870000000 1.0
C      1  0.4815980000000  0.4534950000000  0.4608110000000 1.0
C      1  0.5894610000000  0.5220860000000  0.4588440000000 1.0
C      1  0.5675550000000  0.5527560000000  0.5125910000000 1.0
C      1  0.5450750000000  0.5172980000000  0.5929730000000 1.0
C      1  0.5165990000000  0.4412870000000  0.5910190000000 1.0
C      1  0.4852730000000  0.5441030000000  0.4007900000000 1.0
C      1  0.4198750000000  0.5702260000000  0.4816010000000 1.0
C      1  0.4642390000000  0.5468470000000  0.5423480000000 1.0
C      1  0.4351590000000  0.4412630000000  0.4622630000000 1.0
C      1  0.4073890000000  0.4839160000000  0.4970770000000 1.0
C      1  0.4790430000000  0.5436620000000  0.5863180000000 1.0
C      1  0.4522770000000  0.5227770000000  0.4255660000000 1.0
C      1  0.5152420000000  0.5461950000000  0.5474710000000 1.0
C      1  0.4108420000000  0.5367330000000  0.4991220000000 1.0
C      1  0.4978940000000  0.4280600000000  0.5742670000000 1.0
C      1  0.4382710000000  0.4869530000000  0.4973270000000 1.0
C      1  0.4554230000000  0.4627030000000  0.5028300000000 1.0
C      1  0.5700670000000  0.5387740000000  0.4193680000000 1.0
C      1  0.4021500000000  0.4548820000000  0.5035700000000 1.0
C      1  0.4543500000000  0.5426780000000  0.4034830000000 1.0
C      1  0.4505320000000  0.5450410000000  0.4963990000000 1.0
C      1  0.3996000000000  0.4654850000000  0.5517180000000 1.0
C      1  0.5112890000000  0.4242360000000  0.4311370000000 1.0
C      1  0.4131550000000  0.5062350000000  0.5759720000000 1.0
C      1  0.5606340000000  0.4215240000000  0.5126900000000 1.0
C      1  0.5203160000000  0.5735070000000  0.5606670000000 1.0
C      1  0.6096990000000  0.4698510000000  0.4847070000000 1.0
C      1  0.5244770000000  0.4714780000000  0.4357880000000 1.0
C      1  0.4958330000000  0.5263500000000  0.6051740000000 1.0
C      1  0.5136430000000  0.4911640000000  0.5655060000000 1.0
C      1  0.5912070000000  0.4628270000000  0.5552950000000 1.0
C      1  0.5032810000000  0.4063350000000  0.5549520000000 1.0
C      1  0.5239760000000  0.4119080000000  0.4785350000000 1.0
C      1  0.4803790000000  0.4976830000000  0.4818310000000 1.0
C      1  0.4516020000000  0.4489080000000  0.3910250000000 1.0
C      1  0.4348580000000  0.4185870000000  0.5057010000000 1.0
C      1  0.4624040000000  0.5686940000000  0.4457360000000 1.0
C      1  0.5708410000000  0.5300390000000  0.5807180000000 1.0
C      1  0.5437690000000  0.5915050000000  0.5516500000000 1.0
C      1  0.4729460000000  0.4986800000000  0.4205230000000 1.0
C      1  0.5615430000000  0.4560280000000  0.5908130000000 1.0
C      1  0.4818300000000  0.4676160000000  0.4884400000000 1.0
C      1  0.5540650000000  0.4498500000000  0.5179050000000 1.0
C      1  0.5421850000000  0.5464040000000  0.4149650000000 1.0
C      1  0.5381180000000  0.4874090000000  0.4814510000000 1.0
C      1  0.5808690000000  0.5478250000000  0.4456470000000 1.0
C      1  0.5209150000000  0.4783720000000  0.4044420000000 1.0
C      1  0.5518450000000  0.4890900000000  0.5382270000000 1.0
C      1  0.5675350000000  0.5778680000000  0.5605260000000 1.0
C      1  0.5127470000000  0.4011010000000  0.4521020000000 1.0
C      1  0.4535240000000  0.5857160000000  0.5131220000000 1.0
C      1  0.5176260000000  0.5685960000000  0.5912580000000 1.0
C      1  0.4304490000000  0.4280130000000  0.5336390000000 1.0
C      1  0.4362730000000  0.4652560000000  0.4450420000000 1.0
C      1  0.5314680000000  0.4034040000000  0.5465340000000 1.0
C      1  0.4358420000000  0.5158110000000  0.5939740000000 1.0
C      1  0.5809850000000  0.4724430000000  0.4425520000000 1.0
C      1  0.5044550000000  0.4540920000000  0.5068830000000 1.0
C      1  0.5574500000000  0.4336940000000  0.4539780000000 1.0
C      1  0.4505620000000  0.4751960000000  0.3843170000000 1.0
C      1  0.5736530000000  0.4858070000000  0.5619430000000 1.0
C      1  0.4750550000000  0.4436110000000  0.5639040000000 1.0
C      1  0.4827260000000  0.4620610000000  0.5379530000000 1.0
C      1  0.5283080000000  0.4879950000000  0.6060130000000 1.0
C      1  0.5339760000000  0.4594440000000  0.4942780000000 1.0
C      1  0.5778370000000  0.4433490000000  0.5719340000000 1.0
C      1  0.4603710000000  0.5264850000000  0.5179830000000 1.0
C      1  0.5432790000000  0.5686640000000  0.5085690000000 1.0
C      1  0.5393200000000  0.5126900000000  0.4970500000000 1.0
C      1  0.4041150000000  0.5222860000000  0.5510960000000 1.0
C      1  0.5372600000000  0.4474420000000  0.5429410000000 1.0
C      1  0.4877990000000  0.3882990000000  0.4538550000000 1.0
C      1  0.5330510000000  0.5073500000000  0.5251240000000 1.0
C      1  0.6019560000000  0.5201570000000  0.4854560000000 1.0
C      1  0.5953210000000  0.5229800000000  0.5374750000000 1.0
C      1  0.5361550000000  0.4353320000000  0.4127880000000 1.0
C      1  0.4103180000000  0.4497210000000  0.5313010000000 1.0
C      1  0.5815530000000  0.4331610000000  0.4692930000000 1.0
C      1  0.4627870000000  0.4287160000000  0.4654750000000 1.0
C      1  0.4083900000000  0.5650350000000  0.5292300000000 1.0
C      1  0.4242370000000  0.5773620000000  0.5095560000000 1.0
C      1  0.5361900000000  0.5012270000000  0.3960740000000 1.0
C      1  0.5654890000000  0.5296690000000  0.4945450000000 1.0
C      1  0.5154190000000  0.5374990000000  0.4701420000000 1.0
C      1  0.5241960000000  0.5243770000000  0.4064280000000 1.0
C      1  0.5434870000000  0.5954500000000  0.5221740000000 1.0
C      1  0.4178880000000  0.4349770000000  0.4868280000000 1.0
C      1  0.5641170000000  0.5497140000000  0.5606180000000 1.0
C      1  0.4999810000000  0.5426350000000  0.4956920000000 1.0
C      1  0.5289000000000  0.4533420000000  0.3915770000000 1.0
C      1  0.5877710000000  0.5117850000000  0.5642850000000 1.0
C      1  0.5356280000000  0.4599250000000  0.6006300000000 1.0
C      1  0.5048800000000  0.5005060000000  0.5226290000000 1.0
C      1  0.4508240000000  0.4986580000000  0.6107370000000 1.0
C      1  0.5677130000000  0.5747260000000  0.4567860000000 1.0
C      1  0.5852670000000  0.5012010000000  0.4382030000000 1.0
END
