TITL C-950521-2237-269 9.9686861167556e-07 125000 -603.797945056527 0 0 99 (C1) n - 1
REM
REM in /home/bkarasulu/work/CARBON/AIRSS/Generating-Clusters/EDIP-Nigel-Params/with-SteepDescent/Only-C1/SD-CG/HFTN-CG
REM
REM
REM
REM
REM
REM ./C.cell (11c1c37f851c82e70ff6c80c92926a4b)
REM
REM compiler GCC version 9.2.1 20190827 (Red Hat 9.2.1-1)
REM options -cpp -mtune=generic -march=x86-64 -g -O0 -fpre-include=/usr/include/finclude/math-vector-fortran.h
REM seed -1353236743 -351322231 -657075276 38545998 -349025753 1917138865 -1211064977 1638232240 50018339 -899240087 -724495631 -874493150 -1644150547 2021553821 -1320449919 27660393 -731530745 999935526 -2099021512 1445231990 -1887733528 -1145790687 1252055169 -282744799 1735412048 -1028758798 1928603990 1077248379 1310100801 1295516633 2042186471 9876210 -1107203597
REM
CELL 1.54180   50.00000   50.00000   50.00000   90.00000   90.00000   90.00000
LATT -1
SFAC C  
C      1  0.4694800000000  0.5569930000000  0.5073180000000 1.0
C      1  0.5288010000000  0.5711970000000  0.4946040000000 1.0
C      1  0.5723920000000  0.5032690000000  0.5595630000000 1.0
C      1  0.5397850000000  0.4910790000000  0.5110200000000 1.0
C      1  0.5587010000000  0.5245890000000  0.4671580000000 1.0
C      1  0.4722260000000  0.5302760000000  0.5715360000000 1.0
C      1  0.4279790000000  0.5575540000000  0.4778350000000 1.0
C      1  0.5390730000000  0.5386690000000  0.5466020000000 1.0
C      1  0.4156870000000  0.4966990000000  0.5401100000000 1.0
C      1  0.4631160000000  0.4391320000000  0.4371610000000 1.0
C      1  0.4388690000000  0.4703060000000  0.4667010000000 1.0
C      1  0.4166670000000  0.5395110000000  0.4990290000000 1.0
C      1  0.4141410000000  0.4562660000000  0.5065320000000 1.0
C      1  0.5327180000000  0.5114910000000  0.4236140000000 1.0
C      1  0.5214120000000  0.5676030000000  0.4674760000000 1.0
C      1  0.5284650000000  0.4880050000000  0.4779220000000 1.0
C      1  0.4674510000000  0.5722050000000  0.4484030000000 1.0
C      1  0.5703910000000  0.4980220000000  0.5069330000000 1.0
C      1  0.4376600000000  0.5152270000000  0.5393440000000 1.0
C      1  0.5266950000000  0.5171380000000  0.5268380000000 1.0
C      1  0.5032240000000  0.4126720000000  0.5371860000000 1.0
C      1  0.5373680000000  0.4820410000000  0.4308550000000 1.0
C      1  0.5095800000000  0.5342890000000  0.4832790000000 1.0
C      1  0.5581300000000  0.5266360000000  0.5637540000000 1.0
C      1  0.5126710000000  0.4386280000000  0.4366120000000 1.0
C      1  0.5589870000000  0.4795800000000  0.5705640000000 1.0
C      1  0.5029340000000  0.5284070000000  0.5126910000000 1.0
C      1  0.5864530000000  0.4855250000000  0.4846710000000 1.0
C      1  0.4334100000000  0.4583000000000  0.5278810000000 1.0
C      1  0.4181890000000  0.5098140000000  0.4926320000000 1.0
C      1  0.5539500000000  0.5617670000000  0.5055710000000 1.0
C      1  0.5725400000000  0.4545450000000  0.5728890000000 1.0
C      1  0.4848860000000  0.5282960000000  0.4659980000000 1.0
C      1  0.5612780000000  0.4480350000000  0.5304500000000 1.0
C      1  0.5110310000000  0.4306310000000  0.4656320000000 1.0
C      1  0.5022450000000  0.4781020000000  0.4634860000000 1.0
C      1  0.4720970000000  0.4495470000000  0.5568560000000 1.0
C      1  0.5181300000000  0.5515140000000  0.5629970000000 1.0
C      1  0.4994050000000  0.4364560000000  0.5550290000000 1.0
C      1  0.4860740000000  0.4960890000000  0.4116900000000 1.0
C      1  0.4497560000000  0.5100560000000  0.4968800000000 1.0
C      1  0.4235060000000  0.4717270000000  0.5507340000000 1.0
C      1  0.4821360000000  0.5729160000000  0.4234000000000 1.0
C      1  0.4413820000000  0.5581490000000  0.4516440000000 1.0
C      1  0.4603900000000  0.5376420000000  0.4850670000000 1.0
C      1  0.4873500000000  0.4877980000000  0.5323910000000 1.0
C      1  0.5370400000000  0.4639930000000  0.5253640000000 1.0
C      1  0.4819420000000  0.5821350000000  0.4981060000000 1.0
C      1  0.4921180000000  0.5381750000000  0.4361850000000 1.0
C      1  0.4034770000000  0.4926960000000  0.5137500000000 1.0
C      1  0.4137910000000  0.4721340000000  0.4821710000000 1.0
C      1  0.5802680000000  0.4456030000000  0.5101400000000 1.0
C      1  0.5038320000000  0.5170360000000  0.4184280000000 1.0
C      1  0.5868510000000  0.5040690000000  0.5332230000000 1.0
C      1  0.5728490000000  0.4980290000000  0.4618180000000 1.0
C      1  0.5395110000000  0.4298490000000  0.4763190000000 1.0
C      1  0.5593860000000  0.4266190000000  0.5494310000000 1.0
C      1  0.4454290000000  0.5137530000000  0.4280570000000 1.0
C      1  0.4896480000000  0.5519740000000  0.5690240000000 1.0
C      1  0.5172930000000  0.5044740000000  0.5825920000000 1.0
C      1  0.5354810000000  0.4838350000000  0.5866300000000 1.0
C      1  0.5586700000000  0.4513450000000  0.4678570000000 1.0
C      1  0.5038160000000  0.4126150000000  0.5076860000000 1.0
C      1  0.5296010000000  0.5598890000000  0.4410400000000 1.0
C      1  0.5598090000000  0.4301670000000  0.5768140000000 1.0
C      1  0.5281760000000  0.4079430000000  0.4924070000000 1.0
C      1  0.4802950000000  0.5840290000000  0.4701650000000 1.0
C      1  0.4586470000000  0.4881430000000  0.4789120000000 1.0
C      1  0.4352470000000  0.5378630000000  0.4336470000000 1.0
C      1  0.5873970000000  0.5305470000000  0.5178820000000 1.0
C      1  0.5700680000000  0.5395630000000  0.4949250000000 1.0
C      1  0.4859950000000  0.4633480000000  0.5159750000000 1.0
C      1  0.4816320000000  0.5750480000000  0.5540300000000 1.0
C      1  0.4670400000000  0.4967870000000  0.4324430000000 1.0
C      1  0.4488910000000  0.4427480000000  0.4608180000000 1.0
C      1  0.5100570000000  0.4501060000000  0.5286090000000 1.0
C      1  0.4608800000000  0.4465110000000  0.5282530000000 1.0
C      1  0.4540370000000  0.5789200000000  0.5495830000000 1.0
C      1  0.5070340000000  0.5809070000000  0.5401120000000 1.0
C      1  0.4870040000000  0.4395540000000  0.4236850000000 1.0
C      1  0.4759810000000  0.4825570000000  0.5597760000000 1.0
C      1  0.5529960000000  0.5601880000000  0.5331220000000 1.0
C      1  0.5470630000000  0.5349990000000  0.4388440000000 1.0
C      1  0.5311120000000  0.5163570000000  0.4755270000000 1.0
C      1  0.5825140000000  0.4559440000000  0.4843370000000 1.0
C      1  0.5105080000000  0.5679920000000  0.4202370000000 1.0
C      1  0.4798900000000  0.5117780000000  0.5187920000000 1.0
C      1  0.4484580000000  0.5635500000000  0.5266710000000 1.0
C      1  0.5085910000000  0.5850900000000  0.5112150000000 1.0
C      1  0.5502620000000  0.4786650000000  0.4580780000000 1.0
C      1  0.4770300000000  0.4122620000000  0.4951240000000 1.0
C      1  0.4951610000000  0.4530670000000  0.4793470000000 1.0
C      1  0.4569280000000  0.5088290000000  0.5621520000000 1.0
C      1  0.4286150000000  0.5418630000000  0.5273830000000 1.0
C      1  0.4977170000000  0.4849410000000  0.5803750000000 1.0
C      1  0.5103480000000  0.4690540000000  0.4351510000000 1.0
C      1  0.4670910000000  0.4408130000000  0.4845940000000 1.0
C      1  0.4588900000000  0.4194040000000  0.5162610000000 1.0
C      1  0.4788190000000  0.4978450000000  0.4603960000000 1.0
END
