TITL C-950535-5962-144 9.92685662145497e-07 125000 -547.98513270299 0 0 89 (C1) n - 1
REM
REM in /home/bkarasulu/work/CARBON/AIRSS/Generating-Clusters/EDIP-Nigel-Params/with-SteepDescent/Only-C1/SD-CG/HFTN-CG
REM
REM
REM
REM
REM
REM ./C.cell (11c1c37f851c82e70ff6c80c92926a4b)
REM
REM compiler GCC version 9.2.1 20190827 (Red Hat 9.2.1-1)
REM options -cpp -mtune=generic -march=x86-64 -g -O0 -fpre-include=/usr/include/finclude/math-vector-fortran.h
REM seed -1566934237 1868281521 1546654207 -1456365101 -1213319400 -1411375098 -1576187606 -581861305 -1559649360 -562021638 2075934459 1504547542 145758276 -1771953934 -1824317638 -864376105 1246988174 -903265221 1449691259 1496962466 -1314302960 1316728753 -1580432148 -437067058 -505543243 -1651083854 1369825363 -1189710018 -868225887 -467426174 -469201495 493031937 -1315888641
REM
CELL 1.54180   50.00000   50.00000   50.00000   90.00000   90.00000   90.00000
LATT -1
SFAC C  
C      1  0.4882530000000  0.4904350000000  0.4232460000000 1.0
C      1  0.5546220000000  0.4604620000000  0.4857040000000 1.0
C      1  0.5555670000000  0.4634030000000  0.5147340000000 1.0
C      1  0.4747640000000  0.4525410000000  0.5376920000000 1.0
C      1  0.4291530000000  0.5616650000000  0.5091220000000 1.0
C      1  0.5146770000000  0.4633210000000  0.5908740000000 1.0
C      1  0.4342400000000  0.4626410000000  0.4343400000000 1.0
C      1  0.5177520000000  0.4702870000000  0.5445500000000 1.0
C      1  0.5602780000000  0.4851250000000  0.4378890000000 1.0
C      1  0.4780700000000  0.4971200000000  0.5599660000000 1.0
C      1  0.5081580000000  0.5835900000000  0.4558650000000 1.0
C      1  0.5683180000000  0.5759850000000  0.4983740000000 1.0
C      1  0.5188030000000  0.5526860000000  0.5584400000000 1.0
C      1  0.4830460000000  0.4374570000000  0.5616640000000 1.0
C      1  0.4476630000000  0.4422050000000  0.4488250000000 1.0
C      1  0.4314780000000  0.5514130000000  0.4818270000000 1.0
C      1  0.5523330000000  0.5660720000000  0.5190180000000 1.0
C      1  0.5407330000000  0.4371190000000  0.4750210000000 1.0
C      1  0.4804560000000  0.4083910000000  0.5046880000000 1.0
C      1  0.4955500000000  0.5303660000000  0.4751970000000 1.0
C      1  0.4971820000000  0.4127720000000  0.4814060000000 1.0
C      1  0.5212210000000  0.4572790000000  0.4361290000000 1.0
C      1  0.4968730000000  0.5389040000000  0.4370170000000 1.0
C      1  0.4389190000000  0.4843260000000  0.5338300000000 1.0
C      1  0.5348190000000  0.4362100000000  0.4480500000000 1.0
C      1  0.4903290000000  0.4792380000000  0.5391180000000 1.0
C      1  0.4866880000000  0.5821030000000  0.4874100000000 1.0
C      1  0.4748900000000  0.5467580000000  0.5737830000000 1.0
C      1  0.5193300000000  0.5167940000000  0.5207320000000 1.0
C      1  0.4565200000000  0.4803610000000  0.4727550000000 1.0
C      1  0.4877920000000  0.4181560000000  0.4555000000000 1.0
C      1  0.4561800000000  0.5572860000000  0.4675640000000 1.0
C      1  0.5056640000000  0.4831950000000  0.4905010000000 1.0
C      1  0.4943660000000  0.4199510000000  0.5292940000000 1.0
C      1  0.5185010000000  0.5587670000000  0.4444210000000 1.0
C      1  0.5875900000000  0.4957650000000  0.4752480000000 1.0
C      1  0.5236370000000  0.5299590000000  0.4845520000000 1.0
C      1  0.5452410000000  0.5399060000000  0.5604910000000 1.0
C      1  0.4733020000000  0.5365330000000  0.4574830000000 1.0
C      1  0.5211620000000  0.4244350000000  0.4914770000000 1.0
C      1  0.5370190000000  0.5134200000000  0.5696850000000 1.0
C      1  0.5616520000000  0.4843090000000  0.4685220000000 1.0
C      1  0.5111800000000  0.5144040000000  0.5843880000000 1.0
C      1  0.4196950000000  0.5394680000000  0.5261120000000 1.0
C      1  0.5015350000000  0.5420940000000  0.5798830000000 1.0
C      1  0.5279080000000  0.5937040000000  0.4757370000000 1.0
C      1  0.5629150000000  0.5446540000000  0.5367550000000 1.0
C      1  0.4475360000000  0.5018950000000  0.4949110000000 1.0
C      1  0.5121660000000  0.5866330000000  0.4996940000000 1.0
C      1  0.5731670000000  0.5307720000000  0.5016670000000 1.0
C      1  0.5513870000000  0.5750200000000  0.4754640000000 1.0
C      1  0.5491700000000  0.4887720000000  0.5582230000000 1.0
C      1  0.4760550000000  0.4390350000000  0.4403680000000 1.0
C      1  0.5338050000000  0.5131880000000  0.4154170000000 1.0
C      1  0.4667860000000  0.5664820000000  0.5033770000000 1.0
C      1  0.5377650000000  0.4755500000000  0.4227890000000 1.0
C      1  0.4716360000000  0.5161010000000  0.5093830000000 1.0
C      1  0.4454940000000  0.4568640000000  0.5371640000000 1.0
C      1  0.5089530000000  0.5455340000000  0.5297150000000 1.0
C      1  0.5078040000000  0.5125150000000  0.4281160000000 1.0
C      1  0.4950880000000  0.4979410000000  0.5145660000000 1.0
C      1  0.5397420000000  0.5487640000000  0.4640310000000 1.0
C      1  0.5730810000000  0.5107620000000  0.5216540000000 1.0
C      1  0.5328320000000  0.4632850000000  0.5686240000000 1.0
C      1  0.4868540000000  0.4790790000000  0.4685320000000 1.0
C      1  0.4378450000000  0.4294130000000  0.4969340000000 1.0
C      1  0.5328620000000  0.4987580000000  0.4896480000000 1.0
C      1  0.5442460000000  0.4411800000000  0.5284570000000 1.0
C      1  0.4614990000000  0.5493560000000  0.5495550000000 1.0
C      1  0.5223490000000  0.4255110000000  0.5197390000000 1.0
C      1  0.4389470000000  0.5310560000000  0.5486100000000 1.0
C      1  0.4092160000000  0.5174730000000  0.5081830000000 1.0
C      1  0.4886310000000  0.4537220000000  0.5848750000000 1.0
C      1  0.5596460000000  0.5135170000000  0.4299250000000 1.0
C      1  0.5809690000000  0.5232010000000  0.4754000000000 1.0
C      1  0.4928970000000  0.4657040000000  0.4414340000000 1.0
C      1  0.4529230000000  0.4060060000000  0.4997790000000 1.0
C      1  0.4171800000000  0.4910640000000  0.5170920000000 1.0
C      1  0.4252180000000  0.5222910000000  0.4828460000000 1.0
C      1  0.4305770000000  0.4400310000000  0.5213150000000 1.0
C      1  0.4769570000000  0.5447520000000  0.5231570000000 1.0
C      1  0.4445600000000  0.4863070000000  0.4453470000000 1.0
C      1  0.5243490000000  0.5638450000000  0.5125110000000 1.0
C      1  0.4901590000000  0.4920240000000  0.5866140000000 1.0
C      1  0.5622960000000  0.5315550000000  0.4539420000000 1.0
C      1  0.4475780000000  0.4499190000000  0.4777420000000 1.0
C      1  0.4619410000000  0.4989510000000  0.4275220000000 1.0
C      1  0.5529230000000  0.4905370000000  0.5270360000000 1.0
C      1  0.4488860000000  0.5026010000000  0.5537630000000 1.0
END
