TITL C-951343-2256-490 -1.60909811793849e-06 125000 -523.047792445151 0 0 85 (C1) n - 1
REM
REM in /home/bkarasulu/work/CARBON/AIRSS/Generating-Clusters/EDIP-Nigel-Params/with-SteepDescent/Only-C1/SD-CG/HFTN-CG
REM
REM
REM
REM
REM
REM ./C.cell (11c1c37f851c82e70ff6c80c92926a4b)
REM
REM compiler GCC version 9.2.1 20190827 (Red Hat 9.2.1-1)
REM options -cpp -mtune=generic -march=x86-64 -g -O0 -fpre-include=/usr/include/finclude/math-vector-fortran.h
REM seed 737197124 -438421335 -470624436 681738136 371030489 1712971912 2069190052 191786126 -4620951 1701540690 -985725014 49737124 917088295 -1920446884 -1129009436 535160504 -378555084 1065169511 1507654918 333235706 1928568944 1527727174 -686576163 -1501195814 -628492308 537667859 -158414166 394654512 -2102697971 152132112 -365714316 951606789 -161892120
REM
CELL 1.54180   50.00000   50.00000   50.00000   90.00000   90.00000   90.00000
LATT -1
SFAC C  
C      1  0.5643370000000  0.4750710000000  0.4755290000000 1.0
C      1  0.4483970000000  0.4775400000000  0.4461460000000 1.0
C      1  0.5096530000000  0.4892680000000  0.4548970000000 1.0
C      1  0.4277210000000  0.5246090000000  0.5301830000000 1.0
C      1  0.5128930000000  0.4687580000000  0.5743500000000 1.0
C      1  0.4322590000000  0.4678830000000  0.4678830000000 1.0
C      1  0.4501300000000  0.5431020000000  0.4749630000000 1.0
C      1  0.5768940000000  0.4578520000000  0.5422150000000 1.0
C      1  0.4507190000000  0.5177530000000  0.5696400000000 1.0
C      1  0.5188970000000  0.5353850000000  0.4608720000000 1.0
C      1  0.4773050000000  0.5060460000000  0.5727230000000 1.0
C      1  0.5374730000000  0.4429100000000  0.4477280000000 1.0
C      1  0.5883920000000  0.5081590000000  0.4924550000000 1.0
C      1  0.5431980000000  0.5647390000000  0.5220160000000 1.0
C      1  0.5099120000000  0.5617540000000  0.4652390000000 1.0
C      1  0.5403990000000  0.4919990000000  0.5428480000000 1.0
C      1  0.4722150000000  0.5469570000000  0.4264070000000 1.0
C      1  0.5531050000000  0.4663060000000  0.4486470000000 1.0
C      1  0.4841110000000  0.4393060000000  0.5351000000000 1.0
C      1  0.4384180000000  0.5664830000000  0.4867860000000 1.0
C      1  0.5299060000000  0.5254660000000  0.4880600000000 1.0
C      1  0.4420190000000  0.4412400000000  0.4759550000000 1.0
C      1  0.5685890000000  0.5055700000000  0.5124180000000 1.0
C      1  0.4512720000000  0.5456820000000  0.5648610000000 1.0
C      1  0.4602120000000  0.5762430000000  0.5023620000000 1.0
C      1  0.4402180000000  0.4761870000000  0.5439280000000 1.0
C      1  0.5346840000000  0.5578920000000  0.5653330000000 1.0
C      1  0.5756030000000  0.5133200000000  0.4560970000000 1.0
C      1  0.4478900000000  0.4438210000000  0.5050870000000 1.0
C      1  0.4645810000000  0.4337720000000  0.4562770000000 1.0
C      1  0.4754340000000  0.5188400000000  0.4324120000000 1.0
C      1  0.4318100000000  0.5235660000000  0.4620430000000 1.0
C      1  0.4651510000000  0.4554030000000  0.4355670000000 1.0
C      1  0.4849370000000  0.5029230000000  0.4098330000000 1.0
C      1  0.4997690000000  0.5431230000000  0.5366860000000 1.0
C      1  0.4783360000000  0.5875970000000  0.4844870000000 1.0
C      1  0.4442670000000  0.5475680000000  0.5376020000000 1.0
C      1  0.5671810000000  0.5509580000000  0.5293540000000 1.0
C      1  0.4932250000000  0.4584840000000  0.4280750000000 1.0
C      1  0.5120820000000  0.4321800000000  0.5360390000000 1.0
C      1  0.5437310000000  0.5348450000000  0.5780260000000 1.0
C      1  0.4156230000000  0.5092070000000  0.4846900000000 1.0
C      1  0.4328270000000  0.5039510000000  0.5506100000000 1.0
C      1  0.4766720000000  0.4832130000000  0.5133150000000 1.0
C      1  0.5214470000000  0.5181580000000  0.5852630000000 1.0
C      1  0.4491300000000  0.5067860000000  0.4428810000000 1.0
C      1  0.5402790000000  0.4945190000000  0.4884750000000 1.0
C      1  0.5138380000000  0.4773100000000  0.4820830000000 1.0
C      1  0.5862630000000  0.4553640000000  0.5164830000000 1.0
C      1  0.5007890000000  0.4976380000000  0.5188570000000 1.0
C      1  0.5017840000000  0.5197030000000  0.5622020000000 1.0
C      1  0.4582900000000  0.4614210000000  0.5632840000000 1.0
C      1  0.5220360000000  0.4361880000000  0.5078470000000 1.0
C      1  0.5709360000000  0.5228550000000  0.5360420000000 1.0
C      1  0.5016110000000  0.4800420000000  0.4098100000000 1.0
C      1  0.4934370000000  0.4300460000000  0.4657800000000 1.0
C      1  0.5550690000000  0.5421320000000  0.4936620000000 1.0
C      1  0.4330440000000  0.4858700000000  0.4918120000000 1.0
C      1  0.4900550000000  0.5797860000000  0.4604600000000 1.0
C      1  0.4660370000000  0.4351800000000  0.5564290000000 1.0
C      1  0.5293650000000  0.4842880000000  0.4097410000000 1.0
C      1  0.4603700000000  0.4984640000000  0.4959200000000 1.0
C      1  0.5569110000000  0.5102180000000  0.5621690000000 1.0
C      1  0.4766230000000  0.4531350000000  0.5099470000000 1.0
C      1  0.5109900000000  0.4951250000000  0.5459310000000 1.0
C      1  0.5363680000000  0.4888820000000  0.4377540000000 1.0
C      1  0.5283220000000  0.4478180000000  0.5559270000000 1.0
C      1  0.5102060000000  0.4378360000000  0.4420380000000 1.0
C      1  0.4746390000000  0.5708690000000  0.4389360000000 1.0
C      1  0.5220020000000  0.5629800000000  0.5411200000000 1.0
C      1  0.4678510000000  0.5516240000000  0.5193020000000 1.0
C      1  0.4105330000000  0.5242580000000  0.5077770000000 1.0
C      1  0.5383030000000  0.5376620000000  0.4397180000000 1.0
C      1  0.5521790000000  0.5140320000000  0.4401070000000 1.0
C      1  0.5022790000000  0.5260080000000  0.5091970000000 1.0
C      1  0.5421780000000  0.4571750000000  0.5096020000000 1.0
C      1  0.4814750000000  0.4771950000000  0.5732060000000 1.0
C      1  0.5317940000000  0.4908530000000  0.5853970000000 1.0
C      1  0.5676210000000  0.4528280000000  0.4953640000000 1.0
C      1  0.4682540000000  0.5283050000000  0.4951260000000 1.0
C      1  0.5006680000000  0.4480120000000  0.4901220000000 1.0
C      1  0.4301160000000  0.4655860000000  0.5172410000000 1.0
C      1  0.4966640000000  0.5159730000000  0.4543130000000 1.0
C      1  0.5795870000000  0.5318800000000  0.4783080000000 1.0
C      1  0.5482090000000  0.4630650000000  0.5386250000000 1.0
END
