TITL C-951347-9520-88 1.7064640125084e-06 125000 -346.381538272931 0 0 58 (C1) n - 1
REM
REM in /home/bkarasulu/work/CARBON/AIRSS/Generating-Clusters/EDIP-Nigel-Params/with-SteepDescent/Only-C1/SD-CG/HFTN-CG
REM
REM
REM
REM
REM
REM ./C.cell (11c1c37f851c82e70ff6c80c92926a4b)
REM
REM compiler GCC version 9.2.1 20190827 (Red Hat 9.2.1-1)
REM options -cpp -mtune=generic -march=x86-64 -g -O0 -fpre-include=/usr/include/finclude/math-vector-fortran.h
REM seed 661916523 628057582 -2093549684 -661469616 856663983 -1883698204 1849875121 2001768555 -1080195261 -1638032390 -1112862277 1315881141 1361664943 -1008132017 -1935331141 -635540252 1120705507 -474817253 -982997772 89811487 -497571602 -1053131697 1322832158 -536872838 -1680221050 -852359909 -1405519900 713987977 -1951429079 1145549371 -1113718044 211163928 -1343833701
REM
CELL 1.54180   50.00000   50.00000   50.00000   90.00000   90.00000   90.00000
LATT -1
SFAC C  
C      1  0.4175080000000  0.5059060000000  0.5030970000000 1.0
C      1  0.5409380000000  0.5463510000000  0.5118210000000 1.0
C      1  0.4466080000000  0.5070440000000  0.4497080000000 1.0
C      1  0.5045520000000  0.5671150000000  0.4554770000000 1.0
C      1  0.5610930000000  0.5014590000000  0.5191640000000 1.0
C      1  0.5528200000000  0.4866120000000  0.4841860000000 1.0
C      1  0.4724680000000  0.4578870000000  0.4514700000000 1.0
C      1  0.4515840000000  0.5409280000000  0.5589380000000 1.0
C      1  0.4626050000000  0.4555740000000  0.4788840000000 1.0
C      1  0.5735570000000  0.4475980000000  0.4650040000000 1.0
C      1  0.5626740000000  0.4725060000000  0.4596160000000 1.0
C      1  0.5439850000000  0.4746580000000  0.4391310000000 1.0
C      1  0.5732040000000  0.4597300000000  0.5111180000000 1.0
C      1  0.5357280000000  0.5487100000000  0.5593610000000 1.0
C      1  0.5225760000000  0.4780110000000  0.4856830000000 1.0
C      1  0.5562070000000  0.5168740000000  0.4769420000000 1.0
C      1  0.5399180000000  0.5342330000000  0.4620530000000 1.0
C      1  0.5133830000000  0.5030480000000  0.5691570000000 1.0
C      1  0.4406680000000  0.4757540000000  0.5322130000000 1.0
C      1  0.4720870000000  0.4435580000000  0.5246530000000 1.0
C      1  0.4396760000000  0.5462080000000  0.5289770000000 1.0
C      1  0.4544210000000  0.5329390000000  0.4623720000000 1.0
C      1  0.5157330000000  0.4492690000000  0.4745070000000 1.0
C      1  0.4628880000000  0.5236670000000  0.4903930000000 1.0
C      1  0.5516290000000  0.5026820000000  0.5466590000000 1.0
C      1  0.5400960000000  0.5605850000000  0.5349680000000 1.0
C      1  0.5280530000000  0.5585300000000  0.4689110000000 1.0
C      1  0.5005840000000  0.4976420000000  0.4439150000000 1.0
C      1  0.5591570000000  0.5254550000000  0.5040710000000 1.0
C      1  0.4685440000000  0.4702340000000  0.5348530000000 1.0
C      1  0.4757810000000  0.4377320000000  0.4977950000000 1.0
C      1  0.4693690000000  0.5617130000000  0.5487620000000 1.0
C      1  0.4670730000000  0.5620370000000  0.5196260000000 1.0
C      1  0.4848920000000  0.4977600000000  0.5657430000000 1.0
C      1  0.5500110000000  0.4475370000000  0.5207510000000 1.0
C      1  0.4281390000000  0.4939900000000  0.4678720000000 1.0
C      1  0.4392580000000  0.4725160000000  0.4840930000000 1.0
C      1  0.4400260000000  0.5226860000000  0.5097860000000 1.0
C      1  0.5145820000000  0.4803530000000  0.5140120000000 1.0
C      1  0.5742340000000  0.4401180000000  0.4914470000000 1.0
C      1  0.5017070000000  0.4307200000000  0.4905480000000 1.0
C      1  0.5023920000000  0.4512700000000  0.4477340000000 1.0
C      1  0.4821600000000  0.5396150000000  0.5073660000000 1.0
C      1  0.5163310000000  0.4741910000000  0.4335060000000 1.0
C      1  0.4765420000000  0.4960860000000  0.4874300000000 1.0
C      1  0.4713750000000  0.4880640000000  0.4495870000000 1.0
C      1  0.4891790000000  0.5194710000000  0.5273000000000 1.0
C      1  0.4655450000000  0.5179070000000  0.5659370000000 1.0
C      1  0.5281000000000  0.4623980000000  0.5333310000000 1.0
C      1  0.4868430000000  0.4914390000000  0.5173840000000 1.0
C      1  0.4696060000000  0.5522380000000  0.4467970000000 1.0
C      1  0.4251370000000  0.4781140000000  0.5091800000000 1.0
C      1  0.5336570000000  0.5668280000000  0.4954680000000 1.0
C      1  0.4762980000000  0.4712700000000  0.5628920000000 1.0
C      1  0.5377380000000  0.4780760000000  0.5566740000000 1.0
C      1  0.5304370000000  0.5216530000000  0.5539420000000 1.0
C      1  0.5046880000000  0.4996080000000  0.4739930000000 1.0
C      1  0.4939540000000  0.5538450000000  0.4337420000000 1.0
END
