TITL C-950524-1808-345 4.22994618112121e-06 125000 -662.444665145372 0 0 106 (C1) n - 1
REM
REM in /home/bkarasulu/work/CARBON/AIRSS/Generating-Clusters/EDIP-Nigel-Params/with-SteepDescent/Only-C1/SD-CG/HFTN-CG
REM
REM
REM
REM
REM
REM ./C.cell (11c1c37f851c82e70ff6c80c92926a4b)
REM
REM compiler GCC version 9.2.1 20190827 (Red Hat 9.2.1-1)
REM options -cpp -mtune=generic -march=x86-64 -g -O0 -fpre-include=/usr/include/finclude/math-vector-fortran.h
REM seed -296109390 -638405260 -631204901 624709667 -683487990 -753484117 1217204914 -810901509 1439106639 -1242414948 -959834955 -1071288026 -2117370386 -526145978 961117332 -1466400638 1138622970 1627456836 903510488 -849520140 -539538848 -232583217 -520775944 -1344160603 -250923075 690266903 -1796899086 1376644302 -75482190 1154972158 -150724847 1394543949 870235118
REM
CELL 1.54180   50.00000   50.00000   50.00000   90.00000   90.00000   90.00000
LATT -1
SFAC C  
C      1  0.4191180000000  0.4926420000000  0.4512080000000 1.0
C      1  0.4580010000000  0.4667990000000  0.5348490000000 1.0
C      1  0.4728270000000  0.4641740000000  0.4777480000000 1.0
C      1  0.4576720000000  0.5730370000000  0.4892670000000 1.0
C      1  0.5499050000000  0.4721510000000  0.4763230000000 1.0
C      1  0.4714600000000  0.5760580000000  0.4443160000000 1.0
C      1  0.4874420000000  0.5781380000000  0.4909270000000 1.0
C      1  0.5215810000000  0.4676530000000  0.5862400000000 1.0
C      1  0.4322600000000  0.4686280000000  0.4418320000000 1.0
C      1  0.5177260000000  0.5436560000000  0.4483580000000 1.0
C      1  0.5108440000000  0.5193690000000  0.5392900000000 1.0
C      1  0.5480780000000  0.4779240000000  0.4204540000000 1.0
C      1  0.4473120000000  0.5553010000000  0.5286160000000 1.0
C      1  0.5717040000000  0.5330850000000  0.5388760000000 1.0
C      1  0.4315530000000  0.5124300000000  0.5191390000000 1.0
C      1  0.5263180000000  0.4458610000000  0.5432890000000 1.0
C      1  0.5606390000000  0.4478620000000  0.4626370000000 1.0
C      1  0.5002490000000  0.5354000000000  0.4258970000000 1.0
C      1  0.4326390000000  0.5477800000000  0.4556650000000 1.0
C      1  0.5407410000000  0.5774030000000  0.4703440000000 1.0
C      1  0.4564370000000  0.4222100000000  0.4925670000000 1.0
C      1  0.4898080000000  0.5379710000000  0.5789010000000 1.0
C      1  0.5019230000000  0.5070650000000  0.4183220000000 1.0
C      1  0.5471190000000  0.5377340000000  0.4431230000000 1.0
C      1  0.5320880000000  0.5542150000000  0.5558340000000 1.0
C      1  0.4318810000000  0.4391060000000  0.5002930000000 1.0
C      1  0.4840640000000  0.4703080000000  0.5236670000000 1.0
C      1  0.5602210000000  0.4288660000000  0.5128180000000 1.0
C      1  0.5159430000000  0.4410540000000  0.4413130000000 1.0
C      1  0.4806440000000  0.4684530000000  0.4221220000000 1.0
C      1  0.5244150000000  0.4910660000000  0.4090280000000 1.0
C      1  0.4941240000000  0.5857380000000  0.4617190000000 1.0
C      1  0.4762220000000  0.4273600000000  0.5408800000000 1.0
C      1  0.5311440000000  0.4666440000000  0.5165000000000 1.0
C      1  0.4736220000000  0.4906450000000  0.5689570000000 1.0
C      1  0.4540670000000  0.5085160000000  0.4463650000000 1.0
C      1  0.4405830000000  0.5263950000000  0.5655430000000 1.0
C      1  0.5426620000000  0.4530510000000  0.4372000000000 1.0
C      1  0.4617840000000  0.5440090000000  0.5755190000000 1.0
C      1  0.4375010000000  0.4667120000000  0.5124390000000 1.0
C      1  0.4303360000000  0.4511910000000  0.5614510000000 1.0
C      1  0.5358050000000  0.4205500000000  0.5286760000000 1.0
C      1  0.5427250000000  0.5042300000000  0.5661350000000 1.0
C      1  0.4733200000000  0.4694840000000  0.5873200000000 1.0
C      1  0.4738460000000  0.5497320000000  0.4291850000000 1.0
C      1  0.4957470000000  0.4540560000000  0.5807170000000 1.0
C      1  0.4886430000000  0.4528190000000  0.5014930000000 1.0
C      1  0.5000760000000  0.5926140000000  0.5203560000000 1.0
C      1  0.4946920000000  0.5404150000000  0.5246000000000 1.0
C      1  0.5689120000000  0.4956970000000  0.4281360000000 1.0
C      1  0.4488190000000  0.5486770000000  0.5009530000000 1.0
C      1  0.4747600000000  0.5558920000000  0.5415350000000 1.0
C      1  0.4603700000000  0.4388260000000  0.4664510000000 1.0
C      1  0.5042700000000  0.5520890000000  0.4974140000000 1.0
C      1  0.5203900000000  0.4982610000000  0.5130400000000 1.0
C      1  0.4182940000000  0.4853310000000  0.5270730000000 1.0
C      1  0.4972610000000  0.5105990000000  0.5680920000000 1.0
C      1  0.5747510000000  0.4799950000000  0.5372850000000 1.0
C      1  0.4475840000000  0.4980760000000  0.5566700000000 1.0
C      1  0.4486130000000  0.5344430000000  0.4336120000000 1.0
C      1  0.5203890000000  0.4981260000000  0.5828930000000 1.0
C      1  0.5333860000000  0.5659860000000  0.4976280000000 1.0
C      1  0.4570050000000  0.4820620000000  0.4305000000000 1.0
C      1  0.5492210000000  0.5306750000000  0.5575440000000 1.0
C      1  0.5638900000000  0.4600930000000  0.5165960000000 1.0
C      1  0.5367510000000  0.4951810000000  0.4641170000000 1.0
C      1  0.4490170000000  0.4324240000000  0.5508680000000 1.0
C      1  0.4878460000000  0.4854280000000  0.4622980000000 1.0
C      1  0.4879590000000  0.4973920000000  0.5170670000000 1.0
C      1  0.5752100000000  0.4713690000000  0.4905060000000 1.0
C      1  0.4982650000000  0.4418410000000  0.5542890000000 1.0
C      1  0.4884480000000  0.5824220000000  0.5455960000000 1.0
C      1  0.5575210000000  0.5478730000000  0.5052630000000 1.0
C      1  0.4910120000000  0.4429100000000  0.4266000000000 1.0
C      1  0.5591220000000  0.4807190000000  0.5618500000000 1.0
C      1  0.5698960000000  0.5627640000000  0.5284780000000 1.0
C      1  0.5427660000000  0.4565020000000  0.5673370000000 1.0
C      1  0.5130550000000  0.4843590000000  0.4456800000000 1.0
C      1  0.5756990000000  0.5458870000000  0.4812190000000 1.0
C      1  0.4262590000000  0.5002020000000  0.4778020000000 1.0
C      1  0.5093160000000  0.4276610000000  0.4658410000000 1.0
C      1  0.5589740000000  0.5113390000000  0.4506750000000 1.0
C      1  0.4220600000000  0.4785670000000  0.5570480000000 1.0
C      1  0.4645350000000  0.5078660000000  0.4994540000000 1.0
C      1  0.5057050000000  0.5305270000000  0.4751720000000 1.0
C      1  0.5797590000000  0.5180360000000  0.4726270000000 1.0
C      1  0.5546910000000  0.4228700000000  0.4831000000000 1.0
C      1  0.5070730000000  0.5605210000000  0.5696800000000 1.0
C      1  0.5612790000000  0.5590980000000  0.4587770000000 1.0
C      1  0.5299200000000  0.5880470000000  0.5179240000000 1.0
C      1  0.4819310000000  0.4243420000000  0.5108950000000 1.0
C      1  0.4473300000000  0.5735100000000  0.4615510000000 1.0
C      1  0.4735520000000  0.4278220000000  0.4428340000000 1.0
C      1  0.4293860000000  0.5314080000000  0.4835000000000 1.0
C      1  0.4782480000000  0.5129880000000  0.4708730000000 1.0
C      1  0.5186860000000  0.5737990000000  0.4515980000000 1.0
C      1  0.5456660000000  0.5761640000000  0.5411290000000 1.0
C      1  0.5161980000000  0.4519030000000  0.4952430000000 1.0
C      1  0.5252160000000  0.5111360000000  0.4860040000000 1.0
C      1  0.5815630000000  0.4999720000000  0.4957760000000 1.0
C      1  0.4489500000000  0.4826640000000  0.4899960000000 1.0
C      1  0.5267680000000  0.4112310000000  0.4819950000000 1.0
C      1  0.5790530000000  0.5063990000000  0.5244890000000 1.0
C      1  0.5146180000000  0.4103220000000  0.5093560000000 1.0
C      1  0.4303200000000  0.5345600000000  0.5391250000000 1.0
C      1  0.4329550000000  0.4475880000000  0.4626290000000 1.0
END
