TITL C-951334-9093-734 -1.89014236362871e-06 125000 -718.28240797361 0 0 116 (C1) n - 1
REM
REM in /home/bkarasulu/work/CARBON/AIRSS/Generating-Clusters/EDIP-Nigel-Params/with-SteepDescent/Only-C1/SD-CG/HFTN-CG
REM
REM
REM
REM
REM
REM ./C.cell (11c1c37f851c82e70ff6c80c92926a4b)
REM
REM compiler GCC version 9.2.1 20190827 (Red Hat 9.2.1-1)
REM options -cpp -mtune=generic -march=x86-64 -g -O0 -fpre-include=/usr/include/finclude/math-vector-fortran.h
REM seed 1250386074 -4950590 635660230 1369058038 -317410785 949673638 134017557 -1063927522 -1944584485 2122033421 1094861292 928969046 -2050042609 978555477 1325011416 1500476521 -1712441848 -2089733705 -1844889929 1463356380 877076273 -1826957635 -591841808 1182449748 -2030647957 -716407607 -749093214 436066081 408665485 850365365 221829533 -1008549882 1884253613
REM
CELL 1.54180   50.00000   50.00000   50.00000   90.00000   90.00000   90.00000
LATT -1
SFAC C  
C      1  0.5715530000000  0.4867660000000  0.4663470000000 1.0
C      1  0.5288420000000  0.5069140000000  0.4841220000000 1.0
C      1  0.5551010000000  0.4556310000000  0.4362180000000 1.0
C      1  0.4798210000000  0.5475250000000  0.4235810000000 1.0
C      1  0.5317680000000  0.5428800000000  0.5169790000000 1.0
C      1  0.4360940000000  0.4332060000000  0.5087050000000 1.0
C      1  0.4774110000000  0.4804510000000  0.5990680000000 1.0
C      1  0.4732910000000  0.4448530000000  0.5674660000000 1.0
C      1  0.4613440000000  0.4696440000000  0.5067200000000 1.0
C      1  0.4703450000000  0.4566900000000  0.4167970000000 1.0
C      1  0.4207780000000  0.5393630000000  0.5180840000000 1.0
C      1  0.4146260000000  0.5199540000000  0.4953660000000 1.0
C      1  0.5488230000000  0.4762090000000  0.5086890000000 1.0
C      1  0.4822230000000  0.5382220000000  0.4687670000000 1.0
C      1  0.4955140000000  0.5852020000000  0.4793230000000 1.0
C      1  0.4406430000000  0.5244600000000  0.4493630000000 1.0
C      1  0.4808750000000  0.4523200000000  0.5188780000000 1.0
C      1  0.4903710000000  0.4591750000000  0.5866740000000 1.0
C      1  0.4642580000000  0.5459420000000  0.5466760000000 1.0
C      1  0.4965870000000  0.5574620000000  0.4864250000000 1.0
C      1  0.5224250000000  0.4834260000000  0.5223220000000 1.0
C      1  0.4648800000000  0.5876920000000  0.4771040000000 1.0
C      1  0.4627830000000  0.4923010000000  0.5252300000000 1.0
C      1  0.5686530000000  0.4789490000000  0.5577750000000 1.0
C      1  0.5890420000000  0.4938410000000  0.5416200000000 1.0
C      1  0.4199760000000  0.4812210000000  0.5266140000000 1.0
C      1  0.4754150000000  0.5881080000000  0.5401020000000 1.0
C      1  0.5800860000000  0.5353420000000  0.5222270000000 1.0
C      1  0.5118280000000  0.4370850000000  0.4300230000000 1.0
C      1  0.4597010000000  0.4375890000000  0.4349420000000 1.0
C      1  0.5422940000000  0.5848990000000  0.5079370000000 1.0
C      1  0.5134040000000  0.4836390000000  0.4201690000000 1.0
C      1  0.5554430000000  0.5063350000000  0.4232690000000 1.0
C      1  0.5893620000000  0.4857470000000  0.4911440000000 1.0
C      1  0.5870430000000  0.4419440000000  0.4714880000000 1.0
C      1  0.5161290000000  0.4239600000000  0.5489660000000 1.0
C      1  0.4542820000000  0.5743130000000  0.4549080000000 1.0
C      1  0.5565040000000  0.5553450000000  0.5272550000000 1.0
C      1  0.4391860000000  0.4832380000000  0.5700600000000 1.0
C      1  0.4653690000000  0.4081460000000  0.5045010000000 1.0
C      1  0.5349200000000  0.5269180000000  0.4179480000000 1.0
C      1  0.4843200000000  0.5212050000000  0.4116370000000 1.0
C      1  0.5182790000000  0.4647180000000  0.5795160000000 1.0
C      1  0.4693100000000  0.4262260000000  0.5272940000000 1.0
C      1  0.5180150000000  0.5312580000000  0.5412760000000 1.0
C      1  0.4041200000000  0.4926010000000  0.5045800000000 1.0
C      1  0.5717480000000  0.5110200000000  0.4472140000000 1.0
C      1  0.4648810000000  0.5269200000000  0.4898000000000 1.0
C      1  0.4345740000000  0.4405010000000  0.4786580000000 1.0
C      1  0.4807300000000  0.5130480000000  0.5109510000000 1.0
C      1  0.4318080000000  0.5641210000000  0.5103370000000 1.0
C      1  0.4550560000000  0.4789530000000  0.4055560000000 1.0
C      1  0.5248320000000  0.5510780000000  0.4886570000000 1.0
C      1  0.4864980000000  0.5268570000000  0.5395620000000 1.0
C      1  0.5437920000000  0.4826710000000  0.4796480000000 1.0
C      1  0.5117660000000  0.4537380000000  0.5175720000000 1.0
C      1  0.4642730000000  0.5046400000000  0.4011450000000 1.0
C      1  0.4399840000000  0.5160970000000  0.4783190000000 1.0
C      1  0.4298130000000  0.5281450000000  0.5444960000000 1.0
C      1  0.5616770000000  0.4493220000000  0.5138660000000 1.0
C      1  0.4490620000000  0.4953100000000  0.4400700000000 1.0
C      1  0.5241220000000  0.4169220000000  0.5218900000000 1.0
C      1  0.5102190000000  0.5116060000000  0.5957150000000 1.0
C      1  0.5783880000000  0.4613940000000  0.4529380000000 1.0
C      1  0.5890430000000  0.5238640000000  0.5499990000000 1.0
C      1  0.4170930000000  0.4608400000000  0.4668780000000 1.0
C      1  0.4643900000000  0.4969110000000  0.5789730000000 1.0
C      1  0.4291460000000  0.4530680000000  0.5322050000000 1.0
C      1  0.5305750000000  0.5298450000000  0.4686520000000 1.0
C      1  0.5659420000000  0.5274250000000  0.5683890000000 1.0
C      1  0.5570430000000  0.4539460000000  0.5461400000000 1.0
C      1  0.4758960000000  0.4162100000000  0.4789400000000 1.0
C      1  0.4994700000000  0.5544350000000  0.5720770000000 1.0
C      1  0.5066820000000  0.5247510000000  0.4501610000000 1.0
C      1  0.5134640000000  0.5932600000000  0.5063870000000 1.0
C      1  0.5009920000000  0.5953380000000  0.5325180000000 1.0
C      1  0.5021790000000  0.4499810000000  0.4873170000000 1.0
C      1  0.5778680000000  0.5018930000000  0.5139020000000 1.0
C      1  0.4860790000000  0.5793540000000  0.5645110000000 1.0
C      1  0.4559320000000  0.4295220000000  0.4618100000000 1.0
C      1  0.4276370000000  0.4765390000000  0.4462510000000 1.0
C      1  0.5114270000000  0.5116790000000  0.4081740000000 1.0
C      1  0.4791920000000  0.4979100000000  0.5526580000000 1.0
C      1  0.4856580000000  0.4218920000000  0.5530660000000 1.0
C      1  0.5488700000000  0.5005400000000  0.5662140000000 1.0
C      1  0.5288140000000  0.5037170000000  0.5447660000000 1.0
C      1  0.3999680000000  0.4742430000000  0.4839420000000 1.0
C      1  0.4255850000000  0.4986800000000  0.5487920000000 1.0
C      1  0.5580450000000  0.5353480000000  0.4569570000000 1.0
C      1  0.5290910000000  0.4916200000000  0.5875170000000 1.0
C      1  0.4739610000000  0.4862460000000  0.4550550000000 1.0
C      1  0.5313430000000  0.4438410000000  0.4503290000000 1.0
C      1  0.4451210000000  0.4554590000000  0.5592630000000 1.0
C      1  0.5045690000000  0.5591940000000  0.4321750000000 1.0
C      1  0.4620160000000  0.5475070000000  0.4476570000000 1.0
C      1  0.5031890000000  0.4909500000000  0.4487660000000 1.0
C      1  0.5048030000000  0.4130750000000  0.4752530000000 1.0
C      1  0.5400290000000  0.5761400000000  0.4550180000000 1.0
C      1  0.4493680000000  0.5816060000000  0.4995600000000 1.0
C      1  0.5870500000000  0.4556900000000  0.4962890000000 1.0
C      1  0.4994440000000  0.4571470000000  0.4147790000000 1.0
C      1  0.5327340000000  0.4225820000000  0.4736790000000 1.0
C      1  0.5516620000000  0.5782790000000  0.4815870000000 1.0
C      1  0.5198890000000  0.4670260000000  0.4666200000000 1.0
C      1  0.4919490000000  0.5333970000000  0.5916810000000 1.0
C      1  0.5110490000000  0.5804470000000  0.4515010000000 1.0
C      1  0.5275930000000  0.5561850000000  0.5698340000000 1.0
C      1  0.4634450000000  0.5254700000000  0.5899610000000 1.0
C      1  0.5430070000000  0.4272590000000  0.5024160000000 1.0
C      1  0.5299870000000  0.4486550000000  0.5576250000000 1.0
C      1  0.5532320000000  0.5524080000000  0.5579470000000 1.0
C      1  0.5516700000000  0.5556410000000  0.4371840000000 1.0
C      1  0.4502760000000  0.5439770000000  0.5718340000000 1.0
C      1  0.5432980000000  0.4796100000000  0.4225690000000 1.0
C      1  0.5075510000000  0.5006980000000  0.5027170000000 1.0
C      1  0.4694210000000  0.4774440000000  0.4809590000000 1.0
END
