TITL C-950530-3293-259 -7.4584299460473e-06 125000 -677.539933626387 0 0 110 (C1) n - 1
REM
REM in /home/bkarasulu/work/CARBON/AIRSS/Generating-Clusters/EDIP-Nigel-Params/with-SteepDescent/Only-C1/SD-CG/HFTN-CG
REM
REM
REM
REM
REM
REM ./C.cell (11c1c37f851c82e70ff6c80c92926a4b)
REM
REM compiler GCC version 9.2.1 20190827 (Red Hat 9.2.1-1)
REM options -cpp -mtune=generic -march=x86-64 -g -O0 -fpre-include=/usr/include/finclude/math-vector-fortran.h
REM seed -63748411 1492925226 -436849767 -959456862 -1325379338 -974886061 -1142177516 -1414679764 -842586591 528333081 204979929 882272907 -584724053 -1870318874 1302399953 1297184647 1253011141 -1813192439 6538088 1932551333 1932741554 8359475 -2096540262 -1712067899 1583212237 -833790710 -2005714405 -1724387172 1578883838 -524356757 -572456914 920624353 813939137
REM
CELL 1.54180   50.00000   50.00000   50.00000   90.00000   90.00000   90.00000
LATT -1
SFAC C  
C      1  0.4866090000000  0.4311350000000  0.5071080000000 1.0
C      1  0.5632310000000  0.5701410000000  0.4668360000000 1.0
C      1  0.5224840000000  0.5295960000000  0.4478090000000 1.0
C      1  0.5740960000000  0.5437250000000  0.5365450000000 1.0
C      1  0.4407840000000  0.4247190000000  0.4838990000000 1.0
C      1  0.4905480000000  0.5241540000000  0.4072780000000 1.0
C      1  0.4256290000000  0.5391480000000  0.4919550000000 1.0
C      1  0.4758830000000  0.4534880000000  0.5824630000000 1.0
C      1  0.5223650000000  0.5272730000000  0.5354890000000 1.0
C      1  0.5068980000000  0.4976470000000  0.4561160000000 1.0
C      1  0.5520730000000  0.4998620000000  0.5538440000000 1.0
C      1  0.5277940000000  0.4954930000000  0.5320150000000 1.0
C      1  0.5337100000000  0.4931390000000  0.4999480000000 1.0
C      1  0.4331660000000  0.4427250000000  0.5056060000000 1.0
C      1  0.4739880000000  0.5329220000000  0.5085330000000 1.0
C      1  0.4470210000000  0.5382030000000  0.4341530000000 1.0
C      1  0.4342540000000  0.4495400000000  0.5561660000000 1.0
C      1  0.4472560000000  0.5230430000000  0.5676190000000 1.0
C      1  0.4309450000000  0.5250740000000  0.5419470000000 1.0
C      1  0.5709960000000  0.5731270000000  0.4954840000000 1.0
C      1  0.4428730000000  0.5442870000000  0.5146100000000 1.0
C      1  0.4578620000000  0.4914980000000  0.4231200000000 1.0
C      1  0.5718310000000  0.4747310000000  0.4718880000000 1.0
C      1  0.5139230000000  0.4193420000000  0.5394580000000 1.0
C      1  0.5051370000000  0.5902470000000  0.5283310000000 1.0
C      1  0.4858070000000  0.4811050000000  0.5016100000000 1.0
C      1  0.4807880000000  0.4120580000000  0.4611790000000 1.0
C      1  0.5268030000000  0.4877990000000  0.4010690000000 1.0
C      1  0.4754510000000  0.5616010000000  0.5586340000000 1.0
C      1  0.4318560000000  0.4900920000000  0.5063890000000 1.0
C      1  0.4689550000000  0.4153510000000  0.4876960000000 1.0
C      1  0.5269460000000  0.4648090000000  0.4885970000000 1.0
C      1  0.5373040000000  0.4308020000000  0.5512510000000 1.0
C      1  0.4571300000000  0.4961540000000  0.4710470000000 1.0
C      1  0.5247140000000  0.4377930000000  0.4292230000000 1.0
C      1  0.5741650000000  0.4759060000000  0.5011610000000 1.0
C      1  0.4246500000000  0.4966640000000  0.5343000000000 1.0
C      1  0.4944480000000  0.5740460000000  0.4852460000000 1.0
C      1  0.4998090000000  0.4565660000000  0.4970410000000 1.0
C      1  0.4994190000000  0.5039450000000  0.4848200000000 1.0
C      1  0.5254830000000  0.4211850000000  0.4899630000000 1.0
C      1  0.5440550000000  0.4820420000000  0.4220020000000 1.0
C      1  0.4557430000000  0.5729610000000  0.5127550000000 1.0
C      1  0.4498920000000  0.4667140000000  0.5012400000000 1.0
C      1  0.4767560000000  0.4821160000000  0.5853710000000 1.0
C      1  0.4747730000000  0.5307470000000  0.5605640000000 1.0
C      1  0.5810050000000  0.5025480000000  0.5117610000000 1.0
C      1  0.4527710000000  0.5666460000000  0.4601220000000 1.0
C      1  0.4671590000000  0.5709120000000  0.4360600000000 1.0
C      1  0.5058300000000  0.5979270000000  0.4993010000000 1.0
C      1  0.4552900000000  0.4354820000000  0.5724260000000 1.0
C      1  0.4498080000000  0.4940650000000  0.5754080000000 1.0
C      1  0.5095210000000  0.4220750000000  0.4610590000000 1.0
C      1  0.4693410000000  0.4411060000000  0.5305160000000 1.0
C      1  0.5060680000000  0.4896260000000  0.5810400000000 1.0
C      1  0.5247060000000  0.4671060000000  0.5741790000000 1.0
C      1  0.4741940000000  0.5189010000000  0.4821690000000 1.0
C      1  0.4152530000000  0.4921750000000  0.4824370000000 1.0
C      1  0.5607300000000  0.5028310000000  0.4345760000000 1.0
C      1  0.4963520000000  0.5592940000000  0.5782490000000 1.0
C      1  0.4465020000000  0.4402790000000  0.4582850000000 1.0
C      1  0.4945380000000  0.4094950000000  0.5571550000000 1.0
C      1  0.4162300000000  0.5202240000000  0.4731760000000 1.0
C      1  0.5647860000000  0.5470650000000  0.5082660000000 1.0
C      1  0.5235450000000  0.4713200000000  0.4594060000000 1.0
C      1  0.5434550000000  0.5193730000000  0.5766630000000 1.0
C      1  0.5340640000000  0.5748570000000  0.5279720000000 1.0
C      1  0.5541060000000  0.4722100000000  0.5654420000000 1.0
C      1  0.4959640000000  0.5677950000000  0.4350160000000 1.0
C      1  0.5507900000000  0.5300210000000  0.4374540000000 1.0
C      1  0.5317380000000  0.5409170000000  0.5603230000000 1.0
C      1  0.5060900000000  0.4503540000000  0.4481280000000 1.0
C      1  0.5496040000000  0.4538740000000  0.4293470000000 1.0
C      1  0.5678560000000  0.5421130000000  0.4579590000000 1.0
C      1  0.4684700000000  0.4180440000000  0.5515450000000 1.0
C      1  0.5487420000000  0.5122870000000  0.4762870000000 1.0
C      1  0.5046280000000  0.5021620000000  0.3971860000000 1.0
C      1  0.4795830000000  0.5739710000000  0.5323760000000 1.0
C      1  0.4383280000000  0.4786980000000  0.5533790000000 1.0
C      1  0.5584500000000  0.4540860000000  0.4571940000000 1.0
C      1  0.5187120000000  0.5130290000000  0.5922090000000 1.0
C      1  0.4314210000000  0.4330550000000  0.5323290000000 1.0
C      1  0.4647810000000  0.5774710000000  0.4840890000000 1.0
C      1  0.5158800000000  0.4628480000000  0.5452680000000 1.0
C      1  0.5760880000000  0.5125940000000  0.5396420000000 1.0
C      1  0.4842730000000  0.4887540000000  0.5294600000000 1.0
C      1  0.4623510000000  0.4221110000000  0.4416610000000 1.0
C      1  0.4848420000000  0.4642000000000  0.5466910000000 1.0
C      1  0.4798020000000  0.5171660000000  0.5334030000000 1.0
C      1  0.4307910000000  0.4917180000000  0.4359550000000 1.0
C      1  0.4627100000000  0.5198400000000  0.4159790000000 1.0
C      1  0.5739810000000  0.5238870000000  0.4918080000000 1.0
C      1  0.5506030000000  0.4351150000000  0.4961280000000 1.0
C      1  0.5152540000000  0.4069580000000  0.5134400000000 1.0
C      1  0.5068160000000  0.5423210000000  0.4238860000000 1.0
C      1  0.5518430000000  0.5910110000000  0.5089610000000 1.0
C      1  0.5265180000000  0.5470910000000  0.5138990000000 1.0
C      1  0.5521910000000  0.5603060000000  0.5509150000000 1.0
C      1  0.4774400000000  0.4844630000000  0.4464220000000 1.0
C      1  0.4268820000000  0.4741750000000  0.4598210000000 1.0
C      1  0.4283090000000  0.5189870000000  0.4465440000000 1.0
C      1  0.4993830000000  0.5500330000000  0.5010130000000 1.0
C      1  0.5363900000000  0.5832180000000  0.4636520000000 1.0
C      1  0.5579940000000  0.4501760000000  0.5444940000000 1.0
C      1  0.5332790000000  0.6010450000000  0.4880770000000 1.0
C      1  0.5017510000000  0.5358970000000  0.5924630000000 1.0
C      1  0.4675240000000  0.4605980000000  0.4676010000000 1.0
C      1  0.5783610000000  0.4972710000000  0.4565270000000 1.0
C      1  0.5600670000000  0.4549170000000  0.5152070000000 1.0
C      1  0.5119680000000  0.5651850000000  0.4612180000000 1.0
END
