TITL C-951346-9544-162 -1.40362866919901e-06 125000 -1019.47965790967 0 0 159 (C1) n - 1
REM
REM in /home/bkarasulu/work/CARBON/AIRSS/Generating-Clusters/EDIP-Nigel-Params/with-SteepDescent/Only-C1/SD-CG/HFTN-CG
REM
REM
REM
REM
REM
REM ./C.cell (11c1c37f851c82e70ff6c80c92926a4b)
REM
REM compiler GCC version 9.2.1 20190827 (Red Hat 9.2.1-1)
REM options -cpp -mtune=generic -march=x86-64 -g -O0 -fpre-include=/usr/include/finclude/math-vector-fortran.h
REM seed -1044347583 -1028782966 1371454767 -1052401950 6053378 656769760 1853568601 -1926033342 -33489874 1517681041 -435825719 203509696 -1563259867 -906027063 -1843555856 1697207665 -435224450 215016139 949811613 -1495232381 -1228489402 -1561568929 1756635704 -477477147 -1811851394 -1502759687 1849223923 187486694 -880533273 -568500908 -313377478 2019875499 787126258
REM
CELL 1.54180   50.00000   50.00000   50.00000   90.00000   90.00000   90.00000
LATT -1
SFAC C  
C      1  0.4585710000000  0.5239520000000  0.4111580000000 1.0
C      1  0.5377960000000  0.4428110000000  0.5032180000000 1.0
C      1  0.4588930000000  0.5143260000000  0.4674090000000 1.0
C      1  0.4731660000000  0.6194460000000  0.4617570000000 1.0
C      1  0.5049380000000  0.5128280000000  0.6014830000000 1.0
C      1  0.4608310000000  0.5592300000000  0.4943260000000 1.0
C      1  0.5913720000000  0.5243760000000  0.5304370000000 1.0
C      1  0.4090890000000  0.5275950000000  0.4916780000000 1.0
C      1  0.4827880000000  0.3810600000000  0.4850520000000 1.0
C      1  0.4564950000000  0.5194880000000  0.5368620000000 1.0
C      1  0.4304920000000  0.4317790000000  0.4817030000000 1.0
C      1  0.4380020000000  0.4708100000000  0.4196260000000 1.0
C      1  0.4102790000000  0.4710590000000  0.4588150000000 1.0
C      1  0.5341850000000  0.4568350000000  0.5767990000000 1.0
C      1  0.5525380000000  0.4355380000000  0.4348390000000 1.0
C      1  0.4334640000000  0.5065660000000  0.5796580000000 1.0
C      1  0.4183590000000  0.5407230000000  0.5144220000000 1.0
C      1  0.4853270000000  0.5926150000000  0.4659870000000 1.0
C      1  0.4212520000000  0.4883420000000  0.4373440000000 1.0
C      1  0.4910540000000  0.6380640000000  0.4723210000000 1.0
C      1  0.4726130000000  0.4969760000000  0.5276420000000 1.0
C      1  0.5542850000000  0.4940710000000  0.5903980000000 1.0
C      1  0.4061600000000  0.4683740000000  0.5615290000000 1.0
C      1  0.4823540000000  0.5036080000000  0.4496410000000 1.0
C      1  0.5556380000000  0.4650560000000  0.4299060000000 1.0
C      1  0.5554960000000  0.4827780000000  0.5295920000000 1.0
C      1  0.5972570000000  0.5444560000000  0.4877860000000 1.0
C      1  0.4602870000000  0.5609110000000  0.5708280000000 1.0
C      1  0.5246020000000  0.4274650000000  0.4261990000000 1.0
C      1  0.4716060000000  0.4501180000000  0.5327100000000 1.0
C      1  0.4921090000000  0.4323740000000  0.5184390000000 1.0
C      1  0.4855100000000  0.4746690000000  0.5456230000000 1.0
C      1  0.5533750000000  0.4942980000000  0.3970640000000 1.0
C      1  0.4456690000000  0.6187800000000  0.4688820000000 1.0
C      1  0.5402360000000  0.4710700000000  0.4054990000000 1.0
C      1  0.5419160000000  0.4822440000000  0.4524290000000 1.0
C      1  0.4716000000000  0.5323530000000  0.4874310000000 1.0
C      1  0.5132410000000  0.4546050000000  0.4213510000000 1.0
C      1  0.5894460000000  0.5501810000000  0.5151180000000 1.0
C      1  0.4316030000000  0.4781530000000  0.5713350000000 1.0
C      1  0.4994980000000  0.5394860000000  0.5494110000000 1.0
C      1  0.5106450000000  0.5518960000000  0.5751150000000 1.0
C      1  0.5946750000000  0.5144290000000  0.4855350000000 1.0
C      1  0.5085680000000  0.4095950000000  0.4440730000000 1.0
C      1  0.5015080000000  0.5094190000000  0.4040250000000 1.0
C      1  0.5369820000000  0.5393110000000  0.5796360000000 1.0
C      1  0.4662240000000  0.5420760000000  0.5959110000000 1.0
C      1  0.5555480000000  0.5117330000000  0.5193610000000 1.0
C      1  0.5033200000000  0.5824310000000  0.4193720000000 1.0
C      1  0.5091070000000  0.5816770000000  0.5658250000000 1.0
C      1  0.4060070000000  0.5384670000000  0.4445500000000 1.0
C      1  0.4671280000000  0.4340340000000  0.4306750000000 1.0
C      1  0.4463930000000  0.4923530000000  0.4827530000000 1.0
C      1  0.5176530000000  0.4884170000000  0.4987940000000 1.0
C      1  0.5425240000000  0.4719990000000  0.5024690000000 1.0
C      1  0.5546780000000  0.5417500000000  0.5582440000000 1.0
C      1  0.4831020000000  0.4524840000000  0.4144760000000 1.0
C      1  0.5923730000000  0.4781790000000  0.5608460000000 1.0
C      1  0.4019800000000  0.4997020000000  0.5005160000000 1.0
C      1  0.4718350000000  0.3858830000000  0.5109070000000 1.0
C      1  0.5462140000000  0.5303550000000  0.4752280000000 1.0
C      1  0.6001490000000  0.4982200000000  0.5156380000000 1.0
C      1  0.4986560000000  0.5370420000000  0.4792410000000 1.0
C      1  0.5355860000000  0.4775870000000  0.5536290000000 1.0
C      1  0.5261820000000  0.5146530000000  0.5114920000000 1.0
C      1  0.5166790000000  0.4626780000000  0.4522590000000 1.0
C      1  0.5850470000000  0.4741630000000  0.5327420000000 1.0
C      1  0.5357920000000  0.5738860000000  0.4534290000000 1.0
C      1  0.4447070000000  0.3937360000000  0.5092750000000 1.0
C      1  0.5060290000000  0.5572880000000  0.5247390000000 1.0
C      1  0.5487590000000  0.4033210000000  0.4733840000000 1.0
C      1  0.4537390000000  0.4363540000000  0.5526320000000 1.0
C      1  0.4881150000000  0.4028820000000  0.5299030000000 1.0
C      1  0.4668830000000  0.5881550000000  0.5350510000000 1.0
C      1  0.4940770000000  0.4428230000000  0.4904970000000 1.0
C      1  0.4222530000000  0.4439250000000  0.4560560000000 1.0
C      1  0.4381590000000  0.5788660000000  0.5345790000000 1.0
C      1  0.5374370000000  0.3900000000000  0.5177760000000 1.0
C      1  0.5764800000000  0.5234380000000  0.5560410000000 1.0
C      1  0.4581960000000  0.5134230000000  0.5929590000000 1.0
C      1  0.5600680000000  0.4270030000000  0.4615200000000 1.0
C      1  0.4716590000000  0.5349150000000  0.5573510000000 1.0
C      1  0.4947400000000  0.5919780000000  0.4940200000000 1.0
C      1  0.4270140000000  0.4498280000000  0.5061620000000 1.0
C      1  0.5144630000000  0.6353550000000  0.4858860000000 1.0
C      1  0.5514330000000  0.5653080000000  0.5429090000000 1.0
C      1  0.5198590000000  0.4369440000000  0.4762870000000 1.0
C      1  0.5753840000000  0.4983520000000  0.5702770000000 1.0
C      1  0.5141530000000  0.5342400000000  0.4067770000000 1.0
C      1  0.4108060000000  0.5142850000000  0.4333290000000 1.0
C      1  0.5195170000000  0.5412310000000  0.5000790000000 1.0
C      1  0.5033630000000  0.4499970000000  0.5833550000000 1.0
C      1  0.4369280000000  0.5919750000000  0.4657460000000 1.0
C      1  0.4675030000000  0.5492740000000  0.4184650000000 1.0
C      1  0.4955220000000  0.5558580000000  0.4143010000000 1.0
C      1  0.5508120000000  0.5594130000000  0.4319720000000 1.0
C      1  0.4771590000000  0.5033380000000  0.4181460000000 1.0
C      1  0.4530630000000  0.4580590000000  0.5748540000000 1.0
C      1  0.4090860000000  0.4985130000000  0.5292440000000 1.0
C      1  0.4910740000000  0.4769210000000  0.4596770000000 1.0
C      1  0.5188850000000  0.4404380000000  0.5289120000000 1.0
C      1  0.4955740000000  0.5416330000000  0.5999540000000 1.0
C      1  0.3908970000000  0.4872790000000  0.5477180000000 1.0
C      1  0.4795740000000  0.4129580000000  0.4463130000000 1.0
C      1  0.5824350000000  0.5205540000000  0.4356470000000 1.0
C      1  0.5111980000000  0.6134110000000  0.5034540000000 1.0
C      1  0.5319670000000  0.5127260000000  0.5891600000000 1.0
C      1  0.4671900000000  0.3981730000000  0.4685370000000 1.0
C      1  0.4056810000000  0.4424020000000  0.5514710000000 1.0
C      1  0.5572940000000  0.4013220000000  0.5017950000000 1.0
C      1  0.5082670000000  0.5834580000000  0.4467230000000 1.0
C      1  0.4327630000000  0.5647030000000  0.5076710000000 1.0
C      1  0.4319430000000  0.5632410000000  0.5612760000000 1.0
C      1  0.5670270000000  0.4308430000000  0.5054180000000 1.0
C      1  0.4605100000000  0.5743720000000  0.4663410000000 1.0
C      1  0.5646330000000  0.5102240000000  0.4890760000000 1.0
C      1  0.5713790000000  0.4324830000000  0.5527600000000 1.0
C      1  0.5485990000000  0.4680290000000  0.5995680000000 1.0
C      1  0.4810540000000  0.4700920000000  0.5763710000000 1.0
C      1  0.5330360000000  0.6021140000000  0.5198170000000 1.0
C      1  0.5664440000000  0.5680830000000  0.5191880000000 1.0
C      1  0.4581350000000  0.5587260000000  0.4426100000000 1.0
C      1  0.4996140000000  0.4230410000000  0.5706580000000 1.0
C      1  0.4395090000000  0.4439960000000  0.4319550000000 1.0
C      1  0.4174980000000  0.5757580000000  0.4822930000000 1.0
C      1  0.5774400000000  0.5495540000000  0.4421260000000 1.0
C      1  0.4920450000000  0.4734290000000  0.4887680000000 1.0
C      1  0.4819030000000  0.5735780000000  0.5129810000000 1.0
C      1  0.5048780000000  0.5209130000000  0.4566240000000 1.0
C      1  0.5331190000000  0.5167290000000  0.4501820000000 1.0
C      1  0.5553650000000  0.5904250000000  0.5042910000000 1.0
C      1  0.4545390000000  0.4595340000000  0.5117730000000 1.0
C      1  0.5178560000000  0.3938760000000  0.5368630000000 1.0
C      1  0.5809560000000  0.4384890000000  0.4787300000000 1.0
C      1  0.5499610000000  0.5633670000000  0.4784630000000 1.0
C      1  0.5851200000000  0.4672670000000  0.4751640000000 1.0
C      1  0.4785480000000  0.5853520000000  0.5627960000000 1.0
C      1  0.4659950000000  0.4765380000000  0.4101240000000 1.0
C      1  0.5617760000000  0.5163940000000  0.4123480000000 1.0
C      1  0.5136230000000  0.4684310000000  0.5378130000000 1.0
C      1  0.5392820000000  0.5326290000000  0.4236200000000 1.0
C      1  0.4186030000000  0.4787650000000  0.4867310000000 1.0
C      1  0.5236270000000  0.4198130000000  0.5522720000000 1.0
C      1  0.4069680000000  0.5483910000000  0.4708420000000 1.0
C      1  0.4259410000000  0.5228140000000  0.5357700000000 1.0
C      1  0.5212380000000  0.3994960000000  0.4677600000000 1.0
C      1  0.4268820000000  0.4343720000000  0.5354370000000 1.0
C      1  0.4431440000000  0.4055850000000  0.4835660000000 1.0
C      1  0.5791240000000  0.5593990000000  0.4696400000000 1.0
C      1  0.5590580000000  0.4815260000000  0.4787230000000 1.0
C      1  0.4193420000000  0.5353370000000  0.5617910000000 1.0
C      1  0.4662910000000  0.4832170000000  0.5018280000000 1.0
C      1  0.5985270000000  0.5050030000000  0.4562900000000 1.0
C      1  0.4740820000000  0.4128970000000  0.5569920000000 1.0
C      1  0.5248800000000  0.5786410000000  0.5386860000000 1.0
C      1  0.5816860000000  0.4431780000000  0.5294320000000 1.0
C      1  0.6011420000000  0.4770430000000  0.4539930000000 1.0
C      1  0.4817660000000  0.4964170000000  0.5919780000000 1.0
C      1  0.5478040000000  0.4306540000000  0.5672260000000 1.0
END
