TITL C-950521-2237-164 6.60839464749211e-08 125000 -43.1195884900508 0 0 8 (C1) n - 1
REM
REM in /home/bkarasulu/work/CARBON/AIRSS/Generating-Clusters/EDIP-Nigel-Params/with-SteepDescent/Only-C1/SD-CG/HFTN-CG
REM
REM
REM
REM
REM
REM ./C.cell (11c1c37f851c82e70ff6c80c92926a4b)
REM
REM compiler GCC version 9.2.1 20190827 (Red Hat 9.2.1-1)
REM options -cpp -mtune=generic -march=x86-64 -g -O0 -fpre-include=/usr/include/finclude/math-vector-fortran.h
REM seed -1387310873 414021046 -822452466 -1004114688 362106520 126860055 -1741394413 386369735 1673165963 -454618952 -474541649 1986060114 1403079133 -299314540 -1253464508 -1056751778 -1285794570 -877065742 -1308630692 -386395854 -78915334 1832261156 1324356520 156473468 -903780124 1817888265 -67123896 141468701 -1065566467 -627106516 262051837 1128918417 45319907
REM
CELL 1.54180   50.00000   50.00000   50.00000   90.00000   90.00000   90.00000
LATT -1
SFAC C  
C      1  0.5203120000000  0.4911810000000  0.4795610000000 1.0
C      1  0.4779590000000  0.5118210000000  0.4857110000000 1.0
C      1  0.5063780000000  0.5152240000000  0.4766140000000 1.0
C      1  0.5069310000000  0.5317860000000  0.5017670000000 1.0
C      1  0.5171940000000  0.4744360000000  0.5015520000000 1.0
C      1  0.4939570000000  0.4916300000000  0.5268800000000 1.0
C      1  0.4927400000000  0.4676310000000  0.5129000000000 1.0
C      1  0.4845280000000  0.5162920000000  0.5150150000000 1.0
END
