TITL C-950530-3293-519 8.07830029971638e-09 125000 -629.295643337656 0 0 103 (C1) n - 1
REM
REM in /home/bkarasulu/work/CARBON/AIRSS/Generating-Clusters/EDIP-Nigel-Params/with-SteepDescent/Only-C1/SD-CG/HFTN-CG
REM
REM
REM
REM
REM
REM ./C.cell (11c1c37f851c82e70ff6c80c92926a4b)
REM
REM compiler GCC version 9.2.1 20190827 (Red Hat 9.2.1-1)
REM options -cpp -mtune=generic -march=x86-64 -g -O0 -fpre-include=/usr/include/finclude/math-vector-fortran.h
REM seed 477238313 283125648 355580432 739603590 449708121 -1063208075 750509108 404468105 -1453008765 415577715 1346793714 -1372622252 420151967 795784957 108338874 -1248743210 -1688142724 -460133145 -1077827482 -543432653 76910814 637677721 451265337 1821644847 1958969130 -1499463996 -449447052 -1027596431 -292553409 258189407 2027865966 -1871084173 -1500358009
REM
CELL 1.54180   50.00000   50.00000   50.00000   90.00000   90.00000   90.00000
LATT -1
SFAC C  
C      1  0.4973920000000  0.5098740000000  0.4060200000000 1.0
C      1  0.5132320000000  0.5263860000000  0.4371100000000 1.0
C      1  0.5207770000000  0.5587390000000  0.5159050000000 1.0
C      1  0.5101450000000  0.4334040000000  0.4675760000000 1.0
C      1  0.4930800000000  0.5230210000000  0.4588040000000 1.0
C      1  0.4432960000000  0.5577180000000  0.4476110000000 1.0
C      1  0.5141120000000  0.4874100000000  0.4159260000000 1.0
C      1  0.5043430000000  0.5120000000000  0.5528330000000 1.0
C      1  0.4462080000000  0.4876500000000  0.5544480000000 1.0
C      1  0.5502960000000  0.4529870000000  0.5496740000000 1.0
C      1  0.4560910000000  0.4677930000000  0.5722960000000 1.0
C      1  0.5626620000000  0.5296420000000  0.5058280000000 1.0
C      1  0.4188030000000  0.5378740000000  0.4865890000000 1.0
C      1  0.4371900000000  0.5661270000000  0.5062900000000 1.0
C      1  0.4132240000000  0.5224620000000  0.5315740000000 1.0
C      1  0.5227400000000  0.5356120000000  0.4955940000000 1.0
C      1  0.4573150000000  0.5889500000000  0.5131360000000 1.0
C      1  0.4886140000000  0.5345820000000  0.5660960000000 1.0
C      1  0.4489520000000  0.5154710000000  0.5628350000000 1.0
C      1  0.5333110000000  0.5216680000000  0.5510620000000 1.0
C      1  0.4594310000000  0.5221620000000  0.5890250000000 1.0
C      1  0.5698260000000  0.4730660000000  0.5419380000000 1.0
C      1  0.4821380000000  0.4402580000000  0.5825320000000 1.0
C      1  0.5469730000000  0.5157010000000  0.4698910000000 1.0
C      1  0.4827620000000  0.5576400000000  0.4158420000000 1.0
C      1  0.5347400000000  0.4336940000000  0.4513900000000 1.0
C      1  0.4325470000000  0.5347750000000  0.5478860000000 1.0
C      1  0.5135380000000  0.5087590000000  0.5051460000000 1.0
C      1  0.5038750000000  0.4603560000000  0.4234280000000 1.0
C      1  0.4440590000000  0.4394650000000  0.4491580000000 1.0
C      1  0.4688230000000  0.5255250000000  0.5157850000000 1.0
C      1  0.5012760000000  0.4060710000000  0.4796720000000 1.0
C      1  0.5407880000000  0.5650190000000  0.4611110000000 1.0
C      1  0.5012820000000  0.5445080000000  0.4763880000000 1.0
C      1  0.5514470000000  0.5099320000000  0.5274810000000 1.0
C      1  0.4634480000000  0.5829480000000  0.5425560000000 1.0
C      1  0.5884200000000  0.5179570000000  0.4958460000000 1.0
C      1  0.5100090000000  0.4339360000000  0.5749630000000 1.0
C      1  0.4545210000000  0.4603190000000  0.4302630000000 1.0
C      1  0.4721430000000  0.4114500000000  0.4858920000000 1.0
C      1  0.4382080000000  0.4851890000000  0.4330610000000 1.0
C      1  0.4909790000000  0.4654970000000  0.4953240000000 1.0
C      1  0.5024660000000  0.5385180000000  0.4111110000000 1.0
C      1  0.5370660000000  0.4908050000000  0.4344110000000 1.0
C      1  0.5421290000000  0.5366040000000  0.4483420000000 1.0
C      1  0.4968000000000  0.4118570000000  0.5280350000000 1.0
C      1  0.5060590000000  0.5599080000000  0.5657120000000 1.0
C      1  0.5168350000000  0.4495470000000  0.4923100000000 1.0
C      1  0.4832300000000  0.4593080000000  0.4464700000000 1.0
C      1  0.5832470000000  0.4777430000000  0.4701960000000 1.0
C      1  0.5618510000000  0.5315790000000  0.4274790000000 1.0
C      1  0.5031950000000  0.5891230000000  0.4836820000000 1.0
C      1  0.4289510000000  0.4473600000000  0.4949560000000 1.0
C      1  0.5794840000000  0.4611470000000  0.4932400000000 1.0
C      1  0.4669220000000  0.4277110000000  0.4620380000000 1.0
C      1  0.4656790000000  0.5680230000000  0.4340540000000 1.0
C      1  0.4371850000000  0.4540110000000  0.5203640000000 1.0
C      1  0.5539050000000  0.4528060000000  0.4650870000000 1.0
C      1  0.4521990000000  0.5109890000000  0.4293850000000 1.0
C      1  0.5105170000000  0.4344320000000  0.5436280000000 1.0
C      1  0.4920510000000  0.5066280000000  0.5247790000000 1.0
C      1  0.5516960000000  0.5759680000000  0.4887000000000 1.0
C      1  0.4416210000000  0.5527610000000  0.4768770000000 1.0
C      1  0.5368820000000  0.4712760000000  0.4848140000000 1.0
C      1  0.5265800000000  0.4848540000000  0.5799580000000 1.0
C      1  0.4530790000000  0.4334140000000  0.5337850000000 1.0
C      1  0.4352260000000  0.5341400000000  0.4333760000000 1.0
C      1  0.4627090000000  0.5199490000000  0.4574960000000 1.0
C      1  0.5110940000000  0.5694230000000  0.4621740000000 1.0
C      1  0.4725970000000  0.4210610000000  0.5146420000000 1.0
C      1  0.4213390000000  0.5164620000000  0.5054160000000 1.0
C      1  0.5237290000000  0.4920680000000  0.4652590000000 1.0
C      1  0.4489650000000  0.5048460000000  0.5048490000000 1.0
C      1  0.4572060000000  0.4959940000000  0.4751930000000 1.0
C      1  0.4800820000000  0.5758430000000  0.4992170000000 1.0
C      1  0.5706060000000  0.4961900000000  0.5582710000000 1.0
C      1  0.5156340000000  0.4037190000000  0.5064270000000 1.0
C      1  0.5472940000000  0.4294990000000  0.5339080000000 1.0
C      1  0.5510990000000  0.5667520000000  0.5380650000000 1.0
C      1  0.5342740000000  0.4266910000000  0.5079480000000 1.0
C      1  0.5267130000000  0.5857290000000  0.5020560000000 1.0
C      1  0.4694310000000  0.4476600000000  0.5574270000000 1.0
C      1  0.5868840000000  0.4735560000000  0.5179990000000 1.0
C      1  0.5465350000000  0.5055740000000  0.5717940000000 1.0
C      1  0.4273000000000  0.4545950000000  0.4682150000000 1.0
C      1  0.5250750000000  0.4419440000000  0.4266710000000 1.0
C      1  0.4824650000000  0.4771540000000  0.5217420000000 1.0
C      1  0.4514250000000  0.4803050000000  0.5253430000000 1.0
C      1  0.5332370000000  0.4561560000000  0.5740750000000 1.0
C      1  0.5646530000000  0.5591270000000  0.5122580000000 1.0
C      1  0.4922110000000  0.5611780000000  0.5231970000000 1.0
C      1  0.5351220000000  0.4900270000000  0.5107030000000 1.0
C      1  0.4880590000000  0.5191280000000  0.5932120000000 1.0
C      1  0.5992130000000  0.4981920000000  0.5127310000000 1.0
C      1  0.5770540000000  0.5062900000000  0.4712600000000 1.0
C      1  0.4928750000000  0.5798310000000  0.5475820000000 1.0
C      1  0.4924090000000  0.4597490000000  0.5432830000000 1.0
C      1  0.4869850000000  0.4808640000000  0.4698830000000 1.0
C      1  0.5342390000000  0.5510860000000  0.5565180000000 1.0
C      1  0.4518320000000  0.5483720000000  0.5294010000000 1.0
C      1  0.5592440000000  0.5047480000000  0.4227520000000 1.0
C      1  0.4330600000000  0.4829260000000  0.4620550000000 1.0
C      1  0.4994770000000  0.4932040000000  0.5864040000000 1.0
END
