TITL C-951336-9012-287 -6.55925530221211e-06 125000 -1149.59368328401 0 0 183 (C1) n - 1
REM
REM in /home/bkarasulu/work/CARBON/AIRSS/Generating-Clusters/EDIP-Nigel-Params/with-SteepDescent/Only-C1/SD-CG/HFTN-CG
REM
REM
REM
REM
REM
REM ./C.cell (11c1c37f851c82e70ff6c80c92926a4b)
REM
REM compiler GCC version 9.2.1 20190827 (Red Hat 9.2.1-1)
REM options -cpp -mtune=generic -march=x86-64 -g -O0 -fpre-include=/usr/include/finclude/math-vector-fortran.h
REM seed -905198900 -1287335306 1837268085 2112803906 1701806268 -443042279 -1407231967 -1192629032 -1215331940 -2025576057 276026171 -1989671004 1207339574 -283797798 -1450619340 -406635360 -208533257 -1995241211 980036716 506466488 -1642910167 1520841384 -388206459 1664924656 425017705 -1201652974 216188466 604199681 -790193581 646335467 -130924370 -2032363368 994736858
REM
CELL 1.54180   50.00000   50.00000   50.00000   90.00000   90.00000   90.00000
LATT -1
SFAC C  
C      1  0.4434320000000  0.5870490000000  0.4691740000000 1.0
C      1  0.4669790000000  0.5868400000000  0.5735570000000 1.0
C      1  0.5198070000000  0.5362290000000  0.4772480000000 1.0
C      1  0.4677680000000  0.4460090000000  0.5151690000000 1.0
C      1  0.5345380000000  0.5373510000000  0.5885420000000 1.0
C      1  0.5295350000000  0.5288410000000  0.4357980000000 1.0
C      1  0.5791410000000  0.4874610000000  0.5850350000000 1.0
C      1  0.5220530000000  0.4116960000000  0.5409170000000 1.0
C      1  0.5233270000000  0.4401240000000  0.4723990000000 1.0
C      1  0.3868660000000  0.5172680000000  0.5308730000000 1.0
C      1  0.5776720000000  0.5466830000000  0.5588460000000 1.0
C      1  0.5531100000000  0.4538880000000  0.4017480000000 1.0
C      1  0.5305310000000  0.5842220000000  0.5762010000000 1.0
C      1  0.3963850000000  0.5574800000000  0.5063410000000 1.0
C      1  0.5237070000000  0.4184450000000  0.5920540000000 1.0
C      1  0.4808610000000  0.4001460000000  0.5253590000000 1.0
C      1  0.4237460000000  0.4433360000000  0.5095590000000 1.0
C      1  0.6030040000000  0.5429660000000  0.5145620000000 1.0
C      1  0.5728000000000  0.4175980000000  0.4679450000000 1.0
C      1  0.4867250000000  0.4408470000000  0.4373640000000 1.0
C      1  0.5368260000000  0.5113960000000  0.6037570000000 1.0
C      1  0.4563380000000  0.5138100000000  0.4483480000000 1.0
C      1  0.3962430000000  0.4830650000000  0.4997330000000 1.0
C      1  0.4938160000000  0.5282250000000  0.3817310000000 1.0
C      1  0.5284370000000  0.6028510000000  0.5533220000000 1.0
C      1  0.4174320000000  0.4653950000000  0.4916550000000 1.0
C      1  0.3982680000000  0.5348780000000  0.4512360000000 1.0
C      1  0.5549710000000  0.4463600000000  0.5565470000000 1.0
C      1  0.5865980000000  0.5611310000000  0.5332820000000 1.0
C      1  0.4952110000000  0.5934930000000  0.4548150000000 1.0
C      1  0.4446320000000  0.5664440000000  0.5704630000000 1.0
C      1  0.5642390000000  0.4758730000000  0.5013260000000 1.0
C      1  0.4572560000000  0.4692460000000  0.4630670000000 1.0
C      1  0.4779330000000  0.5350930000000  0.4430540000000 1.0
C      1  0.4673230000000  0.5216570000000  0.5544180000000 1.0
C      1  0.5266000000000  0.4092920000000  0.4848100000000 1.0
C      1  0.4677540000000  0.3742310000000  0.4862670000000 1.0
C      1  0.4127600000000  0.4866350000000  0.4442170000000 1.0
C      1  0.5353150000000  0.5149760000000  0.4090460000000 1.0
C      1  0.4676020000000  0.5488140000000  0.4177470000000 1.0
C      1  0.4381600000000  0.3977430000000  0.5137180000000 1.0
C      1  0.4626230000000  0.5204040000000  0.5983640000000 1.0
C      1  0.5298890000000  0.4585410000000  0.5695260000000 1.0
C      1  0.5965270000000  0.5074830000000  0.4778930000000 1.0
C      1  0.5159470000000  0.4631070000000  0.5182490000000 1.0
C      1  0.5734140000000  0.5333360000000  0.4388990000000 1.0
C      1  0.5642060000000  0.5854940000000  0.4989370000000 1.0
C      1  0.4522450000000  0.5535210000000  0.5272620000000 1.0
C      1  0.4719030000000  0.6071820000000  0.5010090000000 1.0
C      1  0.5166120000000  0.5379370000000  0.5316190000000 1.0
C      1  0.4341780000000  0.5333620000000  0.4917230000000 1.0
C      1  0.4784530000000  0.4530430000000  0.4126190000000 1.0
C      1  0.6086530000000  0.5184050000000  0.5308970000000 1.0
C      1  0.4475900000000  0.5341180000000  0.5757580000000 1.0
C      1  0.4163850000000  0.5361000000000  0.4274520000000 1.0
C      1  0.4471630000000  0.4255100000000  0.5020410000000 1.0
C      1  0.4865170000000  0.5716120000000  0.4113480000000 1.0
C      1  0.4732550000000  0.4434980000000  0.4635560000000 1.0
C      1  0.3938770000000  0.5070680000000  0.4587480000000 1.0
C      1  0.3840660000000  0.5303240000000  0.5037530000000 1.0
C      1  0.4494130000000  0.5058080000000  0.5333760000000 1.0
C      1  0.5017410000000  0.4602120000000  0.3954650000000 1.0
C      1  0.5861680000000  0.5066910000000  0.4512030000000 1.0
C      1  0.5363930000000  0.5606770000000  0.5370330000000 1.0
C      1  0.5247510000000  0.4859450000000  0.4099230000000 1.0
C      1  0.5152030000000  0.5627690000000  0.4048730000000 1.0
C      1  0.5213680000000  0.4464000000000  0.5934610000000 1.0
C      1  0.4933680000000  0.5000100000000  0.5259170000000 1.0
C      1  0.5096560000000  0.4020850000000  0.5157500000000 1.0
C      1  0.4379310000000  0.4081290000000  0.5569550000000 1.0
C      1  0.4807250000000  0.5497810000000  0.4933940000000 1.0
C      1  0.4527120000000  0.5570040000000  0.4994080000000 1.0
C      1  0.5856020000000  0.4608450000000  0.5885600000000 1.0
C      1  0.4161860000000  0.4788100000000  0.5446040000000 1.0
C      1  0.5633650000000  0.4213040000000  0.5141430000000 1.0
C      1  0.4922720000000  0.4925940000000  0.5567750000000 1.0
C      1  0.4927230000000  0.5705870000000  0.5496220000000 1.0
C      1  0.5208240000000  0.3961250000000  0.4579750000000 1.0
C      1  0.5612560000000  0.5642050000000  0.4278990000000 1.0
C      1  0.5488050000000  0.5579860000000  0.5689640000000 1.0
C      1  0.5409630000000  0.5040150000000  0.5603210000000 1.0
C      1  0.5166370000000  0.6160470000000  0.4953220000000 1.0
C      1  0.4803950000000  0.6153770000000  0.5277110000000 1.0
C      1  0.5680710000000  0.4681000000000  0.5386620000000 1.0
C      1  0.4613380000000  0.4471730000000  0.5431580000000 1.0
C      1  0.5215600000000  0.4185170000000  0.4138340000000 1.0
C      1  0.4955420000000  0.4461750000000  0.5085970000000 1.0
C      1  0.4622430000000  0.3815850000000  0.5125250000000 1.0
C      1  0.5224170000000  0.5812820000000  0.4526520000000 1.0
C      1  0.4988080000000  0.4922760000000  0.4498340000000 1.0
C      1  0.5222450000000  0.4758240000000  0.4382650000000 1.0
C      1  0.5460620000000  0.5148690000000  0.4679330000000 1.0
C      1  0.5333610000000  0.5158540000000  0.5362720000000 1.0
C      1  0.5689330000000  0.4932540000000  0.5576260000000 1.0
C      1  0.4270170000000  0.4674830000000  0.4638730000000 1.0
C      1  0.5940960000000  0.4568110000000  0.5278210000000 1.0
C      1  0.5023410000000  0.5193990000000  0.4404200000000 1.0
C      1  0.4700510000000  0.3942120000000  0.4670350000000 1.0
C      1  0.4246050000000  0.5175270000000  0.5193290000000 1.0
C      1  0.3954710000000  0.5086400000000  0.4873130000000 1.0
C      1  0.4657870000000  0.4166400000000  0.5489820000000 1.0
C      1  0.4950430000000  0.4601070000000  0.5970190000000 1.0
C      1  0.5155540000000  0.4896010000000  0.5054130000000 1.0
C      1  0.4127330000000  0.5495230000000  0.4734640000000 1.0
C      1  0.4722190000000  0.4383120000000  0.5914330000000 1.0
C      1  0.5189530000000  0.5361520000000  0.3907710000000 1.0
C      1  0.4786740000000  0.5451380000000  0.5376680000000 1.0
C      1  0.5313080000000  0.5601120000000  0.4299310000000 1.0
C      1  0.4967930000000  0.4480220000000  0.4811880000000 1.0
C      1  0.5491620000000  0.5024930000000  0.4976620000000 1.0
C      1  0.5941470000000  0.4345940000000  0.4800480000000 1.0
C      1  0.5741660000000  0.4393640000000  0.5771140000000 1.0
C      1  0.4699210000000  0.4868960000000  0.4395360000000 1.0
C      1  0.5767090000000  0.5460710000000  0.4688410000000 1.0
C      1  0.4524730000000  0.4952820000000  0.6054690000000 1.0
C      1  0.4258860000000  0.4336960000000  0.5660040000000 1.0
C      1  0.4407230000000  0.4784120000000  0.5865950000000 1.0
C      1  0.4057480000000  0.5617190000000  0.5354010000000 1.0
C      1  0.5096600000000  0.4116630000000  0.5685000000000 1.0
C      1  0.5600790000000  0.4242630000000  0.4422400000000 1.0
C      1  0.4205510000000  0.4914140000000  0.5703760000000 1.0
C      1  0.4432140000000  0.4487020000000  0.5863230000000 1.0
C      1  0.4231600000000  0.3953650000000  0.5372560000000 1.0
C      1  0.4684190000000  0.6063430000000  0.5519050000000 1.0
C      1  0.4099020000000  0.5326160000000  0.5435660000000 1.0
C      1  0.5694170000000  0.4430210000000  0.4223240000000 1.0
C      1  0.5729960000000  0.4831610000000  0.4160370000000 1.0
C      1  0.4281460000000  0.4694540000000  0.4129040000000 1.0
C      1  0.4635850000000  0.5002330000000  0.4041110000000 1.0
C      1  0.5021920000000  0.5712980000000  0.5794460000000 1.0
C      1  0.4813350000000  0.4159990000000  0.5730800000000 1.0
C      1  0.5612200000000  0.5621360000000  0.5180000000000 1.0
C      1  0.5980940000000  0.4609810000000  0.4680950000000 1.0
C      1  0.5886930000000  0.4344610000000  0.5097850000000 1.0
C      1  0.5488780000000  0.4223480000000  0.5393180000000 1.0
C      1  0.5605190000000  0.5695510000000  0.4741250000000 1.0
C      1  0.5199500000000  0.4869870000000  0.5704050000000 1.0
C      1  0.4924970000000  0.6096750000000  0.4802360000000 1.0
C      1  0.4966280000000  0.4922880000000  0.4802380000000 1.0
C      1  0.4516530000000  0.5136210000000  0.4769480000000 1.0
C      1  0.4205960000000  0.5213340000000  0.5701370000000 1.0
C      1  0.5065970000000  0.5437520000000  0.5897770000000 1.0
C      1  0.5556440000000  0.4072380000000  0.4901190000000 1.0
C      1  0.5098400000000  0.4961540000000  0.5988000000000 1.0
C      1  0.4572680000000  0.4203450000000  0.4731540000000 1.0
C      1  0.4368100000000  0.5575490000000  0.4289510000000 1.0
C      1  0.5026360000000  0.5320560000000  0.5041460000000 1.0
C      1  0.5884820000000  0.5318620000000  0.4907120000000 1.0
C      1  0.4302290000000  0.5103120000000  0.4323790000000 1.0
C      1  0.4767790000000  0.4665850000000  0.5645350000000 1.0
C      1  0.5371130000000  0.4076530000000  0.4356090000000 1.0
C      1  0.5426880000000  0.6046560000000  0.4537700000000 1.0
C      1  0.4672170000000  0.4901660000000  0.5168090000000 1.0
C      1  0.4858880000000  0.5518610000000  0.4656590000000 1.0
C      1  0.5663870000000  0.5863690000000  0.4479190000000 1.0
C      1  0.6182280000000  0.4965100000000  0.5149970000000 1.0
C      1  0.4271380000000  0.4512820000000  0.5399270000000 1.0
C      1  0.5305130000000  0.5638810000000  0.4756410000000 1.0
C      1  0.4474790000000  0.5938150000000  0.4952310000000 1.0
C      1  0.4670470000000  0.4900900000000  0.4868430000000 1.0
C      1  0.5452820000000  0.4620160000000  0.4797610000000 1.0
C      1  0.4358970000000  0.4963260000000  0.4078970000000 1.0
C      1  0.4508460000000  0.4545210000000  0.4072240000000 1.0
C      1  0.5616250000000  0.4983570000000  0.6035120000000 1.0
C      1  0.4340950000000  0.5700890000000  0.5424300000000 1.0
C      1  0.6176560000000  0.4711750000000  0.5250980000000 1.0
C      1  0.5467640000000  0.4823940000000  0.4573110000000 1.0
C      1  0.5097350000000  0.6201800000000  0.5245030000000 1.0
C      1  0.4701930000000  0.5270910000000  0.3963470000000 1.0
C      1  0.5165420000000  0.5829630000000  0.5345050000000 1.0
C      1  0.5574140000000  0.5233290000000  0.5208200000000 1.0
C      1  0.4833820000000  0.5931930000000  0.4293330000000 1.0
C      1  0.5261580000000  0.4430200000000  0.3987830000000 1.0
C      1  0.4936430000000  0.3932720000000  0.4522340000000 1.0
C      1  0.4908460000000  0.5193480000000  0.5918380000000 1.0
C      1  0.3941550000000  0.4883450000000  0.5280390000000 1.0
C      1  0.5935530000000  0.4805030000000  0.4904010000000 1.0
C      1  0.5753490000000  0.4799750000000  0.4457020000000 1.0
C      1  0.4298530000000  0.5672050000000  0.4562930000000 1.0
C      1  0.5651490000000  0.5126500000000  0.4127020000000 1.0
C      1  0.5799990000000  0.5184270000000  0.5434460000000 1.0
C      1  0.5427630000000  0.6117520000000  0.4827910000000 1.0
C      1  0.5159120000000  0.4451630000000  0.4414520000000 1.0
END
