TITL C-950521-2237-227 -8.35484387871898e-07 125000 -508.425380298132 0 0 83 (C1) n - 1
REM
REM in /home/bkarasulu/work/CARBON/AIRSS/Generating-Clusters/EDIP-Nigel-Params/with-SteepDescent/Only-C1/SD-CG/HFTN-CG
REM
REM
REM
REM
REM
REM ./C.cell (11c1c37f851c82e70ff6c80c92926a4b)
REM
REM compiler GCC version 9.2.1 20190827 (Red Hat 9.2.1-1)
REM options -cpp -mtune=generic -march=x86-64 -g -O0 -fpre-include=/usr/include/finclude/math-vector-fortran.h
REM seed -2032500850 -380222398 426170484 840721254 1786275625 -1946913134 461372529 2057436615 836935900 -127519115 1298016088 -429280393 312855134 -1731099591 729118143 -1847956132 -1094079207 -443507044 55724905 -2029820986 877913625 -232506299 -1302940622 -560676672 1598125610 1185703753 584182521 503934980 266102926 -1219239990 -1335513787 1972771810 1827455980
REM
CELL 1.54180   50.00000   50.00000   50.00000   90.00000   90.00000   90.00000
LATT -1
SFAC C  
C      1  0.4653330000000  0.4504050000000  0.5501200000000 1.0
C      1  0.4659220000000  0.5221580000000  0.4570270000000 1.0
C      1  0.4499350000000  0.4257880000000  0.5044890000000 1.0
C      1  0.5135750000000  0.5276590000000  0.4702660000000 1.0
C      1  0.4644570000000  0.4727120000000  0.4447420000000 1.0
C      1  0.4326580000000  0.5007900000000  0.5044390000000 1.0
C      1  0.5678000000000  0.4780770000000  0.4680040000000 1.0
C      1  0.4802420000000  0.5255160000000  0.5764370000000 1.0
C      1  0.4653420000000  0.5774410000000  0.5048980000000 1.0
C      1  0.5274560000000  0.4999410000000  0.4174590000000 1.0
C      1  0.5206580000000  0.4412190000000  0.4713580000000 1.0
C      1  0.5223030000000  0.4193250000000  0.5233730000000 1.0
C      1  0.5176370000000  0.5704690000000  0.4527120000000 1.0
C      1  0.4644080000000  0.5679210000000  0.4565320000000 1.0
C      1  0.4892470000000  0.5115230000000  0.4737820000000 1.0
C      1  0.4818960000000  0.4815270000000  0.5823060000000 1.0
C      1  0.5471040000000  0.4800350000000  0.4286790000000 1.0
C      1  0.4436800000000  0.5434110000000  0.4905510000000 1.0
C      1  0.5226220000000  0.5867650000000  0.5013980000000 1.0
C      1  0.5181750000000  0.4714740000000  0.4778430000000 1.0
C      1  0.4449990000000  0.4935550000000  0.5534010000000 1.0
C      1  0.4779040000000  0.5795760000000  0.4793760000000 1.0
C      1  0.5100690000000  0.5926530000000  0.5260600000000 1.0
C      1  0.5427410000000  0.4395620000000  0.5165410000000 1.0
C      1  0.5001260000000  0.4185830000000  0.5030770000000 1.0
C      1  0.5061330000000  0.4681170000000  0.5039690000000 1.0
C      1  0.4731100000000  0.4098260000000  0.5096800000000 1.0
C      1  0.5116750000000  0.5429460000000  0.4446720000000 1.0
C      1  0.5415030000000  0.5155690000000  0.4720270000000 1.0
C      1  0.4798220000000  0.5095720000000  0.5018240000000 1.0
C      1  0.4489280000000  0.4434630000000  0.4816190000000 1.0
C      1  0.4728920000000  0.5779940000000  0.5529090000000 1.0
C      1  0.4944770000000  0.4546060000000  0.5440870000000 1.0
C      1  0.5476150000000  0.5718830000000  0.5056310000000 1.0
C      1  0.4877880000000  0.4464140000000  0.5024410000000 1.0
C      1  0.5540390000000  0.5261770000000  0.5178760000000 1.0
C      1  0.4571870000000  0.4591640000000  0.5222840000000 1.0
C      1  0.5586450000000  0.5321920000000  0.4892570000000 1.0
C      1  0.5456890000000  0.4366880000000  0.4547240000000 1.0
C      1  0.4426770000000  0.5082210000000  0.4217470000000 1.0
C      1  0.4796130000000  0.5057080000000  0.5963230000000 1.0
C      1  0.4639830000000  0.5644640000000  0.5301390000000 1.0
C      1  0.4362610000000  0.4814310000000  0.5268260000000 1.0
C      1  0.4703020000000  0.4508900000000  0.4626340000000 1.0
C      1  0.5372630000000  0.4525190000000  0.4317740000000 1.0
C      1  0.4527270000000  0.5226180000000  0.5074500000000 1.0
C      1  0.5089320000000  0.4484200000000  0.4323380000000 1.0
C      1  0.4273170000000  0.4609780000000  0.4794560000000 1.0
C      1  0.4298990000000  0.4887820000000  0.4766090000000 1.0
C      1  0.5591450000000  0.5597590000000  0.4828660000000 1.0
C      1  0.5279000000000  0.4670250000000  0.5779370000000 1.0
C      1  0.5454360000000  0.4902650000000  0.5732500000000 1.0
C      1  0.5365070000000  0.4424040000000  0.5634680000000 1.0
C      1  0.5445030000000  0.5521970000000  0.5270110000000 1.0
C      1  0.4807000000000  0.5407930000000  0.4347080000000 1.0
C      1  0.4965570000000  0.4857990000000  0.4594960000000 1.0
C      1  0.5737020000000  0.4605220000000  0.4878510000000 1.0
C      1  0.5326240000000  0.5301450000000  0.4264060000000 1.0
C      1  0.5558270000000  0.4830320000000  0.5451520000000 1.0
C      1  0.5445080000000  0.5604960000000  0.5539270000000 1.0
C      1  0.5297760000000  0.5142890000000  0.5759450000000 1.0
C      1  0.4552190000000  0.5369380000000  0.5328690000000 1.0
C      1  0.5006670000000  0.5799880000000  0.5494400000000 1.0
C      1  0.5068280000000  0.5793120000000  0.4774590000000 1.0
C      1  0.4949720000000  0.4364430000000  0.4544070000000 1.0
C      1  0.5122460000000  0.4302020000000  0.5496000000000 1.0
C      1  0.5398680000000  0.4993650000000  0.5247600000000 1.0
C      1  0.5535580000000  0.4524100000000  0.5411000000000 1.0
C      1  0.5042250000000  0.4772510000000  0.5621170000000 1.0
C      1  0.5174480000000  0.5592150000000  0.5612570000000 1.0
C      1  0.4484960000000  0.5453310000000  0.4641290000000 1.0
C      1  0.4606970000000  0.5190760000000  0.5545210000000 1.0
C      1  0.4664930000000  0.5240530000000  0.4125500000000 1.0
C      1  0.5441920000000  0.4871640000000  0.4827180000000 1.0
C      1  0.5113220000000  0.4997270000000  0.5390890000000 1.0
C      1  0.5009980000000  0.4917550000000  0.4284260000000 1.0
C      1  0.4895330000000  0.4866240000000  0.5200670000000 1.0
C      1  0.4783820000000  0.4977410000000  0.4111460000000 1.0
C      1  0.4477460000000  0.4971900000000  0.4497430000000 1.0
C      1  0.5570160000000  0.4381080000000  0.4913880000000 1.0
C      1  0.5523650000000  0.5147860000000  0.4436410000000 1.0
C      1  0.5086440000000  0.5323150000000  0.5688110000000 1.0
C      1  0.4571350000000  0.4715550000000  0.5695760000000 1.0
END
