TITL C-950533-5798-747 6.34974830899551e-08 125000 -381.81723972654 0 0 61 (C1) n - 1
REM
REM in /home/bkarasulu/work/CARBON/AIRSS/Generating-Clusters/EDIP-Nigel-Params/with-SteepDescent/Only-C1/SD-CG/HFTN-CG
REM
REM
REM
REM
REM
REM ./C.cell (11c1c37f851c82e70ff6c80c92926a4b)
REM
REM compiler GCC version 9.2.1 20190827 (Red Hat 9.2.1-1)
REM options -cpp -mtune=generic -march=x86-64 -g -O0 -fpre-include=/usr/include/finclude/math-vector-fortran.h
REM seed 689635374 -1569085873 202225355 -406909460 206162922 -546449586 -574364527 2118452149 901936579 1914804598 -870848265 -2051360298 1186249675 674220124 1677652878 607166896 -390242104 1885042440 1447769672 1894802751 -1427040850 -47260785 593339778 1393746718 263018427 -237160644 -2055175154 1014250202 1080542119 1332617863 -792495931 -146716735 -1167139277
REM
CELL 1.54180   50.00000   50.00000   50.00000   90.00000   90.00000   90.00000
LATT -1
SFAC C  
C      1  0.4571410000000  0.5419300000000  0.5029060000000 1.0
C      1  0.4311090000000  0.4773600000000  0.4988130000000 1.0
C      1  0.4578610000000  0.4962590000000  0.5304760000000 1.0
C      1  0.5078830000000  0.5382990000000  0.5617380000000 1.0
C      1  0.4751950000000  0.4965040000000  0.4888480000000 1.0
C      1  0.5515450000000  0.5203440000000  0.5376450000000 1.0
C      1  0.5659720000000  0.4807570000000  0.4521770000000 1.0
C      1  0.5031870000000  0.4394500000000  0.4928480000000 1.0
C      1  0.4640940000000  0.5329930000000  0.4572730000000 1.0
C      1  0.5441280000000  0.4921080000000  0.5435160000000 1.0
C      1  0.4820600000000  0.5669860000000  0.5343200000000 1.0
C      1  0.5122350000000  0.4421130000000  0.5412040000000 1.0
C      1  0.4953800000000  0.4550440000000  0.4683720000000 1.0
C      1  0.4852120000000  0.5142890000000  0.4465910000000 1.0
C      1  0.5313460000000  0.5632870000000  0.5263690000000 1.0
C      1  0.5485960000000  0.4464920000000  0.4739830000000 1.0
C      1  0.5031960000000  0.5561730000000  0.5165660000000 1.0
C      1  0.5472040000000  0.4747200000000  0.5179860000000 1.0
C      1  0.4716940000000  0.5527770000000  0.4790670000000 1.0
C      1  0.5504640000000  0.5560810000000  0.5046730000000 1.0
C      1  0.4389370000000  0.5190150000000  0.4678710000000 1.0
C      1  0.5176880000000  0.5723590000000  0.4700770000000 1.0
C      1  0.4890740000000  0.5594810000000  0.5603410000000 1.0
C      1  0.4692480000000  0.4990810000000  0.5591660000000 1.0
C      1  0.5420270000000  0.5669050000000  0.4803810000000 1.0
C      1  0.5683160000000  0.5093370000000  0.4897970000000 1.0
C      1  0.4665130000000  0.4489120000000  0.4625590000000 1.0
C      1  0.4777550000000  0.4876190000000  0.4360870000000 1.0
C      1  0.4649630000000  0.4600840000000  0.5294090000000 1.0
C      1  0.5009700000000  0.5257480000000  0.5199060000000 1.0
C      1  0.4971020000000  0.5108290000000  0.5555600000000 1.0
C      1  0.4167570000000  0.5186420000000  0.5118200000000 1.0
C      1  0.5139950000000  0.4876940000000  0.5469490000000 1.0
C      1  0.4986040000000  0.5607860000000  0.4869370000000 1.0
C      1  0.4487700000000  0.4912170000000  0.4762780000000 1.0
C      1  0.5000740000000  0.4849070000000  0.4760570000000 1.0
C      1  0.5565050000000  0.5065110000000  0.4619440000000 1.0
C      1  0.5348040000000  0.5437180000000  0.5492380000000 1.0
C      1  0.4282000000000  0.4954660000000  0.5221090000000 1.0
C      1  0.5261590000000  0.5097640000000  0.4620980000000 1.0
C      1  0.4731990000000  0.5159790000000  0.5111100000000 1.0
C      1  0.4939570000000  0.4528820000000  0.5190630000000 1.0
C      1  0.5216980000000  0.4862650000000  0.4995410000000 1.0
C      1  0.4438570000000  0.4525110000000  0.5079210000000 1.0
C      1  0.4560050000000  0.4741950000000  0.4518970000000 1.0
C      1  0.5501120000000  0.5257750000000  0.5079060000000 1.0
C      1  0.5322850000000  0.4365970000000  0.4970190000000 1.0
C      1  0.5108540000000  0.4522230000000  0.4431130000000 1.0
C      1  0.4566120000000  0.5610670000000  0.5247050000000 1.0
C      1  0.5027760000000  0.4810770000000  0.5200130000000 1.0
C      1  0.5389650000000  0.4536320000000  0.4474970000000 1.0
C      1  0.5723940000000  0.4639140000000  0.4761410000000 1.0
C      1  0.4981210000000  0.4704100000000  0.4257240000000 1.0
C      1  0.5394690000000  0.4449300000000  0.5251650000000 1.0
C      1  0.4526390000000  0.4395280000000  0.4849380000000 1.0
C      1  0.4741450000000  0.4688630000000  0.5607970000000 1.0
C      1  0.5115510000000  0.5237120000000  0.4415890000000 1.0
C      1  0.5227380000000  0.5161020000000  0.5003740000000 1.0
C      1  0.5046530000000  0.4631030000000  0.5622360000000 1.0
C      1  0.4302170000000  0.5338400000000  0.4927110000000 1.0
C      1  0.5717880000000  0.4813540000000  0.5005840000000 1.0
END
