TITL C-950525-1983-644 -2.94382489914869e-06 125000 -978.13443227517 0 0 157 (C1) n - 1
REM
REM in /home/bkarasulu/work/CARBON/AIRSS/Generating-Clusters/EDIP-Nigel-Params/with-SteepDescent/Only-C1/SD-CG/HFTN-CG
REM
REM
REM
REM
REM
REM ./C.cell (11c1c37f851c82e70ff6c80c92926a4b)
REM
REM compiler GCC version 9.2.1 20190827 (Red Hat 9.2.1-1)
REM options -cpp -mtune=generic -march=x86-64 -g -O0 -fpre-include=/usr/include/finclude/math-vector-fortran.h
REM seed -2064763500 643497676 -564621025 1175762959 1533302267 -1921429776 -1351775304 1793868045 82441621 66291981 305377646 -534835667 1623907970 -595398405 -65204796 -235961871 313219552 -1528693260 -804323771 1878434082 -2054200852 -2127959827 922044772 149945428 294819873 -576582607 1081448547 -896551522 -1925025833 -259535795 -588332016 -983751284 451434397
REM
CELL 1.54180   50.00000   50.00000   50.00000   90.00000   90.00000   90.00000
LATT -1
SFAC C  
C      1  0.3955540000000  0.4775090000000  0.5026880000000 1.0
C      1  0.4962100000000  0.4474080000000  0.4723900000000 1.0
C      1  0.5013950000000  0.5069010000000  0.3987090000000 1.0
C      1  0.5741370000000  0.5701830000000  0.4765010000000 1.0
C      1  0.4953870000000  0.5333570000000  0.5788140000000 1.0
C      1  0.4105710000000  0.4961980000000  0.5682440000000 1.0
C      1  0.5328630000000  0.5991850000000  0.4810130000000 1.0
C      1  0.5081540000000  0.5216790000000  0.5018240000000 1.0
C      1  0.4188440000000  0.5401510000000  0.4385950000000 1.0
C      1  0.5422670000000  0.4902970000000  0.5214640000000 1.0
C      1  0.4461030000000  0.5143570000000  0.4111050000000 1.0
C      1  0.4812970000000  0.5602930000000  0.5453550000000 1.0
C      1  0.4635480000000  0.5570260000000  0.4303510000000 1.0
C      1  0.5045910000000  0.3919430000000  0.5098270000000 1.0
C      1  0.5484740000000  0.5641460000000  0.5756270000000 1.0
C      1  0.5032640000000  0.5282120000000  0.4217210000000 1.0
C      1  0.5104280000000  0.5459490000000  0.4849870000000 1.0
C      1  0.4756370000000  0.5884510000000  0.5373590000000 1.0
C      1  0.4027050000000  0.5724270000000  0.5191630000000 1.0
C      1  0.5655570000000  0.4293480000000  0.4580430000000 1.0
C      1  0.4954980000000  0.4585570000000  0.4052020000000 1.0
C      1  0.4472200000000  0.5399840000000  0.5792060000000 1.0
C      1  0.4592950000000  0.5263960000000  0.4617710000000 1.0
C      1  0.4896120000000  0.5167360000000  0.6024830000000 1.0
C      1  0.4835770000000  0.5078290000000  0.5050060000000 1.0
C      1  0.5089260000000  0.4379110000000  0.5892000000000 1.0
C      1  0.5505170000000  0.5242150000000  0.4867240000000 1.0
C      1  0.5393330000000  0.5009100000000  0.5505350000000 1.0
C      1  0.4807540000000  0.3994380000000  0.4898930000000 1.0
C      1  0.3968940000000  0.5240850000000  0.5258240000000 1.0
C      1  0.4294690000000  0.4434930000000  0.4906130000000 1.0
C      1  0.4549360000000  0.4874710000000  0.4105390000000 1.0
C      1  0.5586310000000  0.4021660000000  0.4597290000000 1.0
C      1  0.4923390000000  0.4812450000000  0.5120230000000 1.0
C      1  0.5315910000000  0.5852280000000  0.4553650000000 1.0
C      1  0.5281630000000  0.5966060000000  0.5455210000000 1.0
C      1  0.4308040000000  0.5163240000000  0.4530630000000 1.0
C      1  0.5474660000000  0.5408640000000  0.5908180000000 1.0
C      1  0.4748000000000  0.5034890000000  0.4746060000000 1.0
C      1  0.5315990000000  0.4947770000000  0.4290020000000 1.0
C      1  0.4250280000000  0.5796620000000  0.5587830000000 1.0
C      1  0.4796170000000  0.4745190000000  0.5368290000000 1.0
C      1  0.4811060000000  0.4352360000000  0.4111580000000 1.0
C      1  0.5548660000000  0.5157950000000  0.5822830000000 1.0
C      1  0.5226040000000  0.4396660000000  0.5098240000000 1.0
C      1  0.5165810000000  0.5670140000000  0.5071080000000 1.0
C      1  0.5721940000000  0.4709970000000  0.4838190000000 1.0
C      1  0.5023830000000  0.6020700000000  0.5284190000000 1.0
C      1  0.4920650000000  0.5551410000000  0.4247920000000 1.0
C      1  0.5328850000000  0.3946680000000  0.4687020000000 1.0
C      1  0.5467550000000  0.4491370000000  0.4168660000000 1.0
C      1  0.4063090000000  0.4495070000000  0.5102090000000 1.0
C      1  0.5585130000000  0.5886980000000  0.4944370000000 1.0
C      1  0.4612410000000  0.5137000000000  0.6035400000000 1.0
C      1  0.5627330000000  0.4702340000000  0.5141760000000 1.0
C      1  0.5037640000000  0.4868670000000  0.4381200000000 1.0
C      1  0.5727520000000  0.4592950000000  0.4089250000000 1.0
C      1  0.5665300000000  0.5630730000000  0.5530460000000 1.0
C      1  0.4996390000000  0.5177420000000  0.5532890000000 1.0
C      1  0.4696860000000  0.4683530000000  0.5867770000000 1.0
C      1  0.5244750000000  0.4612480000000  0.3995540000000 1.0
C      1  0.5207500000000  0.4626180000000  0.6030070000000 1.0
C      1  0.4409550000000  0.5778610000000  0.4682970000000 1.0
C      1  0.4344740000000  0.4688040000000  0.4760900000000 1.0
C      1  0.5988390000000  0.5016650000000  0.5140350000000 1.0
C      1  0.4415160000000  0.5415910000000  0.4184010000000 1.0
C      1  0.5242210000000  0.4850810000000  0.4776710000000 1.0
C      1  0.5167590000000  0.4340610000000  0.4560870000000 1.0
C      1  0.4804970000000  0.4630430000000  0.4522620000000 1.0
C      1  0.4997250000000  0.4334810000000  0.5299730000000 1.0
C      1  0.5797450000000  0.4850310000000  0.5586420000000 1.0
C      1  0.5436430000000  0.4471870000000  0.4481910000000 1.0
C      1  0.4715780000000  0.4357210000000  0.5170750000000 1.0
C      1  0.4521840000000  0.5545380000000  0.5126990000000 1.0
C      1  0.5930410000000  0.5311430000000  0.5198530000000 1.0
C      1  0.5227160000000  0.4022270000000  0.5566810000000 1.0
C      1  0.5101590000000  0.4636500000000  0.4936460000000 1.0
C      1  0.5536420000000  0.3961250000000  0.5121760000000 1.0
C      1  0.5024410000000  0.4045670000000  0.5374690000000 1.0
C      1  0.4525200000000  0.5970740000000  0.4910920000000 1.0
C      1  0.4802130000000  0.6015100000000  0.4811160000000 1.0
C      1  0.4550350000000  0.5531050000000  0.4817010000000 1.0
C      1  0.4235120000000  0.5867890000000  0.5318180000000 1.0
C      1  0.4354160000000  0.4432930000000  0.5535060000000 1.0
C      1  0.5543890000000  0.5843100000000  0.5339920000000 1.0
C      1  0.5910190000000  0.5205780000000  0.4696810000000 1.0
C      1  0.5059370000000  0.6031080000000  0.4970200000000 1.0
C      1  0.4760500000000  0.5183890000000  0.5325430000000 1.0
C      1  0.5244730000000  0.5776260000000  0.5670380000000 1.0
C      1  0.4819770000000  0.5944700000000  0.4527860000000 1.0
C      1  0.4642010000000  0.4442630000000  0.4333900000000 1.0
C      1  0.5325600000000  0.5305620000000  0.5368930000000 1.0
C      1  0.5462090000000  0.5678540000000  0.5110280000000 1.0
C      1  0.5496910000000  0.4639860000000  0.5980460000000 1.0
C      1  0.4378270000000  0.5049260000000  0.5674540000000 1.0
C      1  0.5371920000000  0.5393190000000  0.4632420000000 1.0
C      1  0.4322970000000  0.5382420000000  0.5312110000000 1.0
C      1  0.4509080000000  0.5840430000000  0.5185480000000 1.0
C      1  0.5672090000000  0.4207790000000  0.5140800000000 1.0
C      1  0.5556840000000  0.4375460000000  0.5705150000000 1.0
C      1  0.5932880000000  0.4952350000000  0.4854360000000 1.0
C      1  0.4741110000000  0.5519870000000  0.5728680000000 1.0
C      1  0.4820340000000  0.3976650000000  0.4591030000000 1.0
C      1  0.5754520000000  0.4898120000000  0.4326320000000 1.0
C      1  0.5042230000000  0.5769530000000  0.4438370000000 1.0
C      1  0.5289440000000  0.4910590000000  0.3989580000000 1.0
C      1  0.5554940000000  0.5390840000000  0.5132820000000 1.0
C      1  0.4816230000000  0.4453160000000  0.5742740000000 1.0
C      1  0.5317070000000  0.5047850000000  0.4979370000000 1.0
C      1  0.5485250000000  0.4738580000000  0.4637450000000 1.0
C      1  0.4972280000000  0.4558720000000  0.5507660000000 1.0
C      1  0.5819810000000  0.5371570000000  0.5476900000000 1.0
C      1  0.4125600000000  0.4554150000000  0.5391240000000 1.0
C      1  0.4537810000000  0.4644880000000  0.5268800000000 1.0
C      1  0.5110250000000  0.5570670000000  0.5382250000000 1.0
C      1  0.5825460000000  0.4425720000000  0.4782840000000 1.0
C      1  0.4856160000000  0.5533210000000  0.4681280000000 1.0
C      1  0.5504690000000  0.4437130000000  0.5200310000000 1.0
C      1  0.4213230000000  0.4894910000000  0.4931200000000 1.0
C      1  0.5759330000000  0.5375030000000  0.4222750000000 1.0
C      1  0.4816400000000  0.4838260000000  0.4000790000000 1.0
C      1  0.4121540000000  0.5414860000000  0.4848760000000 1.0
C      1  0.5907610000000  0.4262630000000  0.4997050000000 1.0
C      1  0.4286910000000  0.5517300000000  0.5584400000000 1.0
C      1  0.5591120000000  0.4666600000000  0.5706710000000 1.0
C      1  0.4793070000000  0.4299010000000  0.4892960000000 1.0
C      1  0.5870080000000  0.4792200000000  0.5303860000000 1.0
C      1  0.5296590000000  0.4033730000000  0.4976830000000 1.0
C      1  0.5922530000000  0.4685940000000  0.4263570000000 1.0
C      1  0.4385330000000  0.4168080000000  0.4784970000000 1.0
C      1  0.5531730000000  0.5648010000000  0.4558950000000 1.0
C      1  0.4148170000000  0.5139830000000  0.4768010000000 1.0
C      1  0.5314610000000  0.5251900000000  0.4317370000000 1.0
C      1  0.3880390000000  0.4952990000000  0.5261550000000 1.0
C      1  0.4509290000000  0.3980880000000  0.5008810000000 1.0
C      1  0.4617620000000  0.4774070000000  0.4693260000000 1.0
C      1  0.3965460000000  0.5472150000000  0.5082110000000 1.0
C      1  0.5091100000000  0.4877250000000  0.5914530000000 1.0
C      1  0.5121720000000  0.4897850000000  0.5617780000000 1.0
C      1  0.5110360000000  0.4055280000000  0.4510420000000 1.0
C      1  0.5495200000000  0.5360340000000  0.4106820000000 1.0
C      1  0.4590210000000  0.4281360000000  0.5614570000000 1.0
C      1  0.5781850000000  0.5139260000000  0.5661450000000 1.0
C      1  0.5026500000000  0.5005140000000  0.4624770000000 1.0
C      1  0.4442530000000  0.4632510000000  0.4218380000000 1.0
C      1  0.5674960000000  0.5638830000000  0.4304970000000 1.0
C      1  0.4404780000000  0.4907670000000  0.5173730000000 1.0
C      1  0.3985930000000  0.4798460000000  0.5489930000000 1.0
C      1  0.4469780000000  0.5123310000000  0.5373680000000 1.0
C      1  0.4540650000000  0.4132590000000  0.5267650000000 1.0
C      1  0.4577700000000  0.4173620000000  0.4529080000000 1.0
C      1  0.5797770000000  0.5166070000000  0.4426180000000 1.0
C      1  0.4525220000000  0.4904310000000  0.5892670000000 1.0
C      1  0.4569450000000  0.5821230000000  0.4436600000000 1.0
C      1  0.5297690000000  0.4244250000000  0.5726570000000 1.0
C      1  0.5889710000000  0.5457320000000  0.4864410000000 1.0
C      1  0.4156480000000  0.5606050000000  0.4624780000000 1.0
END
