TITL C-950530-3293-286 -1.04841909975779e-06 125000 -1022.86173922317 0 0 164 (C1) n - 1
REM
REM in /home/bkarasulu/work/CARBON/AIRSS/Generating-Clusters/EDIP-Nigel-Params/with-SteepDescent/Only-C1/SD-CG/HFTN-CG
REM
REM
REM
REM
REM
REM ./C.cell (11c1c37f851c82e70ff6c80c92926a4b)
REM
REM compiler GCC version 9.2.1 20190827 (Red Hat 9.2.1-1)
REM options -cpp -mtune=generic -march=x86-64 -g -O0 -fpre-include=/usr/include/finclude/math-vector-fortran.h
REM seed 1848222895 1960723044 1873861511 1136678160 -243530757 417973153 -2020026078 1513783455 -398443885 825863314 1212748107 1958875575 1193883547 1840396577 -2003657409 -1830721743 1711037472 1204109502 -1595785808 -519947462 382241529 -752314415 961506006 -21042830 2076977001 -814474673 1132327448 -1390348017 511035549 32333635 -1064988665 1103358332 -161394754
REM
CELL 1.54180   50.00000   50.00000   50.00000   90.00000   90.00000   90.00000
LATT -1
SFAC C  
C      1  0.5168910000000  0.5710580000000  0.5871560000000 1.0
C      1  0.4925880000000  0.5429060000000  0.4058830000000 1.0
C      1  0.4476850000000  0.5051310000000  0.4791040000000 1.0
C      1  0.3862720000000  0.4787250000000  0.4730250000000 1.0
C      1  0.5580470000000  0.4772180000000  0.5282860000000 1.0
C      1  0.4466930000000  0.5443840000000  0.5540580000000 1.0
C      1  0.4540320000000  0.5524750000000  0.4871990000000 1.0
C      1  0.5327010000000  0.4960030000000  0.4733600000000 1.0
C      1  0.4488710000000  0.5950410000000  0.4681440000000 1.0
C      1  0.4660390000000  0.4923410000000  0.4122830000000 1.0
C      1  0.4776820000000  0.4611880000000  0.4666410000000 1.0
C      1  0.5276170000000  0.4407470000000  0.4689990000000 1.0
C      1  0.4093570000000  0.4552020000000  0.4317360000000 1.0
C      1  0.4462400000000  0.4624910000000  0.5713280000000 1.0
C      1  0.6059440000000  0.5060370000000  0.4806300000000 1.0
C      1  0.5353970000000  0.5842390000000  0.5689180000000 1.0
C      1  0.5261740000000  0.5242260000000  0.4647950000000 1.0
C      1  0.4833460000000  0.4085940000000  0.4668800000000 1.0
C      1  0.4650410000000  0.5703700000000  0.4645420000000 1.0
C      1  0.5885950000000  0.5136390000000  0.4602080000000 1.0
C      1  0.4984380000000  0.6161150000000  0.4961790000000 1.0
C      1  0.5346820000000  0.4938810000000  0.5244290000000 1.0
C      1  0.4245500000000  0.5165480000000  0.4165210000000 1.0
C      1  0.4120180000000  0.4652270000000  0.5354790000000 1.0
C      1  0.4370000000000  0.5592730000000  0.4241930000000 1.0
C      1  0.5490610000000  0.5331280000000  0.5116070000000 1.0
C      1  0.5257980000000  0.5967350000000  0.5446850000000 1.0
C      1  0.5752210000000  0.5624180000000  0.5325550000000 1.0
C      1  0.5749670000000  0.5395900000000  0.4622510000000 1.0
C      1  0.4222240000000  0.4376730000000  0.5269560000000 1.0
C      1  0.5708350000000  0.5812060000000  0.4876500000000 1.0
C      1  0.4869080000000  0.5947320000000  0.5145620000000 1.0
C      1  0.4706130000000  0.5517850000000  0.5940960000000 1.0
C      1  0.5221060000000  0.4838520000000  0.4993670000000 1.0
C      1  0.5802610000000  0.5065350000000  0.5735820000000 1.0
C      1  0.4957370000000  0.4562130000000  0.5691800000000 1.0
C      1  0.5781410000000  0.4935920000000  0.4418890000000 1.0
C      1  0.5107660000000  0.4265470000000  0.5374910000000 1.0
C      1  0.5255860000000  0.4628790000000  0.5787270000000 1.0
C      1  0.4308070000000  0.4611710000000  0.4103470000000 1.0
C      1  0.5791620000000  0.4386720000000  0.4943970000000 1.0
C      1  0.5921000000000  0.4365660000000  0.5201550000000 1.0
C      1  0.5888270000000  0.4310960000000  0.5643770000000 1.0
C      1  0.5453620000000  0.4429190000000  0.4213130000000 1.0
C      1  0.5080950000000  0.5184730000000  0.4129320000000 1.0
C      1  0.4936940000000  0.5209770000000  0.5955050000000 1.0
C      1  0.6021120000000  0.4607920000000  0.5340720000000 1.0
C      1  0.5775440000000  0.4651050000000  0.4518680000000 1.0
C      1  0.4564530000000  0.4261780000000  0.4269210000000 1.0
C      1  0.5555080000000  0.4021470000000  0.4862430000000 1.0
C      1  0.4815250000000  0.4169720000000  0.4386920000000 1.0
C      1  0.4075830000000  0.5099180000000  0.4395940000000 1.0
C      1  0.4418720000000  0.5032690000000  0.5100480000000 1.0
C      1  0.4870570000000  0.4871400000000  0.4724060000000 1.0
C      1  0.5299110000000  0.4963690000000  0.5765680000000 1.0
C      1  0.4627870000000  0.4093210000000  0.5139670000000 1.0
C      1  0.5282750000000  0.6097110000000  0.4941860000000 1.0
C      1  0.5061870000000  0.5770480000000  0.4440950000000 1.0
C      1  0.4883920000000  0.5118860000000  0.5481120000000 1.0
C      1  0.4705500000000  0.5360010000000  0.5073800000000 1.0
C      1  0.4872520000000  0.5622240000000  0.4268490000000 1.0
C      1  0.4945670000000  0.5247840000000  0.4972150000000 1.0
C      1  0.4833470000000  0.6101830000000  0.4722670000000 1.0
C      1  0.5275580000000  0.4543700000000  0.4967470000000 1.0
C      1  0.4849280000000  0.3922250000000  0.5550750000000 1.0
C      1  0.5929790000000  0.5247890000000  0.5566990000000 1.0
C      1  0.4222790000000  0.5052110000000  0.5544250000000 1.0
C      1  0.4534780000000  0.5877660000000  0.5485050000000 1.0
C      1  0.5923540000000  0.5165030000000  0.5287870000000 1.0
C      1  0.4895730000000  0.4991660000000  0.4295830000000 1.0
C      1  0.4561860000000  0.4446980000000  0.4034550000000 1.0
C      1  0.6047420000000  0.4545500000000  0.5613030000000 1.0
C      1  0.4604230000000  0.4102360000000  0.4845930000000 1.0
C      1  0.4369430000000  0.4368290000000  0.4476200000000 1.0
C      1  0.5277530000000  0.4762850000000  0.3917610000000 1.0
C      1  0.5512960000000  0.4997460000000  0.4285570000000 1.0
C      1  0.5933880000000  0.4849360000000  0.4936500000000 1.0
C      1  0.4157700000000  0.4847240000000  0.5124770000000 1.0
C      1  0.5346870000000  0.4810220000000  0.4469350000000 1.0
C      1  0.5083830000000  0.3992070000000  0.4786620000000 1.0
C      1  0.4974140000000  0.6013380000000  0.5418780000000 1.0
C      1  0.4238620000000  0.4655750000000  0.4928090000000 1.0
C      1  0.5408060000000  0.4323430000000  0.5393300000000 1.0
C      1  0.3918400000000  0.4962800000000  0.4971890000000 1.0
C      1  0.5495500000000  0.4909870000000  0.4012330000000 1.0
C      1  0.4213020000000  0.5361140000000  0.5120770000000 1.0
C      1  0.5197100000000  0.4576610000000  0.6074860000000 1.0
C      1  0.5503950000000  0.4505760000000  0.5160090000000 1.0
C      1  0.5873360000000  0.4857600000000  0.5227380000000 1.0
C      1  0.4756020000000  0.5085690000000  0.5752830000000 1.0
C      1  0.4979370000000  0.4763060000000  0.6104830000000 1.0
C      1  0.5128280000000  0.3958560000000  0.5070210000000 1.0
C      1  0.4928500000000  0.4948590000000  0.4999050000000 1.0
C      1  0.5666890000000  0.5868460000000  0.5165960000000 1.0
C      1  0.5475510000000  0.5532060000000  0.4304760000000 1.0
C      1  0.5032530000000  0.4907620000000  0.3880740000000 1.0
C      1  0.4361840000000  0.5712690000000  0.5033240000000 1.0
C      1  0.5277740000000  0.5709870000000  0.4907980000000 1.0
C      1  0.5334900000000  0.4108220000000  0.4701110000000 1.0
C      1  0.5778340000000  0.5401960000000  0.5135970000000 1.0
C      1  0.5876870000000  0.4611720000000  0.4788780000000 1.0
C      1  0.4876870000000  0.3974190000000  0.5251950000000 1.0
C      1  0.4095480000000  0.5299570000000  0.4634520000000 1.0
C      1  0.4001770000000  0.5247560000000  0.4919510000000 1.0
C      1  0.5464420000000  0.4445920000000  0.5663230000000 1.0
C      1  0.4340320000000  0.4802080000000  0.4707210000000 1.0
C      1  0.5424880000000  0.5436940000000  0.4838280000000 1.0
C      1  0.5842720000000  0.5545660000000  0.4860790000000 1.0
C      1  0.5195530000000  0.5081790000000  0.5476790000000 1.0
C      1  0.5493820000000  0.4541450000000  0.4479990000000 1.0
C      1  0.5545330000000  0.4060360000000  0.5364030000000 1.0
C      1  0.4528060000000  0.4344550000000  0.5289550000000 1.0
C      1  0.5497510000000  0.5922960000000  0.4670200000000 1.0
C      1  0.4791110000000  0.5904640000000  0.5618560000000 1.0
C      1  0.5338670000000  0.5260000000000  0.4332380000000 1.0
C      1  0.5059950000000  0.4107290000000  0.5631150000000 1.0
C      1  0.4353070000000  0.5705220000000  0.5600930000000 1.0
C      1  0.4635840000000  0.4154090000000  0.5736160000000 1.0
C      1  0.4020290000000  0.4472420000000  0.4887850000000 1.0
C      1  0.4504610000000  0.5157910000000  0.4031840000000 1.0
C      1  0.5839740000000  0.4151620000000  0.5390200000000 1.0
C      1  0.4674700000000  0.5365680000000  0.3949740000000 1.0
C      1  0.4541970000000  0.5315460000000  0.5797220000000 1.0
C      1  0.4920140000000  0.5816570000000  0.4694820000000 1.0
C      1  0.4449520000000  0.4340540000000  0.5593860000000 1.0
C      1  0.5467990000000  0.5492080000000  0.5634380000000 1.0
C      1  0.4394450000000  0.5327170000000  0.4675210000000 1.0
C      1  0.4993930000000  0.4472330000000  0.4528810000000 1.0
C      1  0.5747000000000  0.5534080000000  0.4369260000000 1.0
C      1  0.5518530000000  0.5350280000000  0.5986340000000 1.0
C      1  0.5427150000000  0.3949350000000  0.5106330000000 1.0
C      1  0.4888470000000  0.5695940000000  0.5798540000000 1.0
C      1  0.4971110000000  0.5302990000000  0.4686180000000 1.0
C      1  0.4718720000000  0.4581770000000  0.5248050000000 1.0
C      1  0.5007940000000  0.5677420000000  0.5054180000000 1.0
C      1  0.4561040000000  0.5888970000000  0.5196300000000 1.0
C      1  0.4505770000000  0.4638710000000  0.4535930000000 1.0
C      1  0.4250860000000  0.4779210000000  0.5578200000000 1.0
C      1  0.4786460000000  0.5102970000000  0.4563870000000 1.0
C      1  0.4778480000000  0.5381710000000  0.5366650000000 1.0
C      1  0.3977880000000  0.4811240000000  0.4456410000000 1.0
C      1  0.5347850000000  0.5729870000000  0.4476120000000 1.0
C      1  0.5666850000000  0.4331300000000  0.5815800000000 1.0
C      1  0.4142320000000  0.4224260000000  0.4932510000000 1.0
C      1  0.4687140000000  0.4870850000000  0.5181810000000 1.0
C      1  0.5046400000000  0.5517290000000  0.5310780000000 1.0
C      1  0.4608900000000  0.5739670000000  0.4226270000000 1.0
C      1  0.4899390000000  0.4282810000000  0.5802050000000 1.0
C      1  0.5114600000000  0.5005250000000  0.6007310000000 1.0
C      1  0.4354590000000  0.4195010000000  0.4735280000000 1.0
C      1  0.4777840000000  0.4740820000000  0.3916850000000 1.0
C      1  0.4517250000000  0.5401300000000  0.4403640000000 1.0
C      1  0.4460470000000  0.4794990000000  0.4282390000000 1.0
C      1  0.5550780000000  0.5108010000000  0.5842880000000 1.0
C      1  0.4971320000000  0.4536040000000  0.5391710000000 1.0
C      1  0.5084170000000  0.4705510000000  0.4338770000000 1.0
C      1  0.4253050000000  0.5292130000000  0.5411070000000 1.0
C      1  0.5840150000000  0.5526880000000  0.5586540000000 1.0
C      1  0.5220430000000  0.4555300000000  0.4111310000000 1.0
C      1  0.4731040000000  0.4760010000000  0.5820360000000 1.0
C      1  0.4258100000000  0.5895050000000  0.4833770000000 1.0
C      1  0.5278470000000  0.5488810000000  0.6004100000000 1.0
C      1  0.5307190000000  0.5362520000000  0.5380490000000 1.0
C      1  0.5412520000000  0.6009520000000  0.5200660000000 1.0
END
