TITL C-950536-5891-16 -4.15125793341943e-06 125000 -656.81344387861 0 0 106 (C1) n - 1
REM
REM in /home/bkarasulu/work/CARBON/AIRSS/Generating-Clusters/EDIP-Nigel-Params/with-SteepDescent/Only-C1/SD-CG/HFTN-CG
REM
REM
REM
REM
REM
REM ./C.cell (11c1c37f851c82e70ff6c80c92926a4b)
REM
REM compiler GCC version 9.2.1 20190827 (Red Hat 9.2.1-1)
REM options -cpp -mtune=generic -march=x86-64 -g -O0 -fpre-include=/usr/include/finclude/math-vector-fortran.h
REM seed 1812593255 -1547964835 497884919 -1972370230 -952480974 1328214271 -1170382406 -937163683 -1511790821 492121034 -612555320 1909705101 -706656357 -1832555936 675877645 939471044 1819199573 639575907 -1900925615 -1956048332 440326027 -428697605 -780819620 -1530721255 1067136388 1528511219 810398368 2114361648 622005123 -975918278 1138572888 -1194255587 1171854114
REM
CELL 1.54180   50.00000   50.00000   50.00000   90.00000   90.00000   90.00000
LATT -1
SFAC C  
C      1  0.5797710000000  0.5176650000000  0.5536620000000 1.0
C      1  0.5858010000000  0.4674190000000  0.4939120000000 1.0
C      1  0.5194860000000  0.4483240000000  0.4450430000000 1.0
C      1  0.5772400000000  0.4927580000000  0.5367150000000 1.0
C      1  0.4481210000000  0.5562830000000  0.5647690000000 1.0
C      1  0.4609030000000  0.5203990000000  0.4881650000000 1.0
C      1  0.5678050000000  0.4512050000000  0.4505520000000 1.0
C      1  0.5298500000000  0.4701880000000  0.5824340000000 1.0
C      1  0.4752660000000  0.4897660000000  0.5823730000000 1.0
C      1  0.4636150000000  0.5135740000000  0.4559710000000 1.0
C      1  0.4785330000000  0.4273890000000  0.4674240000000 1.0
C      1  0.4970610000000  0.5625890000000  0.5714070000000 1.0
C      1  0.5263340000000  0.5597010000000  0.4750180000000 1.0
C      1  0.5736580000000  0.4687520000000  0.5562620000000 1.0
C      1  0.4700710000000  0.4405640000000  0.5239240000000 1.0
C      1  0.4217660000000  0.5113680000000  0.4696940000000 1.0
C      1  0.4242740000000  0.5321910000000  0.4491210000000 1.0
C      1  0.4361530000000  0.4921970000000  0.4259720000000 1.0
C      1  0.5373600000000  0.5491550000000  0.5534080000000 1.0
C      1  0.4421730000000  0.4479940000000  0.5061160000000 1.0
C      1  0.4781460000000  0.5530500000000  0.4643040000000 1.0
C      1  0.5450920000000  0.4781700000000  0.4105210000000 1.0
C      1  0.4194780000000  0.5153540000000  0.5216750000000 1.0
C      1  0.5493380000000  0.4945680000000  0.5245300000000 1.0
C      1  0.4746190000000  0.4957920000000  0.5053700000000 1.0
C      1  0.5054750000000  0.5378130000000  0.4329850000000 1.0
C      1  0.4724720000000  0.5734820000000  0.5600390000000 1.0
C      1  0.5327250000000  0.5031260000000  0.4096730000000 1.0
C      1  0.5049160000000  0.4883610000000  0.4687960000000 1.0
C      1  0.5581690000000  0.4820840000000  0.5797960000000 1.0
C      1  0.5193790000000  0.5232300000000  0.4985550000000 1.0
C      1  0.5216190000000  0.5724000000000  0.5005390000000 1.0
C      1  0.4780180000000  0.5244520000000  0.4278590000000 1.0
C      1  0.4801590000000  0.5744760000000  0.5304900000000 1.0
C      1  0.4880330000000  0.5258360000000  0.5394480000000 1.0
C      1  0.5561860000000  0.4306570000000  0.5247350000000 1.0
C      1  0.5322580000000  0.4727220000000  0.5372570000000 1.0
C      1  0.5096540000000  0.5808790000000  0.5256240000000 1.0
C      1  0.5539550000000  0.4367080000000  0.4964580000000 1.0
C      1  0.4615540000000  0.5917370000000  0.5170370000000 1.0
C      1  0.5458190000000  0.4333020000000  0.4498990000000 1.0
C      1  0.5535670000000  0.5507450000000  0.4665940000000 1.0
C      1  0.4931720000000  0.4058500000000  0.4850250000000 1.0
C      1  0.5123930000000  0.4286760000000  0.5273840000000 1.0
C      1  0.4971110000000  0.5322350000000  0.5676510000000 1.0
C      1  0.4286500000000  0.5127310000000  0.5702280000000 1.0
C      1  0.5346610000000  0.4597540000000  0.4936150000000 1.0
C      1  0.5299630000000  0.5203790000000  0.4336730000000 1.0
C      1  0.4866150000000  0.4803840000000  0.5572440000000 1.0
C      1  0.5022880000000  0.4989900000000  0.4958300000000 1.0
C      1  0.4758490000000  0.5180790000000  0.5848280000000 1.0
C      1  0.4772270000000  0.4994620000000  0.5352560000000 1.0
C      1  0.5706160000000  0.5372670000000  0.4896890000000 1.0
C      1  0.4777470000000  0.4865540000000  0.4569950000000 1.0
C      1  0.5223860000000  0.4692520000000  0.4236840000000 1.0
C      1  0.4405120000000  0.5513620000000  0.4982810000000 1.0
C      1  0.5433830000000  0.5111720000000  0.4803920000000 1.0
C      1  0.4792090000000  0.5004580000000  0.4109000000000 1.0
C      1  0.4534830000000  0.5695560000000  0.4497590000000 1.0
C      1  0.4183430000000  0.4740710000000  0.5441700000000 1.0
C      1  0.5814510000000  0.4706780000000  0.4656760000000 1.0
C      1  0.4472170000000  0.4457210000000  0.4557360000000 1.0
C      1  0.5162640000000  0.4842360000000  0.5599790000000 1.0
C      1  0.4145960000000  0.5013930000000  0.4965680000000 1.0
C      1  0.5373280000000  0.5241550000000  0.5244200000000 1.0
C      1  0.5131370000000  0.4608060000000  0.4723090000000 1.0
C      1  0.5870890000000  0.5115380000000  0.4874530000000 1.0
C      1  0.4493880000000  0.5790380000000  0.4956660000000 1.0
C      1  0.5196510000000  0.5717110000000  0.5532600000000 1.0
C      1  0.4282730000000  0.5573790000000  0.5447980000000 1.0
C      1  0.4276130000000  0.5593880000000  0.4531140000000 1.0
C      1  0.4177450000000  0.4574980000000  0.5218880000000 1.0
C      1  0.5171060000000  0.4570920000000  0.5176100000000 1.0
C      1  0.5768290000000  0.5169670000000  0.4406830000000 1.0
C      1  0.4694350000000  0.4614190000000  0.4407540000000 1.0
C      1  0.4127490000000  0.4714120000000  0.4947820000000 1.0
C      1  0.4883040000000  0.4495100000000  0.4849300000000 1.0
C      1  0.4926310000000  0.4353160000000  0.4406150000000 1.0
C      1  0.5609660000000  0.5421080000000  0.5171970000000 1.0
C      1  0.5207510000000  0.4040930000000  0.4797840000000 1.0
C      1  0.4610140000000  0.4786980000000  0.4165800000000 1.0
C      1  0.5452550000000  0.4172410000000  0.4751330000000 1.0
C      1  0.4846640000000  0.5391470000000  0.4932960000000 1.0
C      1  0.4266330000000  0.4625790000000  0.4674930000000 1.0
C      1  0.4662160000000  0.4672860000000  0.4953190000000 1.0
C      1  0.4177720000000  0.5014980000000  0.5470260000000 1.0
C      1  0.5319950000000  0.4422030000000  0.5705240000000 1.0
C      1  0.5282300000000  0.5020990000000  0.4565740000000 1.0
C      1  0.4882770000000  0.4158510000000  0.5138140000000 1.0
C      1  0.4277680000000  0.4880050000000  0.4538940000000 1.0
C      1  0.5059170000000  0.4321820000000  0.5567290000000 1.0
C      1  0.4493470000000  0.5300140000000  0.5784950000000 1.0
C      1  0.5522110000000  0.4853090000000  0.4956940000000 1.0
C      1  0.5052270000000  0.5581630000000  0.4541090000000 1.0
C      1  0.5932420000000  0.4911270000000  0.5095820000000 1.0
C      1  0.4605050000000  0.5869560000000  0.4710080000000 1.0
C      1  0.5822710000000  0.4993680000000  0.4619010000000 1.0
C      1  0.5787220000000  0.5416390000000  0.5388890000000 1.0
C      1  0.5303020000000  0.5252450000000  0.5677380000000 1.0
C      1  0.5512610000000  0.4501750000000  0.5471160000000 1.0
C      1  0.4243310000000  0.5436670000000  0.5206790000000 1.0
C      1  0.4389590000000  0.5213910000000  0.4264140000000 1.0
C      1  0.5570480000000  0.5116490000000  0.5730630000000 1.0
C      1  0.5554390000000  0.5354110000000  0.4405520000000 1.0
C      1  0.4778950000000  0.5463110000000  0.5212360000000 1.0
C      1  0.4815020000000  0.4506670000000  0.5511940000000 1.0
END
