TITL C-951346-9544-494 -2.41928407239248e-07 125000 -388.336648289739 0 0 64 (C1) n - 1
REM
REM in /home/bkarasulu/work/CARBON/AIRSS/Generating-Clusters/EDIP-Nigel-Params/with-SteepDescent/Only-C1/SD-CG/HFTN-CG
REM
REM
REM
REM
REM
REM ./C.cell (11c1c37f851c82e70ff6c80c92926a4b)
REM
REM compiler GCC version 9.2.1 20190827 (Red Hat 9.2.1-1)
REM options -cpp -mtune=generic -march=x86-64 -g -O0 -fpre-include=/usr/include/finclude/math-vector-fortran.h
REM seed 1318020455 274281592 -1817474692 626980666 2136145854 344292408 -2094950865 1506790439 1170417333 937886823 -950953582 -798459307 1226037219 149055049 -1178228449 1751927400 875487748 1883811792 -144439363 -1758664063 -1687772911 365569767 1888620757 1281595968 601082203 133310643 -2124998788 2047481299 -2079962341 -1953982360 -875030045 -176399535 -1181341984
REM
CELL 1.54180   50.00000   50.00000   50.00000   90.00000   90.00000   90.00000
LATT -1
SFAC C  
C      1  0.5424650000000  0.5430890000000  0.4742910000000 1.0
C      1  0.5310990000000  0.4783930000000  0.5791720000000 1.0
C      1  0.4697750000000  0.4930960000000  0.4985850000000 1.0
C      1  0.4305420000000  0.4924710000000  0.4972710000000 1.0
C      1  0.5030640000000  0.5399650000000  0.5149920000000 1.0
C      1  0.5268060000000  0.4255540000000  0.5138220000000 1.0
C      1  0.5013950000000  0.5234520000000  0.4268230000000 1.0
C      1  0.4656940000000  0.5228070000000  0.4535140000000 1.0
C      1  0.5552420000000  0.4739360000000  0.5338400000000 1.0
C      1  0.4353330000000  0.5284600000000  0.5309870000000 1.0
C      1  0.5025680000000  0.5296200000000  0.4863070000000 1.0
C      1  0.4767180000000  0.4805610000000  0.4462570000000 1.0
C      1  0.5781530000000  0.4564940000000  0.4909060000000 1.0
C      1  0.5583380000000  0.5021190000000  0.4553800000000 1.0
C      1  0.4842330000000  0.5419090000000  0.4411410000000 1.0
C      1  0.4313160000000  0.5414180000000  0.5060160000000 1.0
C      1  0.4780860000000  0.5119850000000  0.5466770000000 1.0
C      1  0.4869140000000  0.5809040000000  0.5016260000000 1.0
C      1  0.4957980000000  0.5599690000000  0.4633210000000 1.0
C      1  0.4301890000000  0.5010100000000  0.4386950000000 1.0
C      1  0.4665570000000  0.4358860000000  0.5287990000000 1.0
C      1  0.4980290000000  0.4738800000000  0.5598950000000 1.0
C      1  0.5596380000000  0.5394740000000  0.4978560000000 1.0
C      1  0.5606810000000  0.5021570000000  0.5302860000000 1.0
C      1  0.5167650000000  0.4414080000000  0.5364200000000 1.0
C      1  0.5238660000000  0.5659070000000  0.4734600000000 1.0
C      1  0.5474640000000  0.4968450000000  0.4822840000000 1.0
C      1  0.5204620000000  0.4418480000000  0.4920410000000 1.0
C      1  0.5178280000000  0.4575680000000  0.4493870000000 1.0
C      1  0.5171400000000  0.5794960000000  0.5000990000000 1.0
C      1  0.4791880000000  0.4523540000000  0.5675150000000 1.0
C      1  0.4385460000000  0.5257650000000  0.4455270000000 1.0
C      1  0.5220910000000  0.5062930000000  0.5753170000000 1.0
C      1  0.5478400000000  0.5278160000000  0.4499750000000 1.0
C      1  0.5286170000000  0.5285280000000  0.4299270000000 1.0
C      1  0.5168140000000  0.5022990000000  0.4848830000000 1.0
C      1  0.4984870000000  0.4801300000000  0.4941080000000 1.0
C      1  0.4518770000000  0.4495930000000  0.4859750000000 1.0
C      1  0.4583570000000  0.4605520000000  0.5458360000000 1.0
C      1  0.4625880000000  0.4889950000000  0.5316390000000 1.0
C      1  0.5024160000000  0.5164020000000  0.5317790000000 1.0
C      1  0.4768980000000  0.5788230000000  0.4751040000000 1.0
C      1  0.4760010000000  0.5551480000000  0.5182040000000 1.0
C      1  0.5252480000000  0.5607340000000  0.5217180000000 1.0
C      1  0.4955300000000  0.4288910000000  0.4904390000000 1.0
C      1  0.4733120000000  0.4425210000000  0.5016920000000 1.0
C      1  0.4616920000000  0.5376020000000  0.5428280000000 1.0
C      1  0.4722390000000  0.5223200000000  0.4835730000000 1.0
C      1  0.5582150000000  0.4671950000000  0.4734110000000 1.0
C      1  0.5355440000000  0.4488180000000  0.4687770000000 1.0
C      1  0.5640860000000  0.5111220000000  0.5030220000000 1.0
C      1  0.4354110000000  0.4990420000000  0.5253400000000 1.0
C      1  0.5114810000000  0.4734560000000  0.5265410000000 1.0
C      1  0.4577650000000  0.5450480000000  0.4967400000000 1.0
C      1  0.5524230000000  0.5540040000000  0.5205840000000 1.0
C      1  0.4943420000000  0.4644060000000  0.4640030000000 1.0
C      1  0.4905170000000  0.4307800000000  0.5483160000000 1.0
C      1  0.4905720000000  0.4972420000000  0.4277110000000 1.0
C      1  0.4376630000000  0.4719990000000  0.4777120000000 1.0
C      1  0.4471850000000  0.4826170000000  0.4519830000000 1.0
C      1  0.5403120000000  0.4627540000000  0.5565040000000 1.0
C      1  0.5678130000000  0.4573530000000  0.5155790000000 1.0
C      1  0.4910490000000  0.5030710000000  0.5729750000000 1.0
C      1  0.5257200000000  0.5046460000000  0.5446100000000 1.0
END
