TITL C-951337-3020-58 -5.03423444589081e-05 125000 -484.432369334836 0 0 79 (C1) n - 1
REM
REM in /home/bkarasulu/work/CARBON/AIRSS/Generating-Clusters/EDIP-Nigel-Params/with-SteepDescent/Only-C1/SD-CG/HFTN-CG
REM
REM
REM
REM
REM
REM ./C.cell (11c1c37f851c82e70ff6c80c92926a4b)
REM
REM compiler GCC version 9.2.1 20190827 (Red Hat 9.2.1-1)
REM options -cpp -mtune=generic -march=x86-64 -g -O0 -fpre-include=/usr/include/finclude/math-vector-fortran.h
REM seed 1834625841 1246058212 -1480892016 679170911 -406125607 1796743571 1543438145 245611533 -1155270110 155905936 1915683178 -325360824 -668094043 -607680515 1965657675 -1614121494 -1122690615 1473301138 -1177249679 743540204 -571090823 1356658411 -1607773021 -814396784 1234878366 -1620182976 -234356888 -3516475 1754304497 -425892362 2127986781 486096435 -146237557
REM
CELL 1.54180   50.00000   50.00000   50.00000   90.00000   90.00000   90.00000
LATT -1
SFAC C  
C      1  0.5524210000000  0.5282020000000  0.4710030000000 1.0
C      1  0.5648990000000  0.5193450000000  0.5204330000000 1.0
C      1  0.5698330000000  0.5130210000000  0.4908880000000 1.0
C      1  0.4426680000000  0.4591280000000  0.5063950000000 1.0
C      1  0.4983730000000  0.4930420000000  0.5358570000000 1.0
C      1  0.4463840000000  0.5183670000000  0.4775510000000 1.0
C      1  0.4071380000000  0.4910070000000  0.5413010000000 1.0
C      1  0.5559770000000  0.5581980000000  0.4752600000000 1.0
C      1  0.5520400000000  0.5425460000000  0.5349940000000 1.0
C      1  0.5413780000000  0.4439640000000  0.4802050000000 1.0
C      1  0.3925620000000  0.4777160000000  0.5208090000000 1.0
C      1  0.4421300000000  0.4456860000000  0.5305520000000 1.0
C      1  0.4392940000000  0.5415480000000  0.5061320000000 1.0
C      1  0.4557050000000  0.4757700000000  0.4310240000000 1.0
C      1  0.5649770000000  0.4599730000000  0.4821300000000 1.0
C      1  0.4859220000000  0.4292090000000  0.4768280000000 1.0
C      1  0.5226840000000  0.5161120000000  0.4772660000000 1.0
C      1  0.4526620000000  0.5257800000000  0.4493550000000 1.0
C      1  0.5302330000000  0.4868640000000  0.4832230000000 1.0
C      1  0.5105440000000  0.4927170000000  0.4154960000000 1.0
C      1  0.4980760000000  0.4300430000000  0.5047750000000 1.0
C      1  0.5186740000000  0.5600720000000  0.5010800000000 1.0
C      1  0.5342830000000  0.4544640000000  0.4323250000000 1.0
C      1  0.4902100000000  0.4967650000000  0.4681730000000 1.0
C      1  0.5276370000000  0.4319310000000  0.5036960000000 1.0
C      1  0.5111750000000  0.5291870000000  0.5025560000000 1.0
C      1  0.4350260000000  0.5015790000000  0.5382610000000 1.0
C      1  0.4803820000000  0.5284460000000  0.5104090000000 1.0
C      1  0.4906490000000  0.5114120000000  0.4219160000000 1.0
C      1  0.5195350000000  0.5737420000000  0.4483210000000 1.0
C      1  0.5297720000000  0.5694700000000  0.4741230000000 1.0
C      1  0.5665820000000  0.4971970000000  0.5394820000000 1.0
C      1  0.5088330000000  0.4983640000000  0.5728420000000 1.0
C      1  0.5433090000000  0.5406840000000  0.4256800000000 1.0
C      1  0.5743720000000  0.4858010000000  0.4838460000000 1.0
C      1  0.5213370000000  0.5116230000000  0.5252700000000 1.0
C      1  0.5297770000000  0.5282080000000  0.5492750000000 1.0
C      1  0.4916010000000  0.5732870000000  0.4965760000000 1.0
C      1  0.5669100000000  0.5673850000000  0.4996300000000 1.0
C      1  0.4639240000000  0.5212610000000  0.5708520000000 1.0
C      1  0.5417560000000  0.4645500000000  0.5633400000000 1.0
C      1  0.5571410000000  0.4506280000000  0.5424610000000 1.0
C      1  0.5449350000000  0.5649680000000  0.5175620000000 1.0
C      1  0.5542580000000  0.4967100000000  0.4326590000000 1.0
C      1  0.4934980000000  0.5240260000000  0.5744340000000 1.0
C      1  0.5299720000000  0.4375880000000  0.4540800000000 1.0
C      1  0.5185890000000  0.5527870000000  0.4302590000000 1.0
C      1  0.4734750000000  0.5467290000000  0.4513720000000 1.0
C      1  0.5626560000000  0.4728780000000  0.5241260000000 1.0
C      1  0.5346490000000  0.4802660000000  0.4221210000000 1.0
C      1  0.5038940000000  0.5445220000000  0.5552040000000 1.0
C      1  0.4967300000000  0.5355160000000  0.4369460000000 1.0
C      1  0.5049290000000  0.4258800000000  0.4566270000000 1.0
C      1  0.5573400000000  0.5226480000000  0.4417000000000 1.0
C      1  0.4631360000000  0.4798600000000  0.5032830000000 1.0
C      1  0.5414880000000  0.4326380000000  0.5279080000000 1.0
C      1  0.5072790000000  0.4750760000000  0.4717280000000 1.0
C      1  0.5460410000000  0.4949920000000  0.5617080000000 1.0
C      1  0.4484240000000  0.5692100000000  0.5066710000000 1.0
C      1  0.4525320000000  0.4950220000000  0.5620050000000 1.0
C      1  0.4649120000000  0.4458630000000  0.5463170000000 1.0
C      1  0.4698600000000  0.4708120000000  0.5612680000000 1.0
C      1  0.4577050000000  0.4510470000000  0.4418600000000 1.0
C      1  0.4551790000000  0.5419030000000  0.5513740000000 1.0
C      1  0.4796200000000  0.5483130000000  0.5351820000000 1.0
C      1  0.5099730000000  0.4655480000000  0.5268310000000 1.0
C      1  0.4709360000000  0.5005980000000  0.5228790000000 1.0
C      1  0.3862930000000  0.5032310000000  0.5263220000000 1.0
C      1  0.4394250000000  0.4426210000000  0.4844840000000 1.0
C      1  0.4633440000000  0.4941620000000  0.4785130000000 1.0
C      1  0.4595590000000  0.4372740000000  0.4662240000000 1.0
C      1  0.4347090000000  0.5311500000000  0.5333540000000 1.0
C      1  0.5137430000000  0.4547920000000  0.5571330000000 1.0
C      1  0.4646790000000  0.5027850000000  0.4324850000000 1.0
C      1  0.4900110000000  0.4332490000000  0.5351990000000 1.0
C      1  0.5344910000000  0.4814440000000  0.5128810000000 1.0
C      1  0.4729580000000  0.5534780000000  0.4813450000000 1.0
C      1  0.4742620000000  0.5743580000000  0.5203190000000 1.0
C      1  0.4957330000000  0.4717660000000  0.5740480000000 1.0
END
