TITL C-950528-5794-390 -2.35680266411797e-06 125000 -773.348310157068 0 0 124 (C1) n - 1
REM
REM in /home/bkarasulu/work/CARBON/AIRSS/Generating-Clusters/EDIP-Nigel-Params/with-SteepDescent/Only-C1/SD-CG/HFTN-CG
REM
REM
REM
REM
REM
REM ./C.cell (11c1c37f851c82e70ff6c80c92926a4b)
REM
REM compiler GCC version 9.2.1 20190827 (Red Hat 9.2.1-1)
REM options -cpp -mtune=generic -march=x86-64 -g -O0 -fpre-include=/usr/include/finclude/math-vector-fortran.h
REM seed -1349666433 -753407585 -244275732 -529858973 -251400878 1521880991 -700136349 589437101 733252238 1198899647 1454214236 -1031484584 1296123236 -23633584 -556023441 2041587277 -478651629 216382403 -1529672466 -431507347 -1524004485 -1735332774 -1023594860 1246650168 -138888448 -1216097110 802855706 -603898601 1180871941 955038686 297181057 548308755 1871845350
REM
CELL 1.54180   50.00000   50.00000   50.00000   90.00000   90.00000   90.00000
LATT -1
SFAC C  
C      1  0.5004210000000  0.4678410000000  0.5468520000000 1.0
C      1  0.4390170000000  0.5279110000000  0.5707080000000 1.0
C      1  0.5024670000000  0.4937410000000  0.5954810000000 1.0
C      1  0.4370970000000  0.4418820000000  0.5372220000000 1.0
C      1  0.5722290000000  0.5667870000000  0.5517330000000 1.0
C      1  0.4559670000000  0.4657210000000  0.4178470000000 1.0
C      1  0.4826890000000  0.5154370000000  0.4048190000000 1.0
C      1  0.4732170000000  0.5658640000000  0.4399940000000 1.0
C      1  0.5569270000000  0.5795360000000  0.4515860000000 1.0
C      1  0.4583740000000  0.5178330000000  0.4208130000000 1.0
C      1  0.5018020000000  0.5713290000000  0.4315790000000 1.0
C      1  0.4216340000000  0.4879960000000  0.4425450000000 1.0
C      1  0.5912200000000  0.5485870000000  0.5457730000000 1.0
C      1  0.4980600000000  0.4443830000000  0.4272640000000 1.0
C      1  0.5240930000000  0.4354920000000  0.4364490000000 1.0
C      1  0.4939740000000  0.4035200000000  0.4552570000000 1.0
C      1  0.5977810000000  0.5012120000000  0.5252260000000 1.0
C      1  0.4706970000000  0.5318940000000  0.4948770000000 1.0
C      1  0.4191350000000  0.4945660000000  0.4697910000000 1.0
C      1  0.4220540000000  0.5047580000000  0.5621250000000 1.0
C      1  0.4831920000000  0.5386270000000  0.5924520000000 1.0
C      1  0.4433110000000  0.4718050000000  0.5372220000000 1.0
C      1  0.5840120000000  0.5352960000000  0.4997950000000 1.0
C      1  0.4570400000000  0.5414340000000  0.4398720000000 1.0
C      1  0.4182820000000  0.5345170000000  0.5246100000000 1.0
C      1  0.4941540000000  0.5594140000000  0.5546420000000 1.0
C      1  0.4553310000000  0.4275290000000  0.5567390000000 1.0
C      1  0.5124150000000  0.5297400000000  0.5190010000000 1.0
C      1  0.5224470000000  0.4744750000000  0.5844250000000 1.0
C      1  0.4922440000000  0.5310710000000  0.5404050000000 1.0
C      1  0.4584600000000  0.4508690000000  0.4445000000000 1.0
C      1  0.5302870000000  0.5320930000000  0.5739700000000 1.0
C      1  0.4520550000000  0.5706460000000  0.5275620000000 1.0
C      1  0.4959440000000  0.5784050000000  0.5092240000000 1.0
C      1  0.5744510000000  0.4694160000000  0.4802660000000 1.0
C      1  0.4810310000000  0.5634610000000  0.5801660000000 1.0
C      1  0.4980340000000  0.4919060000000  0.4133850000000 1.0
C      1  0.5129680000000  0.5251320000000  0.4685930000000 1.0
C      1  0.4319980000000  0.4300110000000  0.5108310000000 1.0
C      1  0.5206330000000  0.4121640000000  0.4539120000000 1.0
C      1  0.4786110000000  0.4548770000000  0.5317820000000 1.0
C      1  0.5256350000000  0.5804520000000  0.5129650000000 1.0
C      1  0.4660030000000  0.5259250000000  0.5253040000000 1.0
C      1  0.4330030000000  0.4767420000000  0.5647980000000 1.0
C      1  0.4995760000000  0.4501630000000  0.5727400000000 1.0
C      1  0.4444820000000  0.5748610000000  0.5004020000000 1.0
C      1  0.5468130000000  0.4738050000000  0.4933470000000 1.0
C      1  0.4850490000000  0.5614950000000  0.4859170000000 1.0
C      1  0.4805020000000  0.5770270000000  0.5336120000000 1.0
C      1  0.5370100000000  0.5170300000000  0.4032060000000 1.0
C      1  0.4715440000000  0.5802050000000  0.4658410000000 1.0
C      1  0.4431620000000  0.5117100000000  0.4760840000000 1.0
C      1  0.4634980000000  0.4959970000000  0.5310400000000 1.0
C      1  0.5015430000000  0.4871170000000  0.4960930000000 1.0
C      1  0.5365770000000  0.5496110000000  0.5169590000000 1.0
C      1  0.4959460000000  0.4540350000000  0.4645600000000 1.0
C      1  0.4853690000000  0.4659530000000  0.4126090000000 1.0
C      1  0.4552740000000  0.4719840000000  0.5840440000000 1.0
C      1  0.5356300000000  0.5945590000000  0.4904650000000 1.0
C      1  0.5455280000000  0.4551860000000  0.4430980000000 1.0
C      1  0.4871530000000  0.6039860000000  0.4632570000000 1.0
C      1  0.4436630000000  0.5430700000000  0.5377130000000 1.0
C      1  0.5456310000000  0.5749210000000  0.5521610000000 1.0
C      1  0.4856720000000  0.4950470000000  0.5515180000000 1.0
C      1  0.4092900000000  0.4858780000000  0.5167560000000 1.0
C      1  0.5542590000000  0.4373340000000  0.5581970000000 1.0
C      1  0.5416570000000  0.5190430000000  0.4794840000000 1.0
C      1  0.5242830000000  0.5413090000000  0.4080740000000 1.0
C      1  0.4399910000000  0.5387780000000  0.4640230000000 1.0
C      1  0.5445250000000  0.5016610000000  0.5047500000000 1.0
C      1  0.5696880000000  0.4340390000000  0.5073840000000 1.0
C      1  0.5349120000000  0.5953990000000  0.5363810000000 1.0
C      1  0.4458190000000  0.4152870000000  0.4523050000000 1.0
C      1  0.4147800000000  0.4744350000000  0.4912840000000 1.0
C      1  0.5179790000000  0.5014640000000  0.5157670000000 1.0
C      1  0.5340960000000  0.5897560000000  0.4634780000000 1.0
C      1  0.5541800000000  0.5216890000000  0.5319510000000 1.0
C      1  0.5319360000000  0.5469230000000  0.4356490000000 1.0
C      1  0.5393690000000  0.4851620000000  0.4412340000000 1.0
C      1  0.5095980000000  0.5948040000000  0.4483930000000 1.0
C      1  0.4695570000000  0.4685480000000  0.4652160000000 1.0
C      1  0.4282120000000  0.5587150000000  0.4835900000000 1.0
C      1  0.5622180000000  0.4648990000000  0.5520000000000 1.0
C      1  0.4687200000000  0.4462280000000  0.5786150000000 1.0
C      1  0.5440260000000  0.4843090000000  0.5660980000000 1.0
C      1  0.4616130000000  0.5200340000000  0.5873310000000 1.0
C      1  0.4655240000000  0.4050690000000  0.4958530000000 1.0
C      1  0.5246720000000  0.5568890000000  0.5593990000000 1.0
C      1  0.5595450000000  0.5344900000000  0.4415450000000 1.0
C      1  0.4422800000000  0.4919190000000  0.4233780000000 1.0
C      1  0.4681340000000  0.4977270000000  0.4648520000000 1.0
C      1  0.5078420000000  0.5542340000000  0.4652790000000 1.0
C      1  0.5828510000000  0.4957270000000  0.4683160000000 1.0
C      1  0.5198100000000  0.4737130000000  0.4736730000000 1.0
C      1  0.5068440000000  0.4227590000000  0.5608570000000 1.0
C      1  0.5064390000000  0.4323740000000  0.5006370000000 1.0
C      1  0.4824250000000  0.4230460000000  0.5404590000000 1.0
C      1  0.5469240000000  0.5126390000000  0.5600750000000 1.0
C      1  0.4102540000000  0.5446210000000  0.4998590000000 1.0
C      1  0.5225020000000  0.4436250000000  0.5252670000000 1.0
C      1  0.4274870000000  0.4357440000000  0.4610280000000 1.0
C      1  0.5830050000000  0.5272670000000  0.5280740000000 1.0
C      1  0.4889940000000  0.5105100000000  0.4810190000000 1.0
C      1  0.4884680000000  0.4111410000000  0.5125740000000 1.0
C      1  0.5858840000000  0.4745880000000  0.5289320000000 1.0
C      1  0.4105870000000  0.5082330000000  0.5345910000000 1.0
C      1  0.5085990000000  0.5229820000000  0.5919990000000 1.0
C      1  0.4243030000000  0.4465750000000  0.4877920000000 1.0
C      1  0.4687530000000  0.4065480000000  0.4671230000000 1.0
C      1  0.5482360000000  0.4548680000000  0.5168300000000 1.0
C      1  0.4398600000000  0.4033860000000  0.5073390000000 1.0
C      1  0.5576060000000  0.5441920000000  0.4880600000000 1.0
C      1  0.5964720000000  0.5114250000000  0.4886110000000 1.0
C      1  0.5902280000000  0.4572170000000  0.5048670000000 1.0
C      1  0.5332170000000  0.4159050000000  0.4792610000000 1.0
C      1  0.4873100000000  0.4583420000000  0.5037300000000 1.0
C      1  0.5671770000000  0.5552710000000  0.4606940000000 1.0
C      1  0.5576490000000  0.5075020000000  0.4558100000000 1.0
C      1  0.4971890000000  0.5393230000000  0.4021930000000 1.0
C      1  0.5671210000000  0.4474000000000  0.4615530000000 1.0
C      1  0.4750710000000  0.4943690000000  0.5806170000000 1.0
C      1  0.5318800000000  0.4247200000000  0.5461180000000 1.0
C      1  0.5271680000000  0.4933080000000  0.4146280000000 1.0
C      1  0.5609660000000  0.4246000000000  0.4801240000000 1.0
END
