TITL C-951341-1326-628 -1.26947415328377e-06 125000 -1203.71894294043 0 0 193 (C1) n - 1
REM
REM in /home/bkarasulu/work/CARBON/AIRSS/Generating-Clusters/EDIP-Nigel-Params/with-SteepDescent/Only-C1/SD-CG/HFTN-CG
REM
REM
REM
REM
REM
REM ./C.cell (11c1c37f851c82e70ff6c80c92926a4b)
REM
REM compiler GCC version 9.2.1 20190827 (Red Hat 9.2.1-1)
REM options -cpp -mtune=generic -march=x86-64 -g -O0 -fpre-include=/usr/include/finclude/math-vector-fortran.h
REM seed -1846755962 -1941055730 -485277730 -1001347198 246353467 331385451 -1953855442 417151932 1873782710 -1723078146 -237821819 510507934 -1622921986 509530685 1487867533 1642983823 2081771395 1525169453 212470395 748291459 1606193294 1326434285 1117599915 -1569534680 910459709 -1280056353 741547637 1610685330 1178030624 -1238485110 726294229 -1427356025 1730218827
REM
CELL 1.54180   50.00000   50.00000   50.00000   90.00000   90.00000   90.00000
LATT -1
SFAC C  
C      1  0.5567880000000  0.5337510000000  0.4052170000000 1.0
C      1  0.4904010000000  0.4024330000000  0.4411170000000 1.0
C      1  0.4904730000000  0.4564430000000  0.4789630000000 1.0
C      1  0.5642160000000  0.4839290000000  0.4130170000000 1.0
C      1  0.6171840000000  0.5138430000000  0.5238400000000 1.0
C      1  0.4317260000000  0.4946720000000  0.5055800000000 1.0
C      1  0.5037530000000  0.6151340000000  0.5214920000000 1.0
C      1  0.4605480000000  0.3981410000000  0.5429860000000 1.0
C      1  0.5912390000000  0.5211060000000  0.4395300000000 1.0
C      1  0.3912140000000  0.4446460000000  0.4660160000000 1.0
C      1  0.5239260000000  0.6032810000000  0.4585820000000 1.0
C      1  0.4892010000000  0.4599870000000  0.5935430000000 1.0
C      1  0.4954000000000  0.4997760000000  0.5732910000000 1.0
C      1  0.5097910000000  0.4228700000000  0.4510500000000 1.0
C      1  0.5143740000000  0.5027300000000  0.4336460000000 1.0
C      1  0.4429310000000  0.4095860000000  0.5222410000000 1.0
C      1  0.5176280000000  0.5022050000000  0.4031980000000 1.0
C      1  0.5959630000000  0.4870500000000  0.5608890000000 1.0
C      1  0.4577030000000  0.5253560000000  0.4179780000000 1.0
C      1  0.4012200000000  0.4838020000000  0.5692290000000 1.0
C      1  0.4685240000000  0.5782090000000  0.4081680000000 1.0
C      1  0.3849210000000  0.4907350000000  0.5106430000000 1.0
C      1  0.5699040000000  0.4356360000000  0.4779420000000 1.0
C      1  0.5000790000000  0.5018840000000  0.6031130000000 1.0
C      1  0.4499670000000  0.4440670000000  0.5661730000000 1.0
C      1  0.4071920000000  0.5396000000000  0.5239180000000 1.0
C      1  0.5416230000000  0.3803310000000  0.4904700000000 1.0
C      1  0.5116070000000  0.5374480000000  0.5484300000000 1.0
C      1  0.4168130000000  0.5122190000000  0.4850800000000 1.0
C      1  0.4673370000000  0.5307110000000  0.3908510000000 1.0
C      1  0.4458280000000  0.5710920000000  0.4260040000000 1.0
C      1  0.6033360000000  0.5004840000000  0.4577430000000 1.0
C      1  0.4221320000000  0.5494300000000  0.5705200000000 1.0
C      1  0.4572330000000  0.5092060000000  0.5177210000000 1.0
C      1  0.4495930000000  0.4870080000000  0.6096000000000 1.0
C      1  0.5365610000000  0.4205100000000  0.4382510000000 1.0
C      1  0.4215260000000  0.4406470000000  0.5538740000000 1.0
C      1  0.5155810000000  0.4650640000000  0.4910920000000 1.0
C      1  0.4560900000000  0.4229280000000  0.4779770000000 1.0
C      1  0.5198130000000  0.5094640000000  0.5574670000000 1.0
C      1  0.5229690000000  0.5649670000000  0.5556130000000 1.0
C      1  0.4912370000000  0.5260430000000  0.6148970000000 1.0
C      1  0.5198580000000  0.4894660000000  0.5315560000000 1.0
C      1  0.5517960000000  0.4537280000000  0.5850220000000 1.0
C      1  0.5654580000000  0.5298530000000  0.6027740000000 1.0
C      1  0.5102720000000  0.5534210000000  0.4030240000000 1.0
C      1  0.5544530000000  0.4916620000000  0.4669280000000 1.0
C      1  0.5395690000000  0.5761730000000  0.5338500000000 1.0
C      1  0.4566020000000  0.5915630000000  0.4708580000000 1.0
C      1  0.5645620000000  0.5600690000000  0.4108300000000 1.0
C      1  0.5202740000000  0.4469490000000  0.4066370000000 1.0
C      1  0.4916240000000  0.5520030000000  0.6044530000000 1.0
C      1  0.6045210000000  0.4600160000000  0.5008330000000 1.0
C      1  0.4384930000000  0.4478100000000  0.4859760000000 1.0
C      1  0.4717390000000  0.5731060000000  0.5604480000000 1.0
C      1  0.4459410000000  0.5425440000000  0.5875030000000 1.0
C      1  0.5611750000000  0.5490890000000  0.5814500000000 1.0
C      1  0.3997340000000  0.4727170000000  0.4646610000000 1.0
C      1  0.5572880000000  0.5751050000000  0.4800120000000 1.0
C      1  0.4748360000000  0.6015090000000  0.5522990000000 1.0
C      1  0.5655590000000  0.4109780000000  0.5238250000000 1.0
C      1  0.6076180000000  0.5121620000000  0.4861670000000 1.0
C      1  0.5605730000000  0.4320190000000  0.4496760000000 1.0
C      1  0.5895460000000  0.4611090000000  0.5487350000000 1.0
C      1  0.4612810000000  0.4868540000000  0.3908340000000 1.0
C      1  0.5032670000000  0.4336390000000  0.5910570000000 1.0
C      1  0.5030770000000  0.4895020000000  0.5059070000000 1.0
C      1  0.5362500000000  0.5374060000000  0.4550020000000 1.0
C      1  0.5898150000000  0.5590770000000  0.5149070000000 1.0
C      1  0.4658520000000  0.4168230000000  0.5652270000000 1.0
C      1  0.4133480000000  0.4451890000000  0.5046560000000 1.0
C      1  0.5215610000000  0.4075400000000  0.5244570000000 1.0
C      1  0.5171080000000  0.5627960000000  0.6016340000000 1.0
C      1  0.4408960000000  0.4570890000000  0.4427740000000 1.0
C      1  0.4007730000000  0.5318790000000  0.5738520000000 1.0
C      1  0.4894210000000  0.3801660000000  0.4731030000000 1.0
C      1  0.5612610000000  0.5826750000000  0.4263210000000 1.0
C      1  0.4054640000000  0.4278890000000  0.4483610000000 1.0
C      1  0.4671620000000  0.5672080000000  0.5117670000000 1.0
C      1  0.5916300000000  0.4551220000000  0.4761050000000 1.0
C      1  0.5396590000000  0.6001260000000  0.4835000000000 1.0
C      1  0.4851710000000  0.4300110000000  0.4887720000000 1.0
C      1  0.5832590000000  0.5723600000000  0.5418360000000 1.0
C      1  0.4585940000000  0.4923410000000  0.4621210000000 1.0
C      1  0.5801910000000  0.4669530000000  0.4304990000000 1.0
C      1  0.4646580000000  0.4681780000000  0.5500360000000 1.0
C      1  0.4465250000000  0.4978870000000  0.4138160000000 1.0
C      1  0.5287510000000  0.5302530000000  0.3965230000000 1.0
C      1  0.3904470000000  0.5101150000000  0.5595440000000 1.0
C      1  0.6022170000000  0.5642670000000  0.4684450000000 1.0
C      1  0.5298780000000  0.4428260000000  0.5117250000000 1.0
C      1  0.4053590000000  0.5136370000000  0.4316070000000 1.0
C      1  0.5796500000000  0.5090320000000  0.5881440000000 1.0
C      1  0.4511220000000  0.5156320000000  0.6000400000000 1.0
C      1  0.4890800000000  0.5574070000000  0.4480670000000 1.0
C      1  0.4733880000000  0.4616430000000  0.3970330000000 1.0
C      1  0.4688420000000  0.5609570000000  0.5874410000000 1.0
C      1  0.4116050000000  0.5394320000000  0.4960540000000 1.0
C      1  0.5865500000000  0.5756290000000  0.4898850000000 1.0
C      1  0.5041610000000  0.5115430000000  0.4845280000000 1.0
C      1  0.3916340000000  0.4959760000000  0.4816890000000 1.0
C      1  0.5584290000000  0.5569890000000  0.4540540000000 1.0
C      1  0.4940960000000  0.5983000000000  0.4642170000000 1.0
C      1  0.4784610000000  0.4173550000000  0.4186970000000 1.0
C      1  0.5413220000000  0.5558190000000  0.4949020000000 1.0
C      1  0.6048410000000  0.5346680000000  0.5636650000000 1.0
C      1  0.5814910000000  0.5260170000000  0.4867240000000 1.0
C      1  0.4688510000000  0.5283630000000  0.5377870000000 1.0
C      1  0.5280880000000  0.4947180000000  0.6083520000000 1.0
C      1  0.4849870000000  0.3953860000000  0.5230830000000 1.0
C      1  0.5337480000000  0.4302590000000  0.5905720000000 1.0
C      1  0.5394990000000  0.4805710000000  0.5846380000000 1.0
C      1  0.4323450000000  0.5562330000000  0.4872830000000 1.0
C      1  0.5521530000000  0.5504310000000  0.5202830000000 1.0
C      1  0.4598780000000  0.5678420000000  0.4523370000000 1.0
C      1  0.5841780000000  0.5421240000000  0.4606900000000 1.0
C      1  0.5343350000000  0.5883420000000  0.4349290000000 1.0
C      1  0.5820570000000  0.4608750000000  0.5191250000000 1.0
C      1  0.4785110000000  0.6198670000000  0.5091610000000 1.0
C      1  0.4504390000000  0.5431750000000  0.4691110000000 1.0
C      1  0.4734210000000  0.4828230000000  0.5150060000000 1.0
C      1  0.5450080000000  0.3902480000000  0.5168710000000 1.0
C      1  0.4354500000000  0.5144590000000  0.4599660000000 1.0
C      1  0.4486470000000  0.3995400000000  0.4950610000000 1.0
C      1  0.5180460000000  0.4724950000000  0.4423330000000 1.0
C      1  0.5830510000000  0.4781790000000  0.4580270000000 1.0
C      1  0.5227540000000  0.4592480000000  0.5369140000000 1.0
C      1  0.5638150000000  0.4179180000000  0.5534200000000 1.0
C      1  0.4727050000000  0.3821870000000  0.4971300000000 1.0
C      1  0.5332790000000  0.4717590000000  0.4677880000000 1.0
C      1  0.4365320000000  0.5901610000000  0.5192930000000 1.0
C      1  0.4954570000000  0.4220200000000  0.5647420000000 1.0
C      1  0.4836650000000  0.4267240000000  0.5183140000000 1.0
C      1  0.5350450000000  0.4754020000000  0.4066930000000 1.0
C      1  0.4046500000000  0.4640690000000  0.5475280000000 1.0
C      1  0.4603960000000  0.6075970000000  0.5274120000000 1.0
C      1  0.4111230000000  0.5402630000000  0.4342170000000 1.0
C      1  0.4083360000000  0.4728390000000  0.5185990000000 1.0
C      1  0.4826760000000  0.5554520000000  0.3928350000000 1.0
C      1  0.4519330000000  0.4758240000000  0.4887210000000 1.0
C      1  0.4249690000000  0.5599640000000  0.5411000000000 1.0
C      1  0.5606950000000  0.5031140000000  0.5395350000000 1.0
C      1  0.4738190000000  0.5417190000000  0.4929850000000 1.0
C      1  0.6134720000000  0.5400750000000  0.5131170000000 1.0
C      1  0.5693730000000  0.4870540000000  0.5156860000000 1.0
C      1  0.4955530000000  0.5825930000000  0.4918050000000 1.0
C      1  0.5429160000000  0.5180000000000  0.6145770000000 1.0
C      1  0.5427510000000  0.5113010000000  0.4450640000000 1.0
C      1  0.4917000000000  0.4710870000000  0.5660330000000 1.0
C      1  0.4289130000000  0.4862140000000  0.5774840000000 1.0
C      1  0.5220840000000  0.5378000000000  0.4807020000000 1.0
C      1  0.5208200000000  0.5934890000000  0.5080000000000 1.0
C      1  0.4681470000000  0.4668380000000  0.4352940000000 1.0
C      1  0.5613280000000  0.4373560000000  0.5082140000000 1.0
C      1  0.4346470000000  0.5850880000000  0.4896150000000 1.0
C      1  0.5429550000000  0.5212120000000  0.5224670000000 1.0
C      1  0.4569100000000  0.5567450000000  0.5395950000000 1.0
C      1  0.5594660000000  0.5066900000000  0.4936370000000 1.0
C      1  0.5007280000000  0.6130980000000  0.5496850000000 1.0
C      1  0.4209950000000  0.4273400000000  0.5277080000000 1.0
C      1  0.5653450000000  0.5124500000000  0.4242320000000 1.0
C      1  0.4592780000000  0.4611260000000  0.5969900000000 1.0
C      1  0.5546010000000  0.5027620000000  0.5704920000000 1.0
C      1  0.5688560000000  0.4454400000000  0.5621000000000 1.0
C      1  0.5403880000000  0.4083650000000  0.5699690000000 1.0
C      1  0.4349150000000  0.5451440000000  0.4207770000000 1.0
C      1  0.5147270000000  0.3893220000000  0.4846800000000 1.0
C      1  0.5138550000000  0.5784780000000  0.4179680000000 1.0
C      1  0.5783510000000  0.4390030000000  0.4289980000000 1.0
C      1  0.4684750000000  0.5129010000000  0.5655140000000 1.0
C      1  0.4909660000000  0.4415860000000  0.4073210000000 1.0
C      1  0.5845030000000  0.5540210000000  0.5643460000000 1.0
C      1  0.3888360000000  0.4352010000000  0.4920270000000 1.0
C      1  0.5623580000000  0.5913170000000  0.5430890000000 1.0
C      1  0.4539710000000  0.4149220000000  0.4473440000000 1.0
C      1  0.6109950000000  0.5101580000000  0.5514210000000 1.0
C      1  0.4178250000000  0.4983440000000  0.4113170000000 1.0
C      1  0.4846670000000  0.5273070000000  0.4388290000000 1.0
C      1  0.4973730000000  0.5551500000000  0.4776170000000 1.0
C      1  0.4945250000000  0.5352100000000  0.5255660000000 1.0
C      1  0.4940730000000  0.4549760000000  0.4494010000000 1.0
C      1  0.4890310000000  0.5898030000000  0.4264830000000 1.0
C      1  0.4491210000000  0.4917310000000  0.5576450000000 1.0
C      1  0.5366680000000  0.5657430000000  0.5818750000000 1.0
C      1  0.5158730000000  0.4029240000000  0.5540150000000 1.0
C      1  0.4310880000000  0.4307860000000  0.4371710000000 1.0
C      1  0.3918650000000  0.5145170000000  0.5304500000000 1.0
C      1  0.4976680000000  0.4416280000000  0.5415790000000 1.0
C      1  0.4206250000000  0.4787750000000  0.4443730000000 1.0
C      1  0.4829830000000  0.5100690000000  0.4635170000000 1.0
C      1  0.5356970000000  0.4239130000000  0.4106180000000 1.0
C      1  0.5120880000000  0.4177680000000  0.4801330000000 1.0
C      1  0.4765310000000  0.5073030000000  0.3776290000000 1.0
END
