TITL C-950531-5884-10 -2.68265445793982e-06 125000 -1164.16485281862 0 0 186 (C1) n - 1
REM
REM in /home/bkarasulu/work/CARBON/AIRSS/Generating-Clusters/EDIP-Nigel-Params/with-SteepDescent/Only-C1/SD-CG/HFTN-CG
REM
REM
REM
REM
REM
REM ./C.cell (11c1c37f851c82e70ff6c80c92926a4b)
REM
REM compiler GCC version 9.2.1 20190827 (Red Hat 9.2.1-1)
REM options -cpp -mtune=generic -march=x86-64 -g -O0 -fpre-include=/usr/include/finclude/math-vector-fortran.h
REM seed 973566343 55469011 74184536 1745213282 -2034906335 486016392 -119340780 13648606 523663921 -3103311 1376968308 -1716939879 1042546963 814098206 1632940970 -1075808883 -1462674477 324287884 969568470 -523491610 -821228547 -988840411 -1160497922 -713590472 -1324462693 -1841914090 1954964279 266071198 500044471 1086003173 -708562745 889208132 -1796441447
REM
CELL 1.54180   50.00000   50.00000   50.00000   90.00000   90.00000   90.00000
LATT -1
SFAC C  
C      1  0.4410810000000  0.5612320000000  0.5116540000000 1.0
C      1  0.4912280000000  0.3864830000000  0.4858490000000 1.0
C      1  0.6031590000000  0.4947770000000  0.4610530000000 1.0
C      1  0.4229980000000  0.4698020000000  0.4930070000000 1.0
C      1  0.5049990000000  0.5557040000000  0.4552840000000 1.0
C      1  0.4840510000000  0.4753800000000  0.4979240000000 1.0
C      1  0.5624010000000  0.4593910000000  0.4831330000000 1.0
C      1  0.3872130000000  0.4738490000000  0.5263410000000 1.0
C      1  0.5281350000000  0.4128630000000  0.5551260000000 1.0
C      1  0.4191540000000  0.5854560000000  0.4911170000000 1.0
C      1  0.5293250000000  0.5365200000000  0.4428990000000 1.0
C      1  0.4261890000000  0.4797420000000  0.5734350000000 1.0
C      1  0.5500020000000  0.4981990000000  0.5707930000000 1.0
C      1  0.5336810000000  0.4810510000000  0.6090210000000 1.0
C      1  0.5400770000000  0.6042180000000  0.4811800000000 1.0
C      1  0.5395490000000  0.6024210000000  0.5340260000000 1.0
C      1  0.5095710000000  0.4889610000000  0.4342190000000 1.0
C      1  0.4459260000000  0.4201330000000  0.4404100000000 1.0
C      1  0.4961860000000  0.4468120000000  0.4080520000000 1.0
C      1  0.5204680000000  0.4437770000000  0.4971180000000 1.0
C      1  0.5461320000000  0.4561020000000  0.5394870000000 1.0
C      1  0.4570630000000  0.5029360000000  0.4355470000000 1.0
C      1  0.5405560000000  0.5379140000000  0.4891040000000 1.0
C      1  0.4604760000000  0.6072240000000  0.5351680000000 1.0
C      1  0.5790260000000  0.5390930000000  0.5167520000000 1.0
C      1  0.5728160000000  0.4203600000000  0.5332550000000 1.0
C      1  0.4676950000000  0.4641260000000  0.5722120000000 1.0
C      1  0.4727860000000  0.4294680000000  0.4954590000000 1.0
C      1  0.4386860000000  0.4315760000000  0.4669640000000 1.0
C      1  0.4547050000000  0.5376480000000  0.4651230000000 1.0
C      1  0.4483190000000  0.4361530000000  0.5152430000000 1.0
C      1  0.4563120000000  0.5814790000000  0.4618860000000 1.0
C      1  0.5124560000000  0.4055370000000  0.5296950000000 1.0
C      1  0.4296810000000  0.5454620000000  0.4258950000000 1.0
C      1  0.5965240000000  0.5066300000000  0.5426330000000 1.0
C      1  0.5203750000000  0.4902230000000  0.5687940000000 1.0
C      1  0.4569350000000  0.6122740000000  0.5045530000000 1.0
C      1  0.4340770000000  0.5043020000000  0.3986990000000 1.0
C      1  0.4391050000000  0.4891060000000  0.5082970000000 1.0
C      1  0.4232060000000  0.4542510000000  0.5573900000000 1.0
C      1  0.4737410000000  0.4550310000000  0.4804430000000 1.0
C      1  0.5002880000000  0.4312040000000  0.5143060000000 1.0
C      1  0.5128760000000  0.5765760000000  0.4772620000000 1.0
C      1  0.5549850000000  0.4980290000000  0.5999980000000 1.0
C      1  0.4065620000000  0.4580090000000  0.4404120000000 1.0
C      1  0.5469900000000  0.5830210000000  0.4365990000000 1.0
C      1  0.4067610000000  0.5282040000000  0.5516080000000 1.0
C      1  0.6009320000000  0.4581010000000  0.5049150000000 1.0
C      1  0.3921220000000  0.4518860000000  0.4659710000000 1.0
C      1  0.4987490000000  0.5336260000000  0.5881730000000 1.0
C      1  0.4871830000000  0.5144270000000  0.5442720000000 1.0
C      1  0.5466200000000  0.4565140000000  0.4420270000000 1.0
C      1  0.5544260000000  0.5836050000000  0.5177310000000 1.0
C      1  0.5177820000000  0.5168780000000  0.4223350000000 1.0
C      1  0.4195430000000  0.4435870000000  0.5072070000000 1.0
C      1  0.5646360000000  0.4879560000000  0.4875200000000 1.0
C      1  0.5659920000000  0.5866200000000  0.5723430000000 1.0
C      1  0.5368840000000  0.5106070000000  0.4004000000000 1.0
C      1  0.3976960000000  0.4802580000000  0.4801850000000 1.0
C      1  0.5773030000000  0.5675700000000  0.4776760000000 1.0
C      1  0.6026960000000  0.4502970000000  0.5553000000000 1.0
C      1  0.5340530000000  0.5216860000000  0.4672100000000 1.0
C      1  0.4455460000000  0.4337200000000  0.5621120000000 1.0
C      1  0.4822450000000  0.4880810000000  0.4447490000000 1.0
C      1  0.5278610000000  0.5723280000000  0.5993800000000 1.0
C      1  0.4850440000000  0.4963960000000  0.3954120000000 1.0
C      1  0.4797900000000  0.5465660000000  0.4205060000000 1.0
C      1  0.5565430000000  0.4671620000000  0.4151490000000 1.0
C      1  0.4459640000000  0.4174260000000  0.5373720000000 1.0
C      1  0.5153030000000  0.5481240000000  0.6053620000000 1.0
C      1  0.5819480000000  0.4813610000000  0.4205960000000 1.0
C      1  0.5833560000000  0.4605000000000  0.5728600000000 1.0
C      1  0.5069480000000  0.4751340000000  0.4059390000000 1.0
C      1  0.6025070000000  0.4404230000000  0.4817050000000 1.0
C      1  0.4502000000000  0.5042930000000  0.4847010000000 1.0
C      1  0.4491790000000  0.4774280000000  0.5929830000000 1.0
C      1  0.4054350000000  0.4533270000000  0.5325270000000 1.0
C      1  0.5289230000000  0.4771530000000  0.4564520000000 1.0
C      1  0.5951950000000  0.4931270000000  0.4899100000000 1.0
C      1  0.4109680000000  0.5070810000000  0.4604440000000 1.0
C      1  0.4306950000000  0.6036730000000  0.5094460000000 1.0
C      1  0.5183710000000  0.4694870000000  0.5427080000000 1.0
C      1  0.4730560000000  0.5664870000000  0.5014180000000 1.0
C      1  0.4772420000000  0.4599620000000  0.4521760000000 1.0
C      1  0.5141640000000  0.4488500000000  0.5837990000000 1.0
C      1  0.4737760000000  0.4059320000000  0.4762530000000 1.0
C      1  0.5846620000000  0.5117840000000  0.4202810000000 1.0
C      1  0.5382980000000  0.4535500000000  0.5979000000000 1.0
C      1  0.5838070000000  0.5311690000000  0.5454510000000 1.0
C      1  0.5084040000000  0.4231470000000  0.5741140000000 1.0
C      1  0.5317290000000  0.3874150000000  0.4614060000000 1.0
C      1  0.4300130000000  0.5414740000000  0.5645020000000 1.0
C      1  0.4915600000000  0.5763880000000  0.4254490000000 1.0
C      1  0.5077880000000  0.5144300000000  0.5215520000000 1.0
C      1  0.5776460000000  0.3977580000000  0.4886960000000 1.0
C      1  0.4614800000000  0.4721700000000  0.5204770000000 1.0
C      1  0.5207520000000  0.5567570000000  0.4969150000000 1.0
C      1  0.5525390000000  0.4301620000000  0.5542540000000 1.0
C      1  0.5574310000000  0.5283480000000  0.5609160000000 1.0
C      1  0.4692720000000  0.5798100000000  0.5775310000000 1.0
C      1  0.4606000000000  0.3937490000000  0.5341690000000 1.0
C      1  0.4914570000000  0.4380320000000  0.4369440000000 1.0
C      1  0.5419410000000  0.5977040000000  0.5627920000000 1.0
C      1  0.4402220000000  0.4993090000000  0.5555000000000 1.0
C      1  0.6010660000000  0.4129730000000  0.4871240000000 1.0
C      1  0.5956510000000  0.4405630000000  0.5297140000000 1.0
C      1  0.4855420000000  0.3990510000000  0.5445730000000 1.0
C      1  0.3787050000000  0.5155260000000  0.5042770000000 1.0
C      1  0.4271060000000  0.5822940000000  0.4631460000000 1.0
C      1  0.5569200000000  0.5691610000000  0.5932720000000 1.0
C      1  0.4417160000000  0.4397640000000  0.4199950000000 1.0
C      1  0.5144350000000  0.4716860000000  0.4917030000000 1.0
C      1  0.5314360000000  0.5351660000000  0.5349730000000 1.0
C      1  0.4750940000000  0.4111580000000  0.4457800000000 1.0
C      1  0.5573850000000  0.5234950000000  0.6109280000000 1.0
C      1  0.4384240000000  0.4935640000000  0.4581030000000 1.0
C      1  0.4916590000000  0.4646490000000  0.5901630000000 1.0
C      1  0.5655150000000  0.5682750000000  0.4223160000000 1.0
C      1  0.4840330000000  0.4272510000000  0.5575940000000 1.0
C      1  0.5626520000000  0.4409240000000  0.5824330000000 1.0
C      1  0.5503760000000  0.4219350000000  0.4638110000000 1.0
C      1  0.4523350000000  0.5293110000000  0.5852700000000 1.0
C      1  0.4333660000000  0.4616870000000  0.4562480000000 1.0
C      1  0.4749280000000  0.5485060000000  0.5776760000000 1.0
C      1  0.5135680000000  0.6118270000000  0.4935050000000 1.0
C      1  0.5633530000000  0.3947240000000  0.4630230000000 1.0
C      1  0.4197380000000  0.5419630000000  0.4995150000000 1.0
C      1  0.5815680000000  0.4487460000000  0.4622150000000 1.0
C      1  0.5480660000000  0.4976150000000  0.4649170000000 1.0
C      1  0.5580330000000  0.4111760000000  0.5075490000000 1.0
C      1  0.3805050000000  0.4879260000000  0.5030210000000 1.0
C      1  0.5539340000000  0.4967070000000  0.5137790000000 1.0
C      1  0.3928410000000  0.5386560000000  0.5107580000000 1.0
C      1  0.5963280000000  0.5244550000000  0.4962260000000 1.0
C      1  0.5621800000000  0.5251050000000  0.4046300000000 1.0
C      1  0.4489250000000  0.5856850000000  0.5554020000000 1.0
C      1  0.4747610000000  0.5944330000000  0.4424450000000 1.0
C      1  0.5897210000000  0.5397250000000  0.4714620000000 1.0
C      1  0.4564520000000  0.5340800000000  0.4352970000000 1.0
C      1  0.5188160000000  0.3833340000000  0.4874330000000 1.0
C      1  0.5203760000000  0.5837890000000  0.4263510000000 1.0
C      1  0.4923870000000  0.5226740000000  0.4965060000000 1.0
C      1  0.5763420000000  0.4892920000000  0.5334280000000 1.0
C      1  0.5625520000000  0.5404080000000  0.5889040000000 1.0
C      1  0.5224630000000  0.5628270000000  0.5251700000000 1.0
C      1  0.5194480000000  0.5854310000000  0.5752220000000 1.0
C      1  0.4451670000000  0.5582980000000  0.5432930000000 1.0
C      1  0.4146940000000  0.5578480000000  0.4501390000000 1.0
C      1  0.4782900000000  0.5007680000000  0.4866110000000 1.0
C      1  0.4214480000000  0.5087570000000  0.5357380000000 1.0
C      1  0.4168200000000  0.5213660000000  0.4134790000000 1.0
C      1  0.4932050000000  0.5946480000000  0.5682480000000 1.0
C      1  0.5770060000000  0.5685550000000  0.5076030000000 1.0
C      1  0.4228340000000  0.5362510000000  0.4703710000000 1.0
C      1  0.3901060000000  0.5459150000000  0.5375550000000 1.0
C      1  0.4669310000000  0.4863310000000  0.5476280000000 1.0
C      1  0.4813840000000  0.5455010000000  0.4800950000000 1.0
C      1  0.4096550000000  0.4299110000000  0.4793810000000 1.0
C      1  0.4898760000000  0.6097210000000  0.4633900000000 1.0
C      1  0.4898700000000  0.5969710000000  0.5385990000000 1.0
C      1  0.4946700000000  0.5250570000000  0.4060390000000 1.0
C      1  0.5485530000000  0.4419610000000  0.5035340000000 1.0
C      1  0.4749540000000  0.5454900000000  0.5465140000000 1.0
C      1  0.5233880000000  0.4874700000000  0.5171930000000 1.0
C      1  0.4565480000000  0.4861370000000  0.4002350000000 1.0
C      1  0.3963800000000  0.4796890000000  0.4259400000000 1.0
C      1  0.4947180000000  0.4491540000000  0.5376230000000 1.0
C      1  0.4757880000000  0.4421790000000  0.3896310000000 1.0
C      1  0.5642850000000  0.4759670000000  0.5550850000000 1.0
C      1  0.4645900000000  0.5029390000000  0.5978020000000 1.0
C      1  0.5601070000000  0.5412730000000  0.4299870000000 1.0
C      1  0.5129260000000  0.6111040000000  0.5237910000000 1.0
C      1  0.5940680000000  0.4716380000000  0.4456550000000 1.0
C      1  0.5065810000000  0.5160220000000  0.5660320000000 1.0
C      1  0.4534220000000  0.4555120000000  0.3995420000000 1.0
C      1  0.5365760000000  0.4805540000000  0.3969120000000 1.0
C      1  0.5326530000000  0.3936460000000  0.5109920000000 1.0
C      1  0.4732380000000  0.5943500000000  0.4868340000000 1.0
C      1  0.4982830000000  0.4913680000000  0.6008350000000 1.0
C      1  0.4001940000000  0.5064270000000  0.4327870000000 1.0
C      1  0.5939290000000  0.5203730000000  0.4487900000000 1.0
C      1  0.5340210000000  0.4285680000000  0.4393640000000 1.0
C      1  0.4911980000000  0.5675550000000  0.5285140000000 1.0
C      1  0.5139540000000  0.4068380000000  0.4434080000000 1.0
C      1  0.5542070000000  0.5841040000000  0.4651420000000 1.0
C      1  0.5517780000000  0.5267630000000  0.5133330000000 1.0
END
