TITL C-950526-5686-176 -1.4808574559643e-07 125000 -1002.88440722032 0 0 162 (C1) n - 1
REM
REM in /home/bkarasulu/work/CARBON/AIRSS/Generating-Clusters/EDIP-Nigel-Params/with-SteepDescent/Only-C1/SD-CG/HFTN-CG
REM
REM
REM
REM
REM
REM ./C.cell (11c1c37f851c82e70ff6c80c92926a4b)
REM
REM compiler GCC version 9.2.1 20190827 (Red Hat 9.2.1-1)
REM options -cpp -mtune=generic -march=x86-64 -g -O0 -fpre-include=/usr/include/finclude/math-vector-fortran.h
REM seed 1117289803 -404563596 564804793 -1091904802 455941052 1666261298 1941343850 1895689878 1266245949 1754797938 -961459539 -888223040 -1894266553 -205279232 -983300587 688641340 -292348797 1422561059 1310972836 -1122283480 -448110091 1123409405 1431184185 -1439961076 1396295239 -1777146906 1930153132 1381159846 1737312589 -791992504 1731189675 -990208388 1615706548
REM
CELL 1.54180   50.00000   50.00000   50.00000   90.00000   90.00000   90.00000
LATT -1
SFAC C  
C      1  0.4818250000000  0.5283840000000  0.6153830000000 1.0
C      1  0.4601450000000  0.4444120000000  0.5722300000000 1.0
C      1  0.5060130000000  0.4284040000000  0.5091740000000 1.0
C      1  0.6075860000000  0.4977210000000  0.4814370000000 1.0
C      1  0.4649520000000  0.5520880000000  0.4744770000000 1.0
C      1  0.4042070000000  0.4710960000000  0.5736950000000 1.0
C      1  0.4194170000000  0.5450500000000  0.4362530000000 1.0
C      1  0.5557040000000  0.4170650000000  0.5209140000000 1.0
C      1  0.5914430000000  0.4395840000000  0.5009760000000 1.0
C      1  0.4609350000000  0.5952460000000  0.5145360000000 1.0
C      1  0.4306210000000  0.4242590000000  0.5410380000000 1.0
C      1  0.5117370000000  0.4581210000000  0.5148450000000 1.0
C      1  0.4891650000000  0.5971580000000  0.4678950000000 1.0
C      1  0.4892380000000  0.5483200000000  0.5259430000000 1.0
C      1  0.5637090000000  0.5790270000000  0.5095710000000 1.0
C      1  0.4744120000000  0.4991130000000  0.5171650000000 1.0
C      1  0.4525380000000  0.4797090000000  0.4806200000000 1.0
C      1  0.4421490000000  0.5491070000000  0.5370330000000 1.0
C      1  0.4677430000000  0.4551500000000  0.4468690000000 1.0
C      1  0.4457460000000  0.5041020000000  0.4649600000000 1.0
C      1  0.4238940000000  0.5593360000000  0.5115350000000 1.0
C      1  0.5377610000000  0.4664260000000  0.5303480000000 1.0
C      1  0.5087070000000  0.4084640000000  0.5314480000000 1.0
C      1  0.4006160000000  0.5712500000000  0.5247070000000 1.0
C      1  0.5711110000000  0.5056690000000  0.4466820000000 1.0
C      1  0.5427540000000  0.6047520000000  0.4739400000000 1.0
C      1  0.5837470000000  0.5437280000000  0.5570990000000 1.0
C      1  0.4010240000000  0.4493400000000  0.5095650000000 1.0
C      1  0.4547520000000  0.4849030000000  0.4073000000000 1.0
C      1  0.5589790000000  0.4406250000000  0.4184160000000 1.0
C      1  0.5006680000000  0.5006720000000  0.4294310000000 1.0
C      1  0.5439360000000  0.4980760000000  0.4620190000000 1.0
C      1  0.4255800000000  0.4675150000000  0.4425660000000 1.0
C      1  0.4693920000000  0.4316590000000  0.4721300000000 1.0
C      1  0.4723920000000  0.5238000000000  0.5345160000000 1.0
C      1  0.5445010000000  0.5083530000000  0.4905030000000 1.0
C      1  0.5230180000000  0.5161950000000  0.4472150000000 1.0
C      1  0.4387490000000  0.5822740000000  0.4992580000000 1.0
C      1  0.5804350000000  0.5155710000000  0.5620730000000 1.0
C      1  0.4786080000000  0.5626850000000  0.5006210000000 1.0
C      1  0.5854840000000  0.4580470000000  0.4523000000000 1.0
C      1  0.4660560000000  0.4033670000000  0.5132380000000 1.0
C      1  0.5046250000000  0.5323590000000  0.5703250000000 1.0
C      1  0.4847260000000  0.5711590000000  0.5507570000000 1.0
C      1  0.5028900000000  0.3936630000000  0.4812880000000 1.0
C      1  0.5640330000000  0.4309730000000  0.4858450000000 1.0
C      1  0.4155640000000  0.4256130000000  0.5151140000000 1.0
C      1  0.4232390000000  0.5044210000000  0.5158180000000 1.0
C      1  0.4461940000000  0.4897860000000  0.5814920000000 1.0
C      1  0.4406250000000  0.5813800000000  0.4707960000000 1.0
C      1  0.5620650000000  0.5537340000000  0.4281800000000 1.0
C      1  0.5606600000000  0.5250780000000  0.4253490000000 1.0
C      1  0.4191020000000  0.5383110000000  0.4877820000000 1.0
C      1  0.4690660000000  0.4712420000000  0.5829840000000 1.0
C      1  0.4894650000000  0.5917300000000  0.4979090000000 1.0
C      1  0.5431560000000  0.5090930000000  0.5540620000000 1.0
C      1  0.5387300000000  0.5560970000000  0.5874460000000 1.0
C      1  0.5297830000000  0.5521690000000  0.4873060000000 1.0
C      1  0.5289140000000  0.5353570000000  0.5504500000000 1.0
C      1  0.5307230000000  0.4330340000000  0.4589150000000 1.0
C      1  0.5956210000000  0.4940400000000  0.5486570000000 1.0
C      1  0.4826640000000  0.5129120000000  0.5607220000000 1.0
C      1  0.5523920000000  0.4380010000000  0.5918520000000 1.0
C      1  0.5499890000000  0.4851510000000  0.3959740000000 1.0
C      1  0.5536540000000  0.5351170000000  0.4941590000000 1.0
C      1  0.4407510000000  0.5109360000000  0.4092190000000 1.0
C      1  0.5321810000000  0.4637430000000  0.4680710000000 1.0
C      1  0.5670610000000  0.4341280000000  0.4465550000000 1.0
C      1  0.4879210000000  0.4794740000000  0.4471750000000 1.0
C      1  0.5378160000000  0.5906450000000  0.4504330000000 1.0
C      1  0.5994960000000  0.4727040000000  0.4991270000000 1.0
C      1  0.5020840000000  0.4184220000000  0.5739830000000 1.0
C      1  0.5323070000000  0.4150440000000  0.5681100000000 1.0
C      1  0.4632580000000  0.4396280000000  0.4204250000000 1.0
C      1  0.5619120000000  0.4690130000000  0.4161270000000 1.0
C      1  0.4765130000000  0.4733360000000  0.6117660000000 1.0
C      1  0.5986620000000  0.5491100000000  0.5344650000000 1.0
C      1  0.5142270000000  0.4659540000000  0.5897660000000 1.0
C      1  0.5088270000000  0.5847320000000  0.4492520000000 1.0
C      1  0.4875040000000  0.4816020000000  0.4768730000000 1.0
C      1  0.5066930000000  0.4930080000000  0.3913990000000 1.0
C      1  0.4416500000000  0.4613050000000  0.4182100000000 1.0
C      1  0.4578290000000  0.4077790000000  0.5416590000000 1.0
C      1  0.5243220000000  0.5481450000000  0.4324240000000 1.0
C      1  0.4818930000000  0.4763370000000  0.3987790000000 1.0
C      1  0.5021490000000  0.4848130000000  0.6094700000000 1.0
C      1  0.4369790000000  0.5747100000000  0.5525680000000 1.0
C      1  0.5985400000000  0.5433640000000  0.5083350000000 1.0
C      1  0.5381970000000  0.5835740000000  0.4941130000000 1.0
C      1  0.4343680000000  0.5276890000000  0.5563970000000 1.0
C      1  0.4951710000000  0.5761600000000  0.4243270000000 1.0
C      1  0.5064510000000  0.5428590000000  0.4077820000000 1.0
C      1  0.4906860000000  0.4821440000000  0.5622140000000 1.0
C      1  0.4778050000000  0.4250840000000  0.5582320000000 1.0
C      1  0.5814050000000  0.4802650000000  0.4332550000000 1.0
C      1  0.4282490000000  0.4138160000000  0.4929360000000 1.0
C      1  0.5199780000000  0.5212630000000  0.3922230000000 1.0
C      1  0.4864770000000  0.5552810000000  0.5788620000000 1.0
C      1  0.5777350000000  0.4733480000000  0.4764640000000 1.0
C      1  0.4654350000000  0.5390160000000  0.5952740000000 1.0
C      1  0.5185500000000  0.5387430000000  0.5212860000000 1.0
C      1  0.5347300000000  0.4316030000000  0.4085130000000 1.0
C      1  0.5319400000000  0.4246350000000  0.6062710000000 1.0
C      1  0.5291510000000  0.4939230000000  0.5341210000000 1.0
C      1  0.5849270000000  0.4839240000000  0.5222130000000 1.0
C      1  0.5476440000000  0.5139360000000  0.4009620000000 1.0
C      1  0.4752430000000  0.4307700000000  0.5047970000000 1.0
C      1  0.5068180000000  0.4365920000000  0.5970520000000 1.0
C      1  0.4870330000000  0.4471780000000  0.4051670000000 1.0
C      1  0.4846980000000  0.5288610000000  0.4246350000000 1.0
C      1  0.4855640000000  0.4079540000000  0.4609570000000 1.0
C      1  0.4655560000000  0.5775150000000  0.4304410000000 1.0
C      1  0.5096880000000  0.4349270000000  0.4199640000000 1.0
C      1  0.5205370000000  0.5095430000000  0.5092440000000 1.0
C      1  0.3997820000000  0.5074840000000  0.4981800000000 1.0
C      1  0.4042670000000  0.4611030000000  0.4840340000000 1.0
C      1  0.4398810000000  0.4275360000000  0.4716420000000 1.0
C      1  0.5363810000000  0.4062140000000  0.5398740000000 1.0
C      1  0.5580560000000  0.5588280000000  0.5603640000000 1.0
C      1  0.4118670000000  0.5857610000000  0.5452610000000 1.0
C      1  0.4432520000000  0.4510540000000  0.5480000000000 1.0
C      1  0.5057020000000  0.5143570000000  0.6101620000000 1.0
C      1  0.5574580000000  0.5687590000000  0.4523230000000 1.0
C      1  0.5276150000000  0.4748790000000  0.3824280000000 1.0
C      1  0.5165620000000  0.5936630000000  0.5112990000000 1.0
C      1  0.4466580000000  0.5543800000000  0.4269520000000 1.0
C      1  0.4468270000000  0.5287050000000  0.4813130000000 1.0
C      1  0.4899320000000  0.3866720000000  0.5078380000000 1.0
C      1  0.4611050000000  0.5885510000000  0.5442270000000 1.0
C      1  0.4558180000000  0.5176810000000  0.5754350000000 1.0
C      1  0.4099080000000  0.5501100000000  0.4627180000000 1.0
C      1  0.4584570000000  0.5338930000000  0.4105130000000 1.0
C      1  0.4625490000000  0.5918850000000  0.4555670000000 1.0
C      1  0.5803840000000  0.4715550000000  0.5640960000000 1.0
C      1  0.5762620000000  0.5683860000000  0.4751120000000 1.0
C      1  0.3982830000000  0.4898090000000  0.4752980000000 1.0
C      1  0.5092530000000  0.5329640000000  0.4699240000000 1.0
C      1  0.4192700000000  0.5053990000000  0.5449300000000 1.0
C      1  0.5815410000000  0.5409310000000  0.4855030000000 1.0
C      1  0.4879000000000  0.5466770000000  0.4529260000000 1.0
C      1  0.4266040000000  0.4798860000000  0.5609630000000 1.0
C      1  0.5434840000000  0.4651850000000  0.5922470000000 1.0
C      1  0.4301850000000  0.4560030000000  0.4701880000000 1.0
C      1  0.4653200000000  0.4529730000000  0.5259680000000 1.0
C      1  0.5536250000000  0.5793170000000  0.5382010000000 1.0
C      1  0.5681500000000  0.4615730000000  0.5361330000000 1.0
C      1  0.5179660000000  0.5763680000000  0.5854940000000 1.0
C      1  0.4866210000000  0.4733240000000  0.5312960000000 1.0
C      1  0.5089250000000  0.5878270000000  0.5595590000000 1.0
C      1  0.5223760000000  0.4168320000000  0.4844950000000 1.0
C      1  0.4170190000000  0.5162150000000  0.4276630000000 1.0
C      1  0.4195410000000  0.4965720000000  0.4516410000000 1.0
C      1  0.5541670000000  0.4589550000000  0.4862130000000 1.0
C      1  0.5102750000000  0.4667920000000  0.4865860000000 1.0
C      1  0.5252480000000  0.5837700000000  0.5367220000000 1.0
C      1  0.5296110000000  0.5293330000000  0.5996170000000 1.0
C      1  0.4474800000000  0.4890460000000  0.5083240000000 1.0
C      1  0.5594610000000  0.4846760000000  0.5792310000000 1.0
C      1  0.5911230000000  0.5175460000000  0.4672660000000 1.0
C      1  0.4926300000000  0.5068450000000  0.4934170000000 1.0
C      1  0.5033640000000  0.4144610000000  0.4387580000000 1.0
C      1  0.5779140000000  0.4344890000000  0.5271060000000 1.0
END
