TITL C-951345-2650-408 -1.57768877324931e-06 125000 -361.924424409047 0 0 59 (C1) n - 1
REM
REM in /home/bkarasulu/work/CARBON/AIRSS/Generating-Clusters/EDIP-Nigel-Params/with-SteepDescent/Only-C1/SD-CG/HFTN-CG
REM
REM
REM
REM
REM
REM ./C.cell (11c1c37f851c82e70ff6c80c92926a4b)
REM
REM compiler GCC version 9.2.1 20190827 (Red Hat 9.2.1-1)
REM options -cpp -mtune=generic -march=x86-64 -g -O0 -fpre-include=/usr/include/finclude/math-vector-fortran.h
REM seed -1909374866 -1256245789 -598249013 -282085270 1228532681 -1419405215 -1066265156 1045130395 -891130805 708208953 -903156428 -1336592710 944480189 -676065234 -1557424901 1315904107 -1236423473 1831899775 -1343311625 1944438800 480485049 1302944913 -398545442 -314943483 206074145 1286761206 -18909760 -1090984940 1892040129 1603609748 334351676 662964921 -1993600456
REM
CELL 1.54180   50.00000   50.00000   50.00000   90.00000   90.00000   90.00000
LATT -1
SFAC C  
C      1  0.5014960000000  0.4939690000000  0.4394370000000 1.0
C      1  0.5309040000000  0.4429090000000  0.4834870000000 1.0
C      1  0.5678680000000  0.4709000000000  0.5383210000000 1.0
C      1  0.4602740000000  0.4264920000000  0.4990350000000 1.0
C      1  0.4534090000000  0.5478610000000  0.4907480000000 1.0
C      1  0.4828920000000  0.4349570000000  0.5552230000000 1.0
C      1  0.4288550000000  0.4790470000000  0.4787250000000 1.0
C      1  0.4520870000000  0.5172600000000  0.4529860000000 1.0
C      1  0.4859910000000  0.5740250000000  0.4675720000000 1.0
C      1  0.5404330000000  0.4676140000000  0.5395640000000 1.0
C      1  0.5196350000000  0.5156060000000  0.5106510000000 1.0
C      1  0.5730760000000  0.4841580000000  0.5143950000000 1.0
C      1  0.5746330000000  0.5178830000000  0.4832040000000 1.0
C      1  0.4795550000000  0.4627250000000  0.5608530000000 1.0
C      1  0.5036850000000  0.4656790000000  0.4473890000000 1.0
C      1  0.4831790000000  0.5006690000000  0.4192070000000 1.0
C      1  0.5075770000000  0.4169030000000  0.5173120000000 1.0
C      1  0.4682900000000  0.5217310000000  0.4295910000000 1.0
C      1  0.4821100000000  0.5457720000000  0.4299500000000 1.0
C      1  0.4799970000000  0.5523500000000  0.5419700000000 1.0
C      1  0.5199240000000  0.5398070000000  0.4597240000000 1.0
C      1  0.5024220000000  0.5390140000000  0.5575670000000 1.0
C      1  0.5698150000000  0.5128940000000  0.5109570000000 1.0
C      1  0.4919420000000  0.5626820000000  0.5152480000000 1.0
C      1  0.4618830000000  0.4980260000000  0.4917140000000 1.0
C      1  0.5368630000000  0.4905750000000  0.4688980000000 1.0
C      1  0.5231210000000  0.5109910000000  0.4507760000000 1.0
C      1  0.5363220000000  0.5525170000000  0.4792300000000 1.0
C      1  0.4862910000000  0.4354770000000  0.5263180000000 1.0
C      1  0.5204050000000  0.4906640000000  0.4956460000000 1.0
C      1  0.5245660000000  0.4649440000000  0.5137800000000 1.0
C      1  0.4947960000000  0.4635390000000  0.5192560000000 1.0
C      1  0.4944140000000  0.5096960000000  0.5610200000000 1.0
C      1  0.5296130000000  0.4622350000000  0.4611970000000 1.0
C      1  0.4446060000000  0.4425090000000  0.5150740000000 1.0
C      1  0.5091430000000  0.4249700000000  0.4900080000000 1.0
C      1  0.5476250000000  0.5543390000000  0.5053450000000 1.0
C      1  0.4678840000000  0.5256930000000  0.5048230000000 1.0
C      1  0.4864160000000  0.4776210000000  0.4919280000000 1.0
C      1  0.5451120000000  0.5278230000000  0.5203890000000 1.0
C      1  0.4809230000000  0.4547760000000  0.4614310000000 1.0
C      1  0.4987130000000  0.5570330000000  0.4491370000000 1.0
C      1  0.5017910000000  0.4813650000000  0.5690430000000 1.0
C      1  0.5668680000000  0.4930740000000  0.4716570000000 1.0
C      1  0.4980800000000  0.5336610000000  0.5027190000000 1.0
C      1  0.4670410000000  0.5070030000000  0.5516390000000 1.0
C      1  0.4435570000000  0.5403420000000  0.4658240000000 1.0
C      1  0.4606000000000  0.5299280000000  0.5344600000000 1.0
C      1  0.4618490000000  0.4790670000000  0.5443130000000 1.0
C      1  0.5295350000000  0.5477300000000  0.5490680000000 1.0
C      1  0.4826740000000  0.4347920000000  0.4819680000000 1.0
C      1  0.4356400000000  0.4878060000000  0.5049290000000 1.0
C      1  0.5274840000000  0.4719100000000  0.5638110000000 1.0
C      1  0.5341270000000  0.5690540000000  0.5282750000000 1.0
C      1  0.4414340000000  0.4683410000000  0.5258530000000 1.0
C      1  0.4725230000000  0.5706200000000  0.4922990000000 1.0
C      1  0.4387010000000  0.4932490000000  0.4573040000000 1.0
C      1  0.5119590000000  0.5832860000000  0.5190560000000 1.0
C      1  0.5773930000000  0.4724380000000  0.4886970000000 1.0
END
