TITL C-951342-2639-700 -2.03442309171233e-06 125000 -338.350441864644 0 0 55 (C1) n - 1
REM
REM in /home/bkarasulu/work/CARBON/AIRSS/Generating-Clusters/EDIP-Nigel-Params/with-SteepDescent/Only-C1/SD-CG/HFTN-CG
REM
REM
REM
REM
REM
REM ./C.cell (11c1c37f851c82e70ff6c80c92926a4b)
REM
REM compiler GCC version 9.2.1 20190827 (Red Hat 9.2.1-1)
REM options -cpp -mtune=generic -march=x86-64 -g -O0 -fpre-include=/usr/include/finclude/math-vector-fortran.h
REM seed 725004320 1082645028 -888222768 -1620417220 962696536 -1755115718 1832769281 2010113342 -1469760157 -1959158814 -1472513003 -730148313 2126811761 -651747098 222072178 2086518396 376913294 216935197 654639478 -2097930224 1236713907 1376919732 -361572920 2061921518 865573719 811376546 -975233364 -1067858736 -1111201226 773618201 -400771697 1597472929 -1535945028
REM
CELL 1.54180   50.00000   50.00000   50.00000   90.00000   90.00000   90.00000
LATT -1
SFAC C  
C      1  0.4896380000000  0.5728100000000  0.5344590000000 1.0
C      1  0.4479850000000  0.4635880000000  0.4431900000000 1.0
C      1  0.4589960000000  0.4876240000000  0.5533540000000 1.0
C      1  0.5294760000000  0.4933990000000  0.4721740000000 1.0
C      1  0.4676050000000  0.5308210000000  0.5075260000000 1.0
C      1  0.5202130000000  0.4324600000000  0.5112540000000 1.0
C      1  0.4481600000000  0.4439890000000  0.4897650000000 1.0
C      1  0.5312080000000  0.4466280000000  0.4894430000000 1.0
C      1  0.4325100000000  0.5023390000000  0.5175120000000 1.0
C      1  0.4959680000000  0.5186510000000  0.5090640000000 1.0
C      1  0.4922120000000  0.5710060000000  0.4834640000000 1.0
C      1  0.5026200000000  0.5091280000000  0.4796660000000 1.0
C      1  0.5709520000000  0.5048460000000  0.5268410000000 1.0
C      1  0.4606030000000  0.5336030000000  0.4638030000000 1.0
C      1  0.5692770000000  0.4731680000000  0.4963180000000 1.0
C      1  0.5225130000000  0.4736400000000  0.4502700000000 1.0
C      1  0.4423170000000  0.4780460000000  0.5307390000000 1.0
C      1  0.4883120000000  0.4830580000000  0.5489090000000 1.0
C      1  0.4579290000000  0.5173430000000  0.5560160000000 1.0
C      1  0.4765030000000  0.4621490000000  0.4427540000000 1.0
C      1  0.4947950000000  0.4531230000000  0.5474870000000 1.0
C      1  0.5516560000000  0.4956610000000  0.5461800000000 1.0
C      1  0.4594840000000  0.4569790000000  0.5157950000000 1.0
C      1  0.4843080000000  0.5173170000000  0.4550020000000 1.0
C      1  0.5678860000000  0.5245610000000  0.4807540000000 1.0
C      1  0.5041890000000  0.5037800000000  0.5651150000000 1.0
C      1  0.4972880000000  0.4901230000000  0.5197230000000 1.0
C      1  0.5405220000000  0.4742430000000  0.4950530000000 1.0
C      1  0.5618700000000  0.5253490000000  0.5081710000000 1.0
C      1  0.5435530000000  0.5455390000000  0.5169460000000 1.0
C      1  0.4517310000000  0.5150930000000  0.4864450000000 1.0
C      1  0.4432940000000  0.4680290000000  0.4712590000000 1.0
C      1  0.4804370000000  0.4728470000000  0.5003030000000 1.0
C      1  0.5368230000000  0.5647300000000  0.4979010000000 1.0
C      1  0.5247700000000  0.5371680000000  0.5372750000000 1.0
C      1  0.5289250000000  0.5123100000000  0.5512410000000 1.0
C      1  0.5227410000000  0.5359250000000  0.4595380000000 1.0
C      1  0.5473510000000  0.5167180000000  0.4631740000000 1.0
C      1  0.5269720000000  0.4789500000000  0.5223260000000 1.0
C      1  0.4699410000000  0.5582080000000  0.4725820000000 1.0
C      1  0.5860880000000  0.4846590000000  0.5142430000000 1.0
C      1  0.4894020000000  0.5819190000000  0.5090680000000 1.0
C      1  0.4983490000000  0.5474100000000  0.5427240000000 1.0
C      1  0.4996840000000  0.5066740000000  0.4205680000000 1.0
C      1  0.5201700000000  0.4512940000000  0.5322590000000 1.0
C      1  0.5158180000000  0.4481260000000  0.4647870000000 1.0
C      1  0.4691410000000  0.4286230000000  0.4772100000000 1.0
C      1  0.4861820000000  0.4509650000000  0.4686790000000 1.0
C      1  0.4858090000000  0.5281520000000  0.5621390000000 1.0
C      1  0.5044220000000  0.5326090000000  0.4339010000000 1.0
C      1  0.4637690000000  0.4878640000000  0.4802930000000 1.0
C      1  0.5188560000000  0.5608160000000  0.4770120000000 1.0
C      1  0.4736590000000  0.4394270000000  0.5344680000000 1.0
C      1  0.4465410000000  0.5255290000000  0.5292390000000 1.0
C      1  0.4985760000000  0.4809820000000  0.4346180000000 1.0
END
