TITL C-951333-8791-90 3.80111464334999e-06 125000 -1155.23789759101 0 0 183 (C1) n - 1
REM
REM in /home/bkarasulu/work/CARBON/AIRSS/Generating-Clusters/EDIP-Nigel-Params/with-SteepDescent/Only-C1/SD-CG/HFTN-CG
REM
REM
REM
REM
REM
REM ./C.cell (11c1c37f851c82e70ff6c80c92926a4b)
REM
REM compiler GCC version 9.2.1 20190827 (Red Hat 9.2.1-1)
REM options -cpp -mtune=generic -march=x86-64 -g -O0 -fpre-include=/usr/include/finclude/math-vector-fortran.h
REM seed 1986912087 -2057620855 1635561974 150270014 -7672190 -1406995778 -1432034728 -658222370 165900123 1371950910 1326152815 -881752530 -808100245 -813833047 -1060194991 222147872 -196668907 1201817713 2117180509 -1779943560 1655562315 791620631 1544569917 -65269843 1482146162 -1722840062 1122535761 1391892009 1569080968 -1175660433 710437154 1279190297 -459327007
REM
CELL 1.54180   50.00000   50.00000   50.00000   90.00000   90.00000   90.00000
LATT -1
SFAC C  
C      1  0.5199790000000  0.4306010000000  0.5748660000000 1.0
C      1  0.5240680000000  0.5293980000000  0.6190670000000 1.0
C      1  0.4183380000000  0.4401960000000  0.4639920000000 1.0
C      1  0.4439410000000  0.5422960000000  0.4766720000000 1.0
C      1  0.6081060000000  0.4992860000000  0.4882010000000 1.0
C      1  0.4894760000000  0.4610450000000  0.4415950000000 1.0
C      1  0.4975950000000  0.4897210000000  0.4340740000000 1.0
C      1  0.4435480000000  0.4912410000000  0.4495990000000 1.0
C      1  0.5551580000000  0.5201690000000  0.4064550000000 1.0
C      1  0.5368730000000  0.4911910000000  0.5269590000000 1.0
C      1  0.5055280000000  0.5052650000000  0.3889990000000 1.0
C      1  0.3902070000000  0.4578480000000  0.4808750000000 1.0
C      1  0.5557130000000  0.4837150000000  0.4814210000000 1.0
C      1  0.5180230000000  0.4265280000000  0.4752450000000 1.0
C      1  0.5641740000000  0.5869970000000  0.4976500000000 1.0
C      1  0.5894380000000  0.5618030000000  0.5296550000000 1.0
C      1  0.4029020000000  0.4996370000000  0.5160600000000 1.0
C      1  0.5118170000000  0.5665980000000  0.5283390000000 1.0
C      1  0.3970180000000  0.4514330000000  0.5104610000000 1.0
C      1  0.5399700000000  0.4683260000000  0.4578670000000 1.0
C      1  0.5104690000000  0.4574870000000  0.4030650000000 1.0
C      1  0.5110400000000  0.5005320000000  0.4752140000000 1.0
C      1  0.5880960000000  0.5139900000000  0.5240710000000 1.0
C      1  0.3979710000000  0.5570430000000  0.4998760000000 1.0
C      1  0.4546920000000  0.5165880000000  0.5902170000000 1.0
C      1  0.5059800000000  0.4746610000000  0.4890310000000 1.0
C      1  0.4850450000000  0.4690870000000  0.6078290000000 1.0
C      1  0.5986950000000  0.5530610000000  0.5018910000000 1.0
C      1  0.4835950000000  0.4984180000000  0.4075740000000 1.0
C      1  0.5977190000000  0.5218610000000  0.5609400000000 1.0
C      1  0.4224800000000  0.4979800000000  0.4709740000000 1.0
C      1  0.4851340000000  0.5735070000000  0.5857400000000 1.0
C      1  0.4719170000000  0.3995570000000  0.5223090000000 1.0
C      1  0.5201370000000  0.4455750000000  0.5254270000000 1.0
C      1  0.4458270000000  0.4830800000000  0.5383950000000 1.0
C      1  0.6033850000000  0.4522860000000  0.4934540000000 1.0
C      1  0.5522280000000  0.5528550000000  0.4724060000000 1.0
C      1  0.4702570000000  0.4978400000000  0.5530490000000 1.0
C      1  0.5195450000000  0.5300860000000  0.3975390000000 1.0
C      1  0.3932410000000  0.5346570000000  0.4801120000000 1.0
C      1  0.4428040000000  0.5753250000000  0.4404640000000 1.0
C      1  0.5655170000000  0.5265280000000  0.4344530000000 1.0
C      1  0.5278080000000  0.5915020000000  0.5604720000000 1.0
C      1  0.5129680000000  0.5268010000000  0.5610560000000 1.0
C      1  0.4555010000000  0.4940990000000  0.5114180000000 1.0
C      1  0.4597010000000  0.5677000000000  0.5135630000000 1.0
C      1  0.4469910000000  0.4520530000000  0.5319320000000 1.0
C      1  0.4582010000000  0.4648930000000  0.4496830000000 1.0
C      1  0.4743140000000  0.4495060000000  0.5206030000000 1.0
C      1  0.5342040000000  0.5685430000000  0.4255210000000 1.0
C      1  0.5366950000000  0.4547410000000  0.5818730000000 1.0
C      1  0.5222110000000  0.5163990000000  0.5191850000000 1.0
C      1  0.4200500000000  0.4893130000000  0.5728150000000 1.0
C      1  0.5201420000000  0.5777870000000  0.4030650000000 1.0
C      1  0.5392900000000  0.5193930000000  0.4469840000000 1.0
C      1  0.4773620000000  0.5325090000000  0.4650740000000 1.0
C      1  0.5111770000000  0.3943010000000  0.4400980000000 1.0
C      1  0.5708370000000  0.5551280000000  0.4463220000000 1.0
C      1  0.5063820000000  0.4865410000000  0.6073380000000 1.0
C      1  0.4368530000000  0.4453330000000  0.4393660000000 1.0
C      1  0.3921000000000  0.4863360000000  0.4715570000000 1.0
C      1  0.4880180000000  0.6231940000000  0.4757500000000 1.0
C      1  0.4786870000000  0.5563820000000  0.4140440000000 1.0
C      1  0.5950410000000  0.4990210000000  0.4523850000000 1.0
C      1  0.4711750000000  0.5789930000000  0.4319460000000 1.0
C      1  0.4403960000000  0.5720860000000  0.4713600000000 1.0
C      1  0.5118550000000  0.4556310000000  0.4655250000000 1.0
C      1  0.5257760000000  0.4694460000000  0.5107280000000 1.0
C      1  0.5227390000000  0.4317700000000  0.4119310000000 1.0
C      1  0.4041210000000  0.5212510000000  0.5369460000000 1.0
C      1  0.4881690000000  0.5053560000000  0.4575250000000 1.0
C      1  0.4180020000000  0.5795140000000  0.4928220000000 1.0
C      1  0.4757600000000  0.4714030000000  0.4989980000000 1.0
C      1  0.4624160000000  0.4398200000000  0.5767280000000 1.0
C      1  0.5397080000000  0.3974410000000  0.4406190000000 1.0
C      1  0.5622920000000  0.4269150000000  0.4778000000000 1.0
C      1  0.5612300000000  0.5746420000000  0.4281730000000 1.0
C      1  0.5783570000000  0.4574100000000  0.4315430000000 1.0
C      1  0.5010260000000  0.5143270000000  0.6137830000000 1.0
C      1  0.5346580000000  0.4109390000000  0.5573490000000 1.0
C      1  0.4340050000000  0.4112310000000  0.5502020000000 1.0
C      1  0.4501210000000  0.4207540000000  0.4314630000000 1.0
C      1  0.5158010000000  0.5749390000000  0.4986440000000 1.0
C      1  0.4941100000000  0.4810430000000  0.5525730000000 1.0
C      1  0.4445320000000  0.5419300000000  0.5076430000000 1.0
C      1  0.4883150000000  0.4026090000000  0.5482310000000 1.0
C      1  0.4777770000000  0.5552150000000  0.6054320000000 1.0
C      1  0.4361620000000  0.5347290000000  0.5756350000000 1.0
C      1  0.4950720000000  0.4525860000000  0.5420340000000 1.0
C      1  0.5818630000000  0.5454600000000  0.5536060000000 1.0
C      1  0.5518110000000  0.4998000000000  0.5927700000000 1.0
C      1  0.4175020000000  0.5163410000000  0.5623970000000 1.0
C      1  0.5235030000000  0.4817930000000  0.3916890000000 1.0
C      1  0.5848390000000  0.4381630000000  0.5722020000000 1.0
C      1  0.4418300000000  0.3995780000000  0.5258760000000 1.0
C      1  0.5189930000000  0.6148050000000  0.5478920000000 1.0
C      1  0.5497380000000  0.4234670000000  0.5362070000000 1.0
C      1  0.5190840000000  0.4952040000000  0.5589430000000 1.0
C      1  0.4437030000000  0.4021060000000  0.4521670000000 1.0
C      1  0.5684300000000  0.5811520000000  0.5263930000000 1.0
C      1  0.4809260000000  0.5299240000000  0.5498600000000 1.0
C      1  0.4547100000000  0.5429410000000  0.4050680000000 1.0
C      1  0.4800270000000  0.4238220000000  0.5074820000000 1.0
C      1  0.4128660000000  0.4675200000000  0.5549970000000 1.0
C      1  0.5212210000000  0.5422080000000  0.4345430000000 1.0
C      1  0.4902540000000  0.4303900000000  0.5632340000000 1.0
C      1  0.4389610000000  0.4382380000000  0.5580040000000 1.0
C      1  0.5457210000000  0.4910710000000  0.4094190000000 1.0
C      1  0.5029210000000  0.5559470000000  0.3972040000000 1.0
C      1  0.5279110000000  0.4832740000000  0.5864780000000 1.0
C      1  0.4819220000000  0.4523560000000  0.3992140000000 1.0
C      1  0.4343960000000  0.5055180000000  0.4260840000000 1.0
C      1  0.4328160000000  0.5529040000000  0.4227850000000 1.0
C      1  0.5934940000000  0.4927980000000  0.5620580000000 1.0
C      1  0.5681320000000  0.5329360000000  0.4879300000000 1.0
C      1  0.5216810000000  0.5511800000000  0.4805900000000 1.0
C      1  0.4775020000000  0.4302800000000  0.4207180000000 1.0
C      1  0.5082620000000  0.6045720000000  0.5234550000000 1.0
C      1  0.5144940000000  0.5737810000000  0.5799340000000 1.0
C      1  0.4761540000000  0.5276750000000  0.6063300000000 1.0
C      1  0.5658220000000  0.4568900000000  0.5801590000000 1.0
C      1  0.5016130000000  0.5525330000000  0.4574030000000 1.0
C      1  0.5572270000000  0.5556030000000  0.5659900000000 1.0
C      1  0.5731100000000  0.5060670000000  0.4723680000000 1.0
C      1  0.5758190000000  0.4298810000000  0.5264540000000 1.0
C      1  0.5310120000000  0.5469700000000  0.5803530000000 1.0
C      1  0.3839590000000  0.5076890000000  0.4924570000000 1.0
C      1  0.4410650000000  0.5610800000000  0.5626910000000 1.0
C      1  0.5221010000000  0.3972860000000  0.5088650000000 1.0
C      1  0.4703730000000  0.6102500000000  0.4935880000000 1.0
C      1  0.5962030000000  0.4733230000000  0.5379150000000 1.0
C      1  0.4295070000000  0.4139360000000  0.5026570000000 1.0
C      1  0.4668090000000  0.5988140000000  0.5447010000000 1.0
C      1  0.4452670000000  0.4884630000000  0.5882220000000 1.0
C      1  0.4194530000000  0.5293580000000  0.4353360000000 1.0
C      1  0.5617880000000  0.5297580000000  0.5177580000000 1.0
C      1  0.5309580000000  0.6057360000000  0.4656070000000 1.0
C      1  0.5429680000000  0.4241310000000  0.4317840000000 1.0
C      1  0.4337480000000  0.5843640000000  0.5194940000000 1.0
C      1  0.5496150000000  0.5771170000000  0.5487450000000 1.0
C      1  0.4191510000000  0.5276840000000  0.4654940000000 1.0
C      1  0.5844490000000  0.5722010000000  0.4790790000000 1.0
C      1  0.5096780000000  0.4252970000000  0.5050800000000 1.0
C      1  0.5752310000000  0.4842100000000  0.5837570000000 1.0
C      1  0.5001190000000  0.4022010000000  0.4665530000000 1.0
C      1  0.6086540000000  0.5241510000000  0.5043010000000 1.0
C      1  0.5313630000000  0.4915680000000  0.4366170000000 1.0
C      1  0.5912100000000  0.4451890000000  0.5456010000000 1.0
C      1  0.4800580000000  0.3769490000000  0.5058600000000 1.0
C      1  0.4680090000000  0.5816870000000  0.4838270000000 1.0
C      1  0.5469620000000  0.4048860000000  0.4899300000000 1.0
C      1  0.4253810000000  0.4114440000000  0.4719630000000 1.0
C      1  0.4336450000000  0.4549340000000  0.4854880000000 1.0
C      1  0.5483590000000  0.5251980000000  0.6063500000000 1.0
C      1  0.4104500000000  0.5470480000000  0.5252540000000 1.0
C      1  0.4605240000000  0.4580640000000  0.4780000000000 1.0
C      1  0.5036320000000  0.6065850000000  0.4593420000000 1.0
C      1  0.5026150000000  0.3825880000000  0.4901840000000 1.0
C      1  0.4288940000000  0.4965360000000  0.4998820000000 1.0
C      1  0.5012840000000  0.4119530000000  0.4177060000000 1.0
C      1  0.6059390000000  0.4764120000000  0.5090240000000 1.0
C      1  0.4847660000000  0.5302760000000  0.4943170000000 1.0
C      1  0.6094410000000  0.4560410000000  0.4668030000000 1.0
C      1  0.5646240000000  0.4910840000000  0.5127420000000 1.0
C      1  0.4262010000000  0.4425410000000  0.5103420000000 1.0
C      1  0.4630460000000  0.5808030000000  0.5666750000000 1.0
C      1  0.5160640000000  0.3943540000000  0.5412830000000 1.0
C      1  0.3964130000000  0.4735250000000  0.5302180000000 1.0
C      1  0.4618660000000  0.4640330000000  0.5938180000000 1.0
C      1  0.5364710000000  0.5956820000000  0.4912410000000 1.0
C      1  0.6003830000000  0.4710280000000  0.4452500000000 1.0
C      1  0.4670660000000  0.4764980000000  0.3972980000000 1.0
C      1  0.5789860000000  0.4381220000000  0.4989450000000 1.0
C      1  0.4798620000000  0.6109710000000  0.5222440000000 1.0
C      1  0.4879380000000  0.5806720000000  0.4568840000000 1.0
C      1  0.4537100000000  0.5126350000000  0.4047480000000 1.0
C      1  0.4664720000000  0.5220710000000  0.5161080000000 1.0
C      1  0.5128030000000  0.5236540000000  0.4930770000000 1.0
C      1  0.5673430000000  0.4725440000000  0.4109380000000 1.0
C      1  0.5577910000000  0.4433350000000  0.4495470000000 1.0
C      1  0.4827320000000  0.5589600000000  0.5339550000000 1.0
C      1  0.5289810000000  0.5401750000000  0.5361300000000 1.0
C      1  0.4215980000000  0.5690090000000  0.5422430000000 1.0
END
