TITL C-950526-5686-190 -3.39228452153213e-06 125000 -1014.45282709016 0 0 162 (C1) n - 1
REM
REM in /home/bkarasulu/work/CARBON/AIRSS/Generating-Clusters/EDIP-Nigel-Params/with-SteepDescent/Only-C1/SD-CG/HFTN-CG
REM
REM
REM
REM
REM
REM ./C.cell (11c1c37f851c82e70ff6c80c92926a4b)
REM
REM compiler GCC version 9.2.1 20190827 (Red Hat 9.2.1-1)
REM options -cpp -mtune=generic -march=x86-64 -g -O0 -fpre-include=/usr/include/finclude/math-vector-fortran.h
REM seed 1295276097 1067251364 -392220020 -1154268123 1097414677 -1663261791 197853080 311798523 -1378691703 707538982 1952085375 1181947202 1730963055 240582947 649697342 713581219 -2143139371 -1471433163 -82158565 -1076279890 -125621442 1279951568 203916124 -2104893306 1169724718 -602508369 987444641 36163293 -1386906450 -1607224662 -1322671700 1102819762 -1273025330
REM
CELL 1.54180   50.00000   50.00000   50.00000   90.00000   90.00000   90.00000
LATT -1
SFAC C  
C      1  0.5443440000000  0.4083840000000  0.4944780000000 1.0
C      1  0.4576220000000  0.5491580000000  0.4161750000000 1.0
C      1  0.5153180000000  0.4608810000000  0.5131950000000 1.0
C      1  0.5227530000000  0.5997180000000  0.5369270000000 1.0
C      1  0.5047780000000  0.4414660000000  0.4682580000000 1.0
C      1  0.5205370000000  0.4956620000000  0.4638020000000 1.0
C      1  0.6090170000000  0.4993430000000  0.5041220000000 1.0
C      1  0.4789850000000  0.4275370000000  0.5310830000000 1.0
C      1  0.5399210000000  0.5945530000000  0.4881210000000 1.0
C      1  0.4624310000000  0.5191240000000  0.5331470000000 1.0
C      1  0.5511860000000  0.4346480000000  0.5780680000000 1.0
C      1  0.4125280000000  0.5412290000000  0.4712920000000 1.0
C      1  0.5244510000000  0.4317600000000  0.5625230000000 1.0
C      1  0.4855310000000  0.4084260000000  0.4758900000000 1.0
C      1  0.4091480000000  0.5184960000000  0.5592650000000 1.0
C      1  0.4968150000000  0.5524680000000  0.5384770000000 1.0
C      1  0.4567960000000  0.4150060000000  0.4768190000000 1.0
C      1  0.4908670000000  0.5955130000000  0.5015270000000 1.0
C      1  0.4992920000000  0.4850980000000  0.4445360000000 1.0
C      1  0.5935000000000  0.5224050000000  0.4906450000000 1.0
C      1  0.5836120000000  0.4667610000000  0.4756400000000 1.0
C      1  0.5435070000000  0.3936890000000  0.5396990000000 1.0
C      1  0.4745600000000  0.4877890000000  0.3958550000000 1.0
C      1  0.4392430000000  0.4725200000000  0.4822000000000 1.0
C      1  0.5157970000000  0.4269930000000  0.4422540000000 1.0
C      1  0.4302080000000  0.5667010000000  0.5570330000000 1.0
C      1  0.4794200000000  0.5850170000000  0.5509290000000 1.0
C      1  0.5309890000000  0.5492370000000  0.4826760000000 1.0
C      1  0.4823000000000  0.5988350000000  0.4733950000000 1.0
C      1  0.5993170000000  0.4571270000000  0.5284230000000 1.0
C      1  0.4144580000000  0.4499750000000  0.5230690000000 1.0
C      1  0.5776820000000  0.5399970000000  0.4320560000000 1.0
C      1  0.4188250000000  0.4385130000000  0.4575280000000 1.0
C      1  0.4643100000000  0.4667350000000  0.4107630000000 1.0
C      1  0.5089630000000  0.5066280000000  0.4890200000000 1.0
C      1  0.4551890000000  0.5194410000000  0.5889960000000 1.0
C      1  0.4109320000000  0.5418490000000  0.5173400000000 1.0
C      1  0.5314750000000  0.5273010000000  0.4207020000000 1.0
C      1  0.5820200000000  0.4767380000000  0.5708400000000 1.0
C      1  0.5583290000000  0.4405350000000  0.5297460000000 1.0
C      1  0.4579750000000  0.6124750000000  0.4704710000000 1.0
C      1  0.4380650000000  0.4679110000000  0.5316830000000 1.0
C      1  0.5953050000000  0.4380770000000  0.5070730000000 1.0
C      1  0.4581930000000  0.5678420000000  0.5674490000000 1.0
C      1  0.5935920000000  0.5637610000000  0.5192210000000 1.0
C      1  0.5575140000000  0.5386340000000  0.4099370000000 1.0
C      1  0.5567890000000  0.4253370000000  0.4742820000000 1.0
C      1  0.3884810000000  0.5237630000000  0.4723410000000 1.0
C      1  0.4841250000000  0.5738710000000  0.4557260000000 1.0
C      1  0.5277310000000  0.5046460000000  0.5587490000000 1.0
C      1  0.4616290000000  0.5730470000000  0.4336160000000 1.0
C      1  0.4389380000000  0.5744710000000  0.4943350000000 1.0
C      1  0.5083270000000  0.5899050000000  0.5595130000000 1.0
C      1  0.4825040000000  0.5486250000000  0.4749140000000 1.0
C      1  0.5716230000000  0.4314780000000  0.5566200000000 1.0
C      1  0.4820620000000  0.5314000000000  0.4164620000000 1.0
C      1  0.5041570000000  0.4441750000000  0.5807720000000 1.0
C      1  0.4858660000000  0.4528740000000  0.5155760000000 1.0
C      1  0.4726130000000  0.4943760000000  0.5902100000000 1.0
C      1  0.5904110000000  0.4976450000000  0.5523120000000 1.0
C      1  0.5519640000000  0.5297700000000  0.5652930000000 1.0
C      1  0.4517110000000  0.4164040000000  0.5242660000000 1.0
C      1  0.5913050000000  0.5449690000000  0.5393410000000 1.0
C      1  0.5444190000000  0.5550200000000  0.5070640000000 1.0
C      1  0.5486330000000  0.4649850000000  0.5847700000000 1.0
C      1  0.5060070000000  0.5366030000000  0.4929060000000 1.0
C      1  0.4863060000000  0.5129440000000  0.3933950000000 1.0
C      1  0.4349560000000  0.5789180000000  0.4447390000000 1.0
C      1  0.4746730000000  0.5100110000000  0.4378270000000 1.0
C      1  0.4997880000000  0.4074450000000  0.5259650000000 1.0
C      1  0.6013810000000  0.5517820000000  0.4932580000000 1.0
C      1  0.3972640000000  0.4959760000000  0.5335380000000 1.0
C      1  0.4435550000000  0.5918840000000  0.5179820000000 1.0
C      1  0.5660250000000  0.5769340000000  0.5019790000000 1.0
C      1  0.3938740000000  0.4958700000000  0.4783360000000 1.0
C      1  0.5638640000000  0.5179380000000  0.4924440000000 1.0
C      1  0.3908760000000  0.4603090000000  0.5649950000000 1.0
C      1  0.5641880000000  0.4670010000000  0.5033470000000 1.0
C      1  0.5204920000000  0.5651880000000  0.5740720000000 1.0
C      1  0.4268820000000  0.5885240000000  0.5399490000000 1.0
C      1  0.5833240000000  0.5120420000000  0.4409430000000 1.0
C      1  0.5399050000000  0.4769280000000  0.5584890000000 1.0
C      1  0.5577120000000  0.4952180000000  0.4008310000000 1.0
C      1  0.4592470000000  0.5498720000000  0.4935210000000 1.0
C      1  0.5459670000000  0.4228570000000  0.4464740000000 1.0
C      1  0.5661760000000  0.5554410000000  0.4556610000000 1.0
C      1  0.5107210000000  0.5152850000000  0.5825250000000 1.0
C      1  0.3875080000000  0.5059260000000  0.5063820000000 1.0
C      1  0.5407300000000  0.4722580000000  0.4711950000000 1.0
C      1  0.4975490000000  0.5417790000000  0.5718930000000 1.0
C      1  0.5148960000000  0.5117540000000  0.3912460000000 1.0
C      1  0.5475130000000  0.4668530000000  0.4398560000000 1.0
C      1  0.4802380000000  0.4420010000000  0.4144670000000 1.0
C      1  0.4399750000000  0.4692520000000  0.5611390000000 1.0
C      1  0.4869070000000  0.4645940000000  0.4619680000000 1.0
C      1  0.4384480000000  0.5924380000000  0.4705550000000 1.0
C      1  0.4973390000000  0.4875230000000  0.6046550000000 1.0
C      1  0.4615700000000  0.4267160000000  0.5658490000000 1.0
C      1  0.4500530000000  0.5011950000000  0.4914270000000 1.0
C      1  0.4809450000000  0.5247520000000  0.4602870000000 1.0
C      1  0.4494410000000  0.4306420000000  0.4534250000000 1.0
C      1  0.5651800000000  0.4905570000000  0.4290550000000 1.0
C      1  0.4388400000000  0.4233870000000  0.5487020000000 1.0
C      1  0.4328270000000  0.5348480000000  0.4265430000000 1.0
C      1  0.4762220000000  0.5404160000000  0.5194750000000 1.0
C      1  0.5966020000000  0.4855720000000  0.5263750000000 1.0
C      1  0.4389930000000  0.5241140000000  0.4733290000000 1.0
C      1  0.4575170000000  0.4605290000000  0.4591090000000 1.0
C      1  0.5405900000000  0.5547620000000  0.5544020000000 1.0
C      1  0.5320640000000  0.4531700000000  0.5400450000000 1.0
C      1  0.5018850000000  0.3960120000000  0.4984210000000 1.0
C      1  0.4249280000000  0.4929460000000  0.5268430000000 1.0
C      1  0.4279730000000  0.5162450000000  0.5803570000000 1.0
C      1  0.5086910000000  0.5464930000000  0.4249930000000 1.0
C      1  0.4193500000000  0.4863960000000  0.4630420000000 1.0
C      1  0.6060260000000  0.5070790000000  0.4583930000000 1.0
C      1  0.4154420000000  0.4660750000000  0.5749990000000 1.0
C      1  0.4133840000000  0.5595180000000  0.4950970000000 1.0
C      1  0.5654690000000  0.5202940000000  0.3899070000000 1.0
C      1  0.5356820000000  0.5610690000000  0.5999090000000 1.0
C      1  0.4422850000000  0.5111860000000  0.4436940000000 1.0
C      1  0.5096240000000  0.4439690000000  0.4179490000000 1.0
C      1  0.5269660000000  0.3868360000000  0.4899070000000 1.0
C      1  0.4663170000000  0.4750250000000  0.5174580000000 1.0
C      1  0.3915670000000  0.4656520000000  0.5373180000000 1.0
C      1  0.5597290000000  0.4416580000000  0.4318370000000 1.0
C      1  0.4714810000000  0.5967040000000  0.5239850000000 1.0
C      1  0.5163560000000  0.4669320000000  0.5946970000000 1.0
C      1  0.4684030000000  0.4774650000000  0.5662730000000 1.0
C      1  0.5838180000000  0.5687460000000  0.4762630000000 1.0
C      1  0.4791160000000  0.4493010000000  0.5682030000000 1.0
C      1  0.4696180000000  0.5448900000000  0.5820130000000 1.0
C      1  0.4419940000000  0.4248170000000  0.4986650000000 1.0
C      1  0.5913730000000  0.4525620000000  0.5566980000000 1.0
C      1  0.5512530000000  0.4946100000000  0.5076980000000 1.0
C      1  0.5537680000000  0.4121820000000  0.5208500000000 1.0
C      1  0.4163150000000  0.4643680000000  0.4427180000000 1.0
C      1  0.4695390000000  0.4199310000000  0.4317220000000 1.0
C      1  0.5793360000000  0.5246790000000  0.5538440000000 1.0
C      1  0.4176720000000  0.5542100000000  0.4440510000000 1.0
C      1  0.4400130000000  0.4705680000000  0.4259500000000 1.0
C      1  0.5852350000000  0.4370840000000  0.4799630000000 1.0
C      1  0.5505740000000  0.5318170000000  0.4692990000000 1.0
C      1  0.5193830000000  0.4053650000000  0.5478400000000 1.0
C      1  0.5083390000000  0.5024890000000  0.5359620000000 1.0
C      1  0.5283470000000  0.5237190000000  0.6048410000000 1.0
C      1  0.5281190000000  0.4489160000000  0.4867260000000 1.0
C      1  0.5201580000000  0.4714030000000  0.4237220000000 1.0
C      1  0.5185930000000  0.6003160000000  0.5086350000000 1.0
C      1  0.4931040000000  0.4061280000000  0.4458400000000 1.0
C      1  0.5265640000000  0.5507370000000  0.5299160000000 1.0
C      1  0.5207340000000  0.4919350000000  0.5114220000000 1.0
C      1  0.5520190000000  0.5365160000000  0.5948460000000 1.0
C      1  0.5396170000000  0.5132180000000  0.4479560000000 1.0
C      1  0.4782410000000  0.4944080000000  0.5389040000000 1.0
C      1  0.5335400000000  0.5738410000000  0.4638660000000 1.0
C      1  0.5291310000000  0.4885030000000  0.3997610000000 1.0
C      1  0.4387690000000  0.5152090000000  0.5162050000000 1.0
C      1  0.4183930000000  0.5420030000000  0.5449570000000 1.0
C      1  0.5105910000000  0.5702270000000  0.4433190000000 1.0
C      1  0.4208460000000  0.4450860000000  0.4919540000000 1.0
C      1  0.6083140000000  0.4839430000000  0.4772430000000 1.0
END
