TITL C-950536-5891-264 -1.59163556676698e-06 125000 -1152.55531602694 0 0 186 (C1) n - 1
REM
REM in /home/bkarasulu/work/CARBON/AIRSS/Generating-Clusters/EDIP-Nigel-Params/with-SteepDescent/Only-C1/SD-CG/HFTN-CG
REM
REM
REM
REM
REM
REM ./C.cell (11c1c37f851c82e70ff6c80c92926a4b)
REM
REM compiler GCC version 9.2.1 20190827 (Red Hat 9.2.1-1)
REM options -cpp -mtune=generic -march=x86-64 -g -O0 -fpre-include=/usr/include/finclude/math-vector-fortran.h
REM seed -1321722705 -780484625 2014094384 1076634909 -676103697 -1171797148 -1774640820 -1228386684 -1066249681 153793341 580293760 -299246896 -1583471631 654775332 -1258576242 -1866522993 -770397684 -668930890 1796111649 320872272 428665336 -1019689071 -851985860 40281281 2018305760 -1337313597 -14615987 888215778 -72550556 147385017 -991303463 363132380 -1061645480
REM
CELL 1.54180   50.00000   50.00000   50.00000   90.00000   90.00000   90.00000
LATT -1
SFAC C  
C      1  0.5793780000000  0.4479650000000  0.4630100000000 1.0
C      1  0.4924790000000  0.5083760000000  0.5981100000000 1.0
C      1  0.5149770000000  0.4430750000000  0.4399580000000 1.0
C      1  0.4273680000000  0.5542640000000  0.5560650000000 1.0
C      1  0.4048610000000  0.4902760000000  0.5293580000000 1.0
C      1  0.5071860000000  0.5009780000000  0.5715770000000 1.0
C      1  0.5331410000000  0.3963150000000  0.4321150000000 1.0
C      1  0.5063960000000  0.4719510000000  0.4448500000000 1.0
C      1  0.5637920000000  0.5695050000000  0.5395360000000 1.0
C      1  0.5851690000000  0.5855570000000  0.5188260000000 1.0
C      1  0.4762220000000  0.5060700000000  0.4239990000000 1.0
C      1  0.4996760000000  0.5798340000000  0.5193700000000 1.0
C      1  0.5046980000000  0.5334080000000  0.3991740000000 1.0
C      1  0.3969430000000  0.5326370000000  0.5497770000000 1.0
C      1  0.4663520000000  0.4664330000000  0.5963610000000 1.0
C      1  0.4119680000000  0.4415450000000  0.5481250000000 1.0
C      1  0.5611330000000  0.3920250000000  0.5203380000000 1.0
C      1  0.5434110000000  0.4432690000000  0.4130140000000 1.0
C      1  0.4752080000000  0.4000850000000  0.5387800000000 1.0
C      1  0.5927940000000  0.5742090000000  0.4918560000000 1.0
C      1  0.4502080000000  0.4098260000000  0.5480030000000 1.0
C      1  0.4125770000000  0.4336760000000  0.4609470000000 1.0
C      1  0.4451930000000  0.5416540000000  0.5366200000000 1.0
C      1  0.5447700000000  0.6048740000000  0.5398430000000 1.0
C      1  0.6027210000000  0.4900850000000  0.4694670000000 1.0
C      1  0.5432910000000  0.4925790000000  0.4729190000000 1.0
C      1  0.5718000000000  0.5871210000000  0.4751690000000 1.0
C      1  0.5391350000000  0.3849420000000  0.4591860000000 1.0
C      1  0.5111750000000  0.5162760000000  0.4975890000000 1.0
C      1  0.6107500000000  0.5147920000000  0.4809620000000 1.0
C      1  0.5616540000000  0.5094230000000  0.5712370000000 1.0
C      1  0.4429700000000  0.4720900000000  0.4636500000000 1.0
C      1  0.4767980000000  0.5266500000000  0.4028500000000 1.0
C      1  0.4320870000000  0.5721660000000  0.5779670000000 1.0
C      1  0.5235590000000  0.6015310000000  0.4791680000000 1.0
C      1  0.5451580000000  0.4332050000000  0.4984690000000 1.0
C      1  0.4650800000000  0.4279340000000  0.4974120000000 1.0
C      1  0.5446560000000  0.5219570000000  0.4633250000000 1.0
C      1  0.5697390000000  0.4731800000000  0.6065910000000 1.0
C      1  0.5063300000000  0.5976660000000  0.5425530000000 1.0
C      1  0.4109740000000  0.4804450000000  0.4837520000000 1.0
C      1  0.5069440000000  0.5325680000000  0.6122770000000 1.0
C      1  0.4933800000000  0.4569770000000  0.5240630000000 1.0
C      1  0.5403740000000  0.5586490000000  0.4982110000000 1.0
C      1  0.4701630000000  0.5892160000000  0.4355200000000 1.0
C      1  0.4418080000000  0.5472690000000  0.4352970000000 1.0
C      1  0.5546430000000  0.5017150000000  0.5405270000000 1.0
C      1  0.5252590000000  0.5390120000000  0.4805120000000 1.0
C      1  0.5347080000000  0.4818350000000  0.4465950000000 1.0
C      1  0.4738480000000  0.4334920000000  0.4681900000000 1.0
C      1  0.4552250000000  0.5722510000000  0.4569030000000 1.0
C      1  0.5602750000000  0.6034250000000  0.5148640000000 1.0
C      1  0.5952980000000  0.4871880000000  0.4409810000000 1.0
C      1  0.5949640000000  0.4585250000000  0.5591620000000 1.0
C      1  0.5233910000000  0.4616060000000  0.5926110000000 1.0
C      1  0.5646340000000  0.3992380000000  0.4704800000000 1.0
C      1  0.5221240000000  0.6216960000000  0.5392990000000 1.0
C      1  0.5034720000000  0.4684320000000  0.4975830000000 1.0
C      1  0.4490140000000  0.4736590000000  0.5632930000000 1.0
C      1  0.4699390000000  0.6229230000000  0.4847920000000 1.0
C      1  0.5801780000000  0.4926830000000  0.5883270000000 1.0
C      1  0.4565450000000  0.4172700000000  0.4511100000000 1.0
C      1  0.4091440000000  0.4304450000000  0.4886340000000 1.0
C      1  0.3980690000000  0.5430090000000  0.5214110000000 1.0
C      1  0.5946860000000  0.4644880000000  0.4829110000000 1.0
C      1  0.4301810000000  0.4974330000000  0.5696330000000 1.0
C      1  0.4491770000000  0.4774690000000  0.3943760000000 1.0
C      1  0.5666110000000  0.4521090000000  0.5641210000000 1.0
C      1  0.4976480000000  0.4673810000000  0.3952060000000 1.0
C      1  0.4409360000000  0.4564870000000  0.6028810000000 1.0
C      1  0.4495770000000  0.4942800000000  0.4161300000000 1.0
C      1  0.5380110000000  0.5270790000000  0.5344980000000 1.0
C      1  0.5644120000000  0.4098950000000  0.4984090000000 1.0
C      1  0.4471330000000  0.4337780000000  0.4308020000000 1.0
C      1  0.5104380000000  0.4707960000000  0.5681320000000 1.0
C      1  0.5219120000000  0.5110910000000  0.4105930000000 1.0
C      1  0.4961060000000  0.5601510000000  0.6076240000000 1.0
C      1  0.6028400000000  0.4843260000000  0.5708110000000 1.0
C      1  0.4036150000000  0.4613680000000  0.5287090000000 1.0
C      1  0.4099040000000  0.5900860000000  0.5074640000000 1.0
C      1  0.5133570000000  0.4418420000000  0.4010200000000 1.0
C      1  0.4651020000000  0.5190640000000  0.4984200000000 1.0
C      1  0.5349590000000  0.5115440000000  0.5835770000000 1.0
C      1  0.4577290000000  0.6011010000000  0.5003870000000 1.0
C      1  0.4824590000000  0.4836560000000  0.6131080000000 1.0
C      1  0.4601320000000  0.5499520000000  0.4105700000000 1.0
C      1  0.5861760000000  0.4630570000000  0.5113900000000 1.0
C      1  0.5671520000000  0.5804030000000  0.4465480000000 1.0
C      1  0.4245110000000  0.4116180000000  0.5060080000000 1.0
C      1  0.4256740000000  0.5008790000000  0.4324180000000 1.0
C      1  0.5158750000000  0.5855350000000  0.4550800000000 1.0
C      1  0.5563800000000  0.4363640000000  0.5424250000000 1.0
C      1  0.4792300000000  0.5720800000000  0.4131600000000 1.0
C      1  0.6072400000000  0.5031530000000  0.5470030000000 1.0
C      1  0.5906860000000  0.5020160000000  0.4171310000000 1.0
C      1  0.4967950000000  0.5895870000000  0.5700960000000 1.0
C      1  0.3971340000000  0.5356460000000  0.4514750000000 1.0
C      1  0.4639140000000  0.4666470000000  0.5355560000000 1.0
C      1  0.4275200000000  0.5368980000000  0.5114100000000 1.0
C      1  0.5182050000000  0.4578720000000  0.5423540000000 1.0
C      1  0.5192040000000  0.4204970000000  0.5119420000000 1.0
C      1  0.5978160000000  0.5320100000000  0.5489790000000 1.0
C      1  0.5201400000000  0.3746100000000  0.5217730000000 1.0
C      1  0.4491610000000  0.4482870000000  0.5168800000000 1.0
C      1  0.4075640000000  0.5042940000000  0.5031880000000 1.0
C      1  0.5332750000000  0.5350820000000  0.5995500000000 1.0
C      1  0.4897580000000  0.6094410000000  0.4418540000000 1.0
C      1  0.4335970000000  0.5328410000000  0.6065740000000 1.0
C      1  0.4322270000000  0.5559920000000  0.4857090000000 1.0
C      1  0.5549530000000  0.4694650000000  0.4255080000000 1.0
C      1  0.5744230000000  0.5524940000000  0.4391620000000 1.0
C      1  0.5667470000000  0.4900220000000  0.4067070000000 1.0
C      1  0.4314890000000  0.5090400000000  0.5947170000000 1.0
C      1  0.4825200000000  0.5234130000000  0.4535090000000 1.0
C      1  0.5523200000000  0.5451180000000  0.4193030000000 1.0
C      1  0.4783790000000  0.5633700000000  0.4776060000000 1.0
C      1  0.5388350000000  0.3899450000000  0.5373360000000 1.0
C      1  0.5508970000000  0.4197460000000  0.4298110000000 1.0
C      1  0.3830250000000  0.5190510000000  0.4950390000000 1.0
C      1  0.5620340000000  0.5604870000000  0.5685030000000 1.0
C      1  0.5109000000000  0.4774720000000  0.6138040000000 1.0
C      1  0.5005820000000  0.4872380000000  0.4183480000000 1.0
C      1  0.4495130000000  0.4026300000000  0.4955120000000 1.0
C      1  0.5820050000000  0.5041530000000  0.5262600000000 1.0
C      1  0.4716030000000  0.5603460000000  0.5926110000000 1.0
C      1  0.6038350000000  0.4569310000000  0.5323810000000 1.0
C      1  0.5088550000000  0.5271210000000  0.5266350000000 1.0
C      1  0.5579110000000  0.4529540000000  0.5174820000000 1.0
C      1  0.3830030000000  0.5131140000000  0.4659280000000 1.0
C      1  0.3913220000000  0.4837970000000  0.4607960000000 1.0
C      1  0.5806730000000  0.4626330000000  0.4387450000000 1.0
C      1  0.4721080000000  0.5461910000000  0.5018170000000 1.0
C      1  0.4720280000000  0.4633640000000  0.4613710000000 1.0
C      1  0.5299890000000  0.4206620000000  0.5432130000000 1.0
C      1  0.5722250000000  0.5347020000000  0.4631040000000 1.0
C      1  0.4063160000000  0.4772620000000  0.4353420000000 1.0
C      1  0.5356290000000  0.5575500000000  0.5814180000000 1.0
C      1  0.5256890000000  0.4885710000000  0.4982610000000 1.0
C      1  0.4439090000000  0.5581380000000  0.6015400000000 1.0
C      1  0.4391120000000  0.5025770000000  0.4583650000000 1.0
C      1  0.4659910000000  0.5235540000000  0.5454430000000 1.0
C      1  0.4694860000000  0.4584400000000  0.3925430000000 1.0
C      1  0.3939760000000  0.5712830000000  0.5184330000000 1.0
C      1  0.4263610000000  0.4531030000000  0.4442670000000 1.0
C      1  0.5533480000000  0.4574870000000  0.5900140000000 1.0
C      1  0.5060340000000  0.5589590000000  0.4125830000000 1.0
C      1  0.4084800000000  0.4562770000000  0.5008520000000 1.0
C      1  0.4062390000000  0.5048680000000  0.5538390000000 1.0
C      1  0.4829380000000  0.4173470000000  0.5828330000000 1.0
C      1  0.5682800000000  0.4223240000000  0.4530630000000 1.0
C      1  0.4332490000000  0.5859780000000  0.4927340000000 1.0
C      1  0.5803620000000  0.5324460000000  0.5136580000000 1.0
C      1  0.5610100000000  0.5337470000000  0.3934370000000 1.0
C      1  0.5547650000000  0.5469730000000  0.5211200000000 1.0
C      1  0.4940980000000  0.6208580000000  0.4682870000000 1.0
C      1  0.4849580000000  0.5880130000000  0.4942670000000 1.0
C      1  0.4162000000000  0.5295680000000  0.4295990000000 1.0
C      1  0.5393020000000  0.5864940000000  0.4360330000000 1.0
C      1  0.4323930000000  0.4270970000000  0.5310360000000 1.0
C      1  0.5132800000000  0.3935330000000  0.5015110000000 1.0
C      1  0.4344860000000  0.4412070000000  0.5792460000000 1.0
C      1  0.4693890000000  0.4374520000000  0.4124170000000 1.0
C      1  0.4925610000000  0.5127940000000  0.5466790000000 1.0
C      1  0.5037700000000  0.4022240000000  0.4320220000000 1.0
C      1  0.5478000000000  0.5084920000000  0.3943960000000 1.0
C      1  0.5030430000000  0.4252300000000  0.4634160000000 1.0
C      1  0.4690610000000  0.5823270000000  0.5742550000000 1.0
C      1  0.4937120000000  0.4203870000000  0.4102780000000 1.0
C      1  0.5470310000000  0.5880360000000  0.4918660000000 1.0
C      1  0.5925660000000  0.5373710000000  0.4856740000000 1.0
C      1  0.5336920000000  0.5683370000000  0.4143230000000 1.0
C      1  0.5117760000000  0.3944520000000  0.4707890000000 1.0
C      1  0.5770740000000  0.5354890000000  0.5694870000000 1.0
C      1  0.4946960000000  0.3997800000000  0.5599050000000 1.0
C      1  0.5145640000000  0.5759530000000  0.5898170000000 1.0
C      1  0.5043860000000  0.5549250000000  0.4625350000000 1.0
C      1  0.5391880000000  0.4766590000000  0.5254630000000 1.0
C      1  0.5357800000000  0.5243460000000  0.4342800000000 1.0
C      1  0.4895600000000  0.4279580000000  0.5166470000000 1.0
C      1  0.4835100000000  0.4796840000000  0.4817860000000 1.0
C      1  0.4916350000000  0.5521890000000  0.5232290000000 1.0
C      1  0.4533360000000  0.5300260000000  0.4598150000000 1.0
C      1  0.4859360000000  0.5088480000000  0.4817760000000 1.0
C      1  0.4085150000000  0.5534110000000  0.4697800000000 1.0
C      1  0.5109100000000  0.4100680000000  0.5807230000000 1.0
C      1  0.4551150000000  0.4213300000000  0.5733100000000 1.0
END
