TITL C-951334-9093-98 3.67429735337716e-07 125000 -485.886128571302 0 0 78 (C1) n - 1
REM
REM in /home/bkarasulu/work/CARBON/AIRSS/Generating-Clusters/EDIP-Nigel-Params/with-SteepDescent/Only-C1/SD-CG/HFTN-CG
REM
REM
REM
REM
REM
REM ./C.cell (11c1c37f851c82e70ff6c80c92926a4b)
REM
REM compiler GCC version 9.2.1 20190827 (Red Hat 9.2.1-1)
REM options -cpp -mtune=generic -march=x86-64 -g -O0 -fpre-include=/usr/include/finclude/math-vector-fortran.h
REM seed 873059029 -107701228 237948020 850466130 -2123810691 1725025573 1197923408 503338070 -878577835 1616985715 1099768462 -1977913812 -1469396310 -1154206734 635123016 1939450654 1281141197 618264303 -950035797 1805956925 1913661512 1879792448 1260465305 440743619 588718354 1578529935 -704833104 -173721822 649454612 -851134158 1521061598 -1144492621 -1298377179
REM
CELL 1.54180   50.00000   50.00000   50.00000   90.00000   90.00000   90.00000
LATT -1
SFAC C  
C      1  0.5437990000000  0.4671650000000  0.4959210000000 1.0
C      1  0.4249710000000  0.5196050000000  0.5379980000000 1.0
C      1  0.4777490000000  0.5340590000000  0.5126850000000 1.0
C      1  0.4879890000000  0.4390300000000  0.4477420000000 1.0
C      1  0.5462440000000  0.4985320000000  0.4225000000000 1.0
C      1  0.4730690000000  0.4716580000000  0.5654910000000 1.0
C      1  0.5566450000000  0.5389080000000  0.4482990000000 1.0
C      1  0.4282500000000  0.4654860000000  0.4765580000000 1.0
C      1  0.5215290000000  0.5000940000000  0.4397650000000 1.0
C      1  0.4260670000000  0.4710910000000  0.5046120000000 1.0
C      1  0.4970000000000  0.5067990000000  0.4246320000000 1.0
C      1  0.4955180000000  0.4542740000000  0.5562450000000 1.0
C      1  0.4841230000000  0.4810300000000  0.4255910000000 1.0
C      1  0.5636740000000  0.5152100000000  0.5402650000000 1.0
C      1  0.5045490000000  0.4595730000000  0.4338830000000 1.0
C      1  0.5081360000000  0.5444040000000  0.5753740000000 1.0
C      1  0.4515310000000  0.4977470000000  0.4943240000000 1.0
C      1  0.5306010000000  0.5430850000000  0.4374170000000 1.0
C      1  0.4834290000000  0.5303400000000  0.4349430000000 1.0
C      1  0.5338170000000  0.4635990000000  0.4448870000000 1.0
C      1  0.4349650000000  0.5194640000000  0.4545920000000 1.0
C      1  0.5623580000000  0.5593190000000  0.4665860000000 1.0
C      1  0.4474680000000  0.4635380000000  0.5224210000000 1.0
C      1  0.5406870000000  0.4977770000000  0.4929970000000 1.0
C      1  0.5275640000000  0.4919380000000  0.5667290000000 1.0
C      1  0.5688990000000  0.4636430000000  0.5321140000000 1.0
C      1  0.5418310000000  0.4512500000000  0.5362440000000 1.0
C      1  0.5668520000000  0.5310190000000  0.5148340000000 1.0
C      1  0.4648230000000  0.4407400000000  0.5175540000000 1.0
C      1  0.4553690000000  0.5306170000000  0.4384410000000 1.0
C      1  0.4974570000000  0.4910630000000  0.4829760000000 1.0
C      1  0.5037410000000  0.5486500000000  0.4446150000000 1.0
C      1  0.4642900000000  0.5440530000000  0.4871100000000 1.0
C      1  0.5729190000000  0.4654410000000  0.5037190000000 1.0
C      1  0.5630810000000  0.4889870000000  0.4429010000000 1.0
C      1  0.5235950000000  0.4643140000000  0.5568840000000 1.0
C      1  0.5871720000000  0.4887060000000  0.4963910000000 1.0
C      1  0.4687360000000  0.5058290000000  0.5182760000000 1.0
C      1  0.4612630000000  0.5721420000000  0.4979240000000 1.0
C      1  0.5105470000000  0.4611220000000  0.5149080000000 1.0
C      1  0.4668410000000  0.4323540000000  0.4896130000000 1.0
C      1  0.4182220000000  0.5326560000000  0.5023040000000 1.0
C      1  0.4508500000000  0.5064650000000  0.5440640000000 1.0
C      1  0.5213730000000  0.5554420000000  0.5284040000000 1.0
C      1  0.4920180000000  0.4405050000000  0.5301940000000 1.0
C      1  0.5077240000000  0.4990460000000  0.5852460000000 1.0
C      1  0.4406250000000  0.5246860000000  0.4841910000000 1.0
C      1  0.4594050000000  0.4477060000000  0.4460890000000 1.0
C      1  0.5213930000000  0.5088070000000  0.5180480000000 1.0
C      1  0.5267600000000  0.5412520000000  0.5544660000000 1.0
C      1  0.5163940000000  0.5397500000000  0.4789190000000 1.0
C      1  0.4493120000000  0.4770100000000  0.5481010000000 1.0
C      1  0.4707880000000  0.4894580000000  0.4731050000000 1.0
C      1  0.4664590000000  0.5186090000000  0.5668960000000 1.0
C      1  0.5290350000000  0.4234740000000  0.5129220000000 1.0
C      1  0.4932590000000  0.4334640000000  0.4758980000000 1.0
C      1  0.4860730000000  0.5844010000000  0.5049720000000 1.0
C      1  0.4978990000000  0.5761550000000  0.5295880000000 1.0
C      1  0.4755690000000  0.5638310000000  0.5449970000000 1.0
C      1  0.5405560000000  0.5584700000000  0.4844760000000 1.0
C      1  0.5083020000000  0.5350600000000  0.5094690000000 1.0
C      1  0.5065730000000  0.4150960000000  0.5282260000000 1.0
C      1  0.5684350000000  0.5101890000000  0.4903560000000 1.0
C      1  0.5397320000000  0.4500420000000  0.4714240000000 1.0
C      1  0.5661210000000  0.5129950000000  0.4595180000000 1.0
C      1  0.5484380000000  0.5558060000000  0.5124590000000 1.0
C      1  0.5348770000000  0.5136090000000  0.5463720000000 1.0
C      1  0.5214070000000  0.4306800000000  0.4848310000000 1.0
C      1  0.5745150000000  0.4894920000000  0.5414080000000 1.0
C      1  0.4253560000000  0.5463700000000  0.5270820000000 1.0
C      1  0.4801930000000  0.4962640000000  0.5803190000000 1.0
C      1  0.4524920000000  0.5607150000000  0.5255590000000 1.0
C      1  0.4448650000000  0.4412880000000  0.4708590000000 1.0
C      1  0.5200230000000  0.5077960000000  0.4711520000000 1.0
C      1  0.4330140000000  0.4901850000000  0.4495820000000 1.0
C      1  0.4981820000000  0.4894850000000  0.5129800000000 1.0
C      1  0.4612990000000  0.4781470000000  0.4461830000000 1.0
C      1  0.4833140000000  0.5419390000000  0.5623790000000 1.0
END
