TITL C-951340-9809-320 -3.27278696883361e-06 125000 -737.439670663038 0 0 119 (C1) n - 1
REM
REM in /home/bkarasulu/work/CARBON/AIRSS/Generating-Clusters/EDIP-Nigel-Params/with-SteepDescent/Only-C1/SD-CG/HFTN-CG
REM
REM
REM
REM
REM
REM ./C.cell (11c1c37f851c82e70ff6c80c92926a4b)
REM
REM compiler GCC version 9.2.1 20190827 (Red Hat 9.2.1-1)
REM options -cpp -mtune=generic -march=x86-64 -g -O0 -fpre-include=/usr/include/finclude/math-vector-fortran.h
REM seed -1983581829 114236976 1446847246 -1267195274 -672370514 -668282692 1332102196 935930531 478488143 436736039 -660474299 -778907515 -1323706953 1518252592 -14711451 417759618 1876593507 542164552 -1952286795 1653800411 -936936274 -602698548 1558511693 -714809651 2057696117 -472272561 -71636123 776371243 -1784799967 -1073699038 1318964766 411630839 71239291
REM
CELL 1.54180   50.00000   50.00000   50.00000   90.00000   90.00000   90.00000
LATT -1
SFAC C  
C      1  0.5231860000000  0.5131980000000  0.4721690000000 1.0
C      1  0.5072500000000  0.4204240000000  0.4605130000000 1.0
C      1  0.4132310000000  0.5331380000000  0.5226260000000 1.0
C      1  0.4837920000000  0.5412730000000  0.4550410000000 1.0
C      1  0.4810310000000  0.5272540000000  0.5493860000000 1.0
C      1  0.4450970000000  0.4742240000000  0.5972830000000 1.0
C      1  0.5137340000000  0.5649240000000  0.5058370000000 1.0
C      1  0.4779070000000  0.4968320000000  0.4542100000000 1.0
C      1  0.5309840000000  0.4241490000000  0.4431040000000 1.0
C      1  0.5468970000000  0.4835160000000  0.5080960000000 1.0
C      1  0.4697880000000  0.4603470000000  0.5439510000000 1.0
C      1  0.4968810000000  0.4227870000000  0.5773430000000 1.0
C      1  0.4503780000000  0.5020980000000  0.5958320000000 1.0
C      1  0.5729650000000  0.4591130000000  0.5396810000000 1.0
C      1  0.5088400000000  0.4357590000000  0.4868720000000 1.0
C      1  0.5368150000000  0.4308400000000  0.4998870000000 1.0
C      1  0.5714530000000  0.5321280000000  0.5623070000000 1.0
C      1  0.5312840000000  0.4823230000000  0.4728900000000 1.0
C      1  0.4605160000000  0.4812890000000  0.4101050000000 1.0
C      1  0.4703690000000  0.5874120000000  0.5171350000000 1.0
C      1  0.5314210000000  0.5047530000000  0.5883630000000 1.0
C      1  0.4646700000000  0.5335040000000  0.4774700000000 1.0
C      1  0.5761630000000  0.5021720000000  0.4254390000000 1.0
C      1  0.4353590000000  0.5387310000000  0.4747750000000 1.0
C      1  0.5758120000000  0.5078720000000  0.5458060000000 1.0
C      1  0.4999970000000  0.5029700000000  0.5962770000000 1.0
C      1  0.4357260000000  0.4390760000000  0.5103780000000 1.0
C      1  0.5103020000000  0.5193890000000  0.4019430000000 1.0
C      1  0.4318180000000  0.4752590000000  0.4650220000000 1.0
C      1  0.5041610000000  0.5132730000000  0.4959970000000 1.0
C      1  0.4558110000000  0.5752060000000  0.4594380000000 1.0
C      1  0.5185600000000  0.4443280000000  0.5406940000000 1.0
C      1  0.5899680000000  0.4847990000000  0.4445240000000 1.0
C      1  0.4360570000000  0.4425000000000  0.5594250000000 1.0
C      1  0.5171850000000  0.5343030000000  0.5146630000000 1.0
C      1  0.4414470000000  0.5417610000000  0.5623050000000 1.0
C      1  0.5476610000000  0.5388150000000  0.4288170000000 1.0
C      1  0.4362350000000  0.4679440000000  0.5711680000000 1.0
C      1  0.4823580000000  0.5826300000000  0.4694380000000 1.0
C      1  0.6033380000000  0.5068940000000  0.5367540000000 1.0
C      1  0.5190100000000  0.5368610000000  0.4252400000000 1.0
C      1  0.5793930000000  0.4948780000000  0.4693060000000 1.0
C      1  0.4625520000000  0.5287880000000  0.5239580000000 1.0
C      1  0.4571520000000  0.4377460000000  0.4896720000000 1.0
C      1  0.4816070000000  0.5122140000000  0.3992000000000 1.0
C      1  0.5457720000000  0.5725580000000  0.5417850000000 1.0
C      1  0.5008460000000  0.4837790000000  0.5077810000000 1.0
C      1  0.4045000000000  0.5077940000000  0.5156150000000 1.0
C      1  0.4385800000000  0.5130170000000  0.5709780000000 1.0
C      1  0.5229250000000  0.4782690000000  0.5281860000000 1.0
C      1  0.5708200000000  0.4647660000000  0.5089310000000 1.0
C      1  0.5726760000000  0.5292560000000  0.4375900000000 1.0
C      1  0.4564910000000  0.4551050000000  0.4646060000000 1.0
C      1  0.4887580000000  0.5867590000000  0.5413360000000 1.0
C      1  0.5075110000000  0.5651810000000  0.4264460000000 1.0
C      1  0.5467540000000  0.5353390000000  0.4786980000000 1.0
C      1  0.4831120000000  0.4696370000000  0.4623500000000 1.0
C      1  0.4424910000000  0.5736690000000  0.5135040000000 1.0
C      1  0.5297360000000  0.4965140000000  0.4017590000000 1.0
C      1  0.5623720000000  0.5085800000000  0.5175410000000 1.0
C      1  0.4897650000000  0.4673490000000  0.5654130000000 1.0
C      1  0.4749320000000  0.5109520000000  0.6064390000000 1.0
C      1  0.5051260000000  0.5197320000000  0.4480540000000 1.0
C      1  0.5356680000000  0.4528180000000  0.5784620000000 1.0
C      1  0.5730390000000  0.5242860000000  0.4669370000000 1.0
C      1  0.5054210000000  0.5736220000000  0.4542730000000 1.0
C      1  0.4558950000000  0.4996560000000  0.4330150000000 1.0
C      1  0.4826900000000  0.4298790000000  0.5022780000000 1.0
C      1  0.3969900000000  0.5001910000000  0.4894470000000 1.0
C      1  0.5155080000000  0.4717870000000  0.3984180000000 1.0
C      1  0.4608840000000  0.5250170000000  0.4169690000000 1.0
C      1  0.5288510000000  0.4501570000000  0.4279670000000 1.0
C      1  0.4680810000000  0.5054190000000  0.4830660000000 1.0
C      1  0.6003010000000  0.5065630000000  0.5089780000000 1.0
C      1  0.4263820000000  0.4903180000000  0.5567350000000 1.0
C      1  0.4767820000000  0.4312420000000  0.5321560000000 1.0
C      1  0.5684680000000  0.4819980000000  0.5578360000000 1.0
C      1  0.4170820000000  0.4627060000000  0.5114190000000 1.0
C      1  0.4569390000000  0.5010310000000  0.5119990000000 1.0
C      1  0.5377060000000  0.4250360000000  0.5281450000000 1.0
C      1  0.5424360000000  0.5325760000000  0.5865420000000 1.0
C      1  0.5061480000000  0.4491990000000  0.5825050000000 1.0
C      1  0.5200710000000  0.5013290000000  0.5513030000000 1.0
C      1  0.4941410000000  0.4961580000000  0.5679440000000 1.0
C      1  0.4212710000000  0.5234570000000  0.4553160000000 1.0
C      1  0.5169480000000  0.5791230000000  0.5316730000000 1.0
C      1  0.4376240000000  0.5456230000000  0.5314800000000 1.0
C      1  0.5554580000000  0.5802870000000  0.5045000000000 1.0
C      1  0.5677950000000  0.4547820000000  0.4544730000000 1.0
C      1  0.4698540000000  0.5488480000000  0.5686580000000 1.0
C      1  0.4746780000000  0.4803770000000  0.5214500000000 1.0
C      1  0.5483880000000  0.5335020000000  0.5098230000000 1.0
C      1  0.5369350000000  0.5686300000000  0.4850110000000 1.0
C      1  0.4741510000000  0.5451340000000  0.5014330000000 1.0
C      1  0.5463170000000  0.5470170000000  0.5603500000000 1.0
C      1  0.4106630000000  0.4753350000000  0.4854520000000 1.0
C      1  0.4854250000000  0.5718580000000  0.4972460000000 1.0
C      1  0.5620720000000  0.5581060000000  0.5203090000000 1.0
C      1  0.4989310000000  0.4212540000000  0.5492740000000 1.0
C      1  0.4354680000000  0.5682700000000  0.4808700000000 1.0
C      1  0.5907210000000  0.4839650000000  0.4943930000000 1.0
C      1  0.5472490000000  0.4797670000000  0.5780350000000 1.0
C      1  0.5012270000000  0.4596470000000  0.4198160000000 1.0
C      1  0.4455930000000  0.4277380000000  0.5366210000000 1.0
C      1  0.4615640000000  0.4383030000000  0.4395930000000 1.0
C      1  0.4823850000000  0.4202860000000  0.4468590000000 1.0
C      1  0.4661250000000  0.5514790000000  0.4315720000000 1.0
C      1  0.4299330000000  0.4979850000000  0.4464600000000 1.0
C      1  0.5576570000000  0.4264170000000  0.4557590000000 1.0
C      1  0.5435970000000  0.4709280000000  0.4452780000000 1.0
C      1  0.5056330000000  0.4663580000000  0.4817810000000 1.0
C      1  0.4771910000000  0.5753160000000  0.5640230000000 1.0
C      1  0.4724450000000  0.4553410000000  0.4166280000000 1.0
C      1  0.5557670000000  0.4376280000000  0.5503610000000 1.0
C      1  0.5474630000000  0.4945790000000  0.4264540000000 1.0
C      1  0.4825360000000  0.5676380000000  0.4137690000000 1.0
C      1  0.5104730000000  0.5282970000000  0.5423830000000 1.0
C      1  0.4185270000000  0.4868680000000  0.5288800000000 1.0
C      1  0.5631200000000  0.4409160000000  0.4902670000000 1.0
END
