TITL C-951333-8791-245 -4.6710506766178e-07 125000 -696.584988891065 0 0 112 (C1) n - 1
REM
REM in /home/bkarasulu/work/CARBON/AIRSS/Generating-Clusters/EDIP-Nigel-Params/with-SteepDescent/Only-C1/SD-CG/HFTN-CG
REM
REM
REM
REM
REM
REM ./C.cell (11c1c37f851c82e70ff6c80c92926a4b)
REM
REM compiler GCC version 9.2.1 20190827 (Red Hat 9.2.1-1)
REM options -cpp -mtune=generic -march=x86-64 -g -O0 -fpre-include=/usr/include/finclude/math-vector-fortran.h
REM seed -121654720 1539244240 2083645439 -95638009 -1742677892 1083432622 -1114621259 654645345 1972009844 1599740059 -146115533 1594709606 1993625665 1518639903 404959368 810301048 -679990079 -1903399901 -1689874556 1286684808 -614003114 1429419426 2069738144 933109874 712104891 -1072120670 1055049870 -1686354711 -1095441160 1571120013 -174058306 1079864074 -1386990122
REM
CELL 1.54180   50.00000   50.00000   50.00000   90.00000   90.00000   90.00000
LATT -1
SFAC C  
C      1  0.4404680000000  0.4463730000000  0.4517710000000 1.0
C      1  0.5778930000000  0.5708590000000  0.5265840000000 1.0
C      1  0.5029170000000  0.4141350000000  0.5264910000000 1.0
C      1  0.4604100000000  0.4625900000000  0.4950170000000 1.0
C      1  0.4381010000000  0.4906270000000  0.4345390000000 1.0
C      1  0.5191900000000  0.5251780000000  0.5340570000000 1.0
C      1  0.4928160000000  0.5426970000000  0.5249140000000 1.0
C      1  0.5142170000000  0.5597240000000  0.4381680000000 1.0
C      1  0.4625380000000  0.5811210000000  0.5205840000000 1.0
C      1  0.4178550000000  0.5151340000000  0.5510670000000 1.0
C      1  0.4307440000000  0.5476450000000  0.4796290000000 1.0
C      1  0.5305450000000  0.5541220000000  0.5643830000000 1.0
C      1  0.5351090000000  0.5158560000000  0.5086000000000 1.0
C      1  0.5014390000000  0.5188240000000  0.4490540000000 1.0
C      1  0.5328260000000  0.5289940000000  0.4092830000000 1.0
C      1  0.4894220000000  0.4662650000000  0.5049560000000 1.0
C      1  0.5522310000000  0.5361370000000  0.4291660000000 1.0
C      1  0.4695100000000  0.5058650000000  0.4842900000000 1.0
C      1  0.5079700000000  0.5433260000000  0.4143400000000 1.0
C      1  0.5604170000000  0.4967240000000  0.5597550000000 1.0
C      1  0.4696640000000  0.4033400000000  0.4500280000000 1.0
C      1  0.4314510000000  0.4453340000000  0.5321470000000 1.0
C      1  0.5853280000000  0.4743960000000  0.5202500000000 1.0
C      1  0.4205460000000  0.4486520000000  0.5046380000000 1.0
C      1  0.5487500000000  0.4307280000000  0.5320050000000 1.0
C      1  0.4913790000000  0.4930350000000  0.5896660000000 1.0
C      1  0.4100060000000  0.4759530000000  0.5003600000000 1.0
C      1  0.4567300000000  0.4084000000000  0.4748830000000 1.0
C      1  0.4431300000000  0.5413330000000  0.5216770000000 1.0
C      1  0.5722870000000  0.5227550000000  0.5180390000000 1.0
C      1  0.5145780000000  0.4424300000000  0.5793660000000 1.0
C      1  0.4540220000000  0.4699690000000  0.5686870000000 1.0
C      1  0.4872320000000  0.4965590000000  0.5057990000000 1.0
C      1  0.6025390000000  0.5055730000000  0.4840860000000 1.0
C      1  0.4810520000000  0.5268290000000  0.4161460000000 1.0
C      1  0.5239730000000  0.4755430000000  0.5350280000000 1.0
C      1  0.5433440000000  0.5590690000000  0.4449210000000 1.0
C      1  0.4949080000000  0.4428780000000  0.5592660000000 1.0
C      1  0.4289440000000  0.5203400000000  0.4735650000000 1.0
C      1  0.4307460000000  0.4675350000000  0.5518370000000 1.0
C      1  0.4816930000000  0.4952170000000  0.4122760000000 1.0
C      1  0.5279070000000  0.5206620000000  0.4607090000000 1.0
C      1  0.5672580000000  0.4741090000000  0.5422780000000 1.0
C      1  0.5086610000000  0.5889970000000  0.5242950000000 1.0
C      1  0.4403970000000  0.4335280000000  0.4785670000000 1.0
C      1  0.4681880000000  0.4954100000000  0.5744150000000 1.0
C      1  0.5106400000000  0.5356550000000  0.5764560000000 1.0
C      1  0.4721120000000  0.3999780000000  0.4981420000000 1.0
C      1  0.5243000000000  0.4549830000000  0.4368590000000 1.0
C      1  0.4667970000000  0.5277110000000  0.5350320000000 1.0
C      1  0.4979500000000  0.4910130000000  0.4362980000000 1.0
C      1  0.4461030000000  0.4825730000000  0.5139940000000 1.0
C      1  0.4615180000000  0.4804420000000  0.4702820000000 1.0
C      1  0.5346060000000  0.4601520000000  0.5693570000000 1.0
C      1  0.4390840000000  0.5682680000000  0.5295750000000 1.0
C      1  0.5543180000000  0.5619220000000  0.4725460000000 1.0
C      1  0.4493000000000  0.5675740000000  0.4739720000000 1.0
C      1  0.5516830000000  0.5794620000000  0.5190900000000 1.0
C      1  0.4282170000000  0.4719430000000  0.4535000000000 1.0
C      1  0.5900390000000  0.5004550000000  0.5097120000000 1.0
C      1  0.5684570000000  0.4931950000000  0.4716250000000 1.0
C      1  0.5317900000000  0.4845470000000  0.5049340000000 1.0
C      1  0.5458100000000  0.4978140000000  0.4282420000000 1.0
C      1  0.4866410000000  0.4696490000000  0.4559470000000 1.0
C      1  0.5221360000000  0.4807660000000  0.4241340000000 1.0
C      1  0.4446750000000  0.5149570000000  0.4487780000000 1.0
C      1  0.4973260000000  0.5924400000000  0.4732870000000 1.0
C      1  0.4715020000000  0.5734520000000  0.4929960000000 1.0
C      1  0.5086610000000  0.4621880000000  0.4826370000000 1.0
C      1  0.5563540000000  0.5223760000000  0.5458770000000 1.0
C      1  0.4661320000000  0.5602360000000  0.4509510000000 1.0
C      1  0.5256270000000  0.4360890000000  0.4864420000000 1.0
C      1  0.4199340000000  0.5236340000000  0.5230690000000 1.0
C      1  0.5774800000000  0.5641880000000  0.5540190000000 1.0
C      1  0.4241060000000  0.5032800000000  0.5004060000000 1.0
C      1  0.4672970000000  0.4516280000000  0.4364010000000 1.0
C      1  0.5267260000000  0.4267860000000  0.5153330000000 1.0
C      1  0.5891520000000  0.5254540000000  0.4681860000000 1.0
C      1  0.4923430000000  0.5757420000000  0.4494530000000 1.0
C      1  0.5005390000000  0.3951740000000  0.4925820000000 1.0
C      1  0.5859810000000  0.5482940000000  0.5092340000000 1.0
C      1  0.5143750000000  0.5840010000000  0.4952230000000 1.0
C      1  0.5321370000000  0.5829630000000  0.5401530000000 1.0
C      1  0.4807990000000  0.5290930000000  0.4698260000000 1.0
C      1  0.5122180000000  0.4126970000000  0.4723670000000 1.0
C      1  0.5127240000000  0.5049980000000  0.5743900000000 1.0
C      1  0.4828960000000  0.5418270000000  0.5777640000000 1.0
C      1  0.5386310000000  0.4892360000000  0.5784740000000 1.0
C      1  0.5527270000000  0.4470070000000  0.4779970000000 1.0
C      1  0.4746980000000  0.4191370000000  0.5194870000000 1.0
C      1  0.5516910000000  0.4541990000000  0.4490770000000 1.0
C      1  0.4590150000000  0.4767280000000  0.4182580000000 1.0
C      1  0.4688320000000  0.4461250000000  0.5691990000000 1.0
C      1  0.5810420000000  0.5509190000000  0.4797190000000 1.0
C      1  0.5642150000000  0.4812680000000  0.4451130000000 1.0
C      1  0.4624690000000  0.5244280000000  0.5657370000000 1.0
C      1  0.4339890000000  0.5292110000000  0.5701230000000 1.0
C      1  0.5585990000000  0.4735480000000  0.4930550000000 1.0
C      1  0.5429990000000  0.5812600000000  0.4914290000000 1.0
C      1  0.5021670000000  0.4364440000000  0.4312370000000 1.0
C      1  0.4870740000000  0.5722930000000  0.5343760000000 1.0
C      1  0.4930990000000  0.4188430000000  0.4515230000000 1.0
C      1  0.5555710000000  0.4496690000000  0.5510980000000 1.0
C      1  0.4712100000000  0.4986470000000  0.5303830000000 1.0
C      1  0.4966550000000  0.5441260000000  0.4925000000000 1.0
C      1  0.4524720000000  0.4266000000000  0.5351830000000 1.0
C      1  0.4118400000000  0.4880130000000  0.5533690000000 1.0
C      1  0.5004460000000  0.4576310000000  0.5331070000000 1.0
C      1  0.5245990000000  0.5322250000000  0.4865010000000 1.0
C      1  0.4584720000000  0.5364440000000  0.4339470000000 1.0
C      1  0.5072860000000  0.4997470000000  0.5450380000000 1.0
C      1  0.5583860000000  0.5458810000000  0.5634170000000 1.0
END
