TITL C-951333-8791-68 4.80041878309886e-08 125000 -1122.91001109279 0 0 180 (C1) n - 1
REM
REM in /home/bkarasulu/work/CARBON/AIRSS/Generating-Clusters/EDIP-Nigel-Params/with-SteepDescent/Only-C1/SD-CG/HFTN-CG
REM
REM
REM
REM
REM
REM ./C.cell (11c1c37f851c82e70ff6c80c92926a4b)
REM
REM compiler GCC version 9.2.1 20190827 (Red Hat 9.2.1-1)
REM options -cpp -mtune=generic -march=x86-64 -g -O0 -fpre-include=/usr/include/finclude/math-vector-fortran.h
REM seed 2037966333 1220099821 -1493642179 259763867 -1106187850 -411531377 -969452510 820988097 -1916131667 1695997609 1644825556 613086747 -148999236 774468490 -1680363715 -1653632334 -1918032336 -1663327093 424898751 -1983612113 354138825 1092410186 -47855181 450315067 1798197093 1572687030 -1142406220 -1333801161 1567597543 556599251 1860923259 1996356142 -1121337368
REM
CELL 1.54180   50.00000   50.00000   50.00000   90.00000   90.00000   90.00000
LATT -1
SFAC C  
C      1  0.4601750000000  0.4280120000000  0.4574950000000 1.0
C      1  0.4803930000000  0.4804540000000  0.6240050000000 1.0
C      1  0.5567170000000  0.4242020000000  0.5509640000000 1.0
C      1  0.5785780000000  0.5534610000000  0.5820130000000 1.0
C      1  0.5354930000000  0.5141360000000  0.5178920000000 1.0
C      1  0.5246530000000  0.5475590000000  0.5451310000000 1.0
C      1  0.5433940000000  0.5144720000000  0.4044410000000 1.0
C      1  0.4812850000000  0.6203290000000  0.5163510000000 1.0
C      1  0.4772370000000  0.4836700000000  0.4813640000000 1.0
C      1  0.4079460000000  0.4866260000000  0.5534390000000 1.0
C      1  0.4785770000000  0.4547610000000  0.5517400000000 1.0
C      1  0.3839300000000  0.5088340000000  0.4626110000000 1.0
C      1  0.5132970000000  0.5102640000000  0.4014770000000 1.0
C      1  0.5068990000000  0.4135890000000  0.5588020000000 1.0
C      1  0.5696540000000  0.5559180000000  0.4591440000000 1.0
C      1  0.4761830000000  0.4830560000000  0.3836540000000 1.0
C      1  0.4614040000000  0.4526680000000  0.4396950000000 1.0
C      1  0.5284150000000  0.3827840000000  0.5252620000000 1.0
C      1  0.4702570000000  0.5024330000000  0.4420060000000 1.0
C      1  0.5325590000000  0.4190800000000  0.4477150000000 1.0
C      1  0.4482130000000  0.4493850000000  0.5872920000000 1.0
C      1  0.4607700000000  0.4117930000000  0.5560270000000 1.0
C      1  0.5325250000000  0.4255660000000  0.5697750000000 1.0
C      1  0.4520310000000  0.5640990000000  0.5744960000000 1.0
C      1  0.4864510000000  0.5162220000000  0.5125550000000 1.0
C      1  0.4445000000000  0.5456570000000  0.4803350000000 1.0
C      1  0.5378590000000  0.4672520000000  0.4600630000000 1.0
C      1  0.4992540000000  0.6186890000000  0.5374200000000 1.0
C      1  0.5147190000000  0.5233810000000  0.5605530000000 1.0
C      1  0.5343650000000  0.5823740000000  0.4434780000000 1.0
C      1  0.5425710000000  0.5454560000000  0.4108240000000 1.0
C      1  0.5157790000000  0.5867980000000  0.5692460000000 1.0
C      1  0.5072930000000  0.4875670000000  0.6164950000000 1.0
C      1  0.4831140000000  0.5723960000000  0.4471330000000 1.0
C      1  0.5677070000000  0.4436090000000  0.5058610000000 1.0
C      1  0.3829090000000  0.5429790000000  0.4968750000000 1.0
C      1  0.4828750000000  0.6170870000000  0.4663470000000 1.0
C      1  0.4126530000000  0.5101190000000  0.4585440000000 1.0
C      1  0.4952290000000  0.4120820000000  0.4246830000000 1.0
C      1  0.5866710000000  0.4569900000000  0.5277310000000 1.0
C      1  0.5840460000000  0.5400680000000  0.5266970000000 1.0
C      1  0.5017860000000  0.4838010000000  0.3944650000000 1.0
C      1  0.6111410000000  0.5181010000000  0.5588560000000 1.0
C      1  0.4253350000000  0.4963740000000  0.5753100000000 1.0
C      1  0.5021050000000  0.4359010000000  0.4810770000000 1.0
C      1  0.5647540000000  0.5690520000000  0.5627000000000 1.0
C      1  0.5640940000000  0.5105630000000  0.4474660000000 1.0
C      1  0.5715610000000  0.4883770000000  0.4931860000000 1.0
C      1  0.4602870000000  0.4633650000000  0.4912140000000 1.0
C      1  0.4950910000000  0.6241650000000  0.4912880000000 1.0
C      1  0.5786050000000  0.5263490000000  0.4274740000000 1.0
C      1  0.4858720000000  0.5277860000000  0.5616150000000 1.0
C      1  0.5369520000000  0.4571160000000  0.4174810000000 1.0
C      1  0.4432790000000  0.4794470000000  0.5916480000000 1.0
C      1  0.5947450000000  0.5403650000000  0.4587680000000 1.0
C      1  0.4878370000000  0.4359340000000  0.4088530000000 1.0
C      1  0.4916000000000  0.3911310000000  0.4673840000000 1.0
C      1  0.4972890000000  0.4338940000000  0.5371890000000 1.0
C      1  0.6258540000000  0.4795000000000  0.5074660000000 1.0
C      1  0.5201870000000  0.4919380000000  0.4613950000000 1.0
C      1  0.5846520000000  0.4876440000000  0.5297380000000 1.0
C      1  0.5846440000000  0.4298610000000  0.4845530000000 1.0
C      1  0.5922760000000  0.4967730000000  0.5576310000000 1.0
C      1  0.6069420000000  0.5033320000000  0.5132050000000 1.0
C      1  0.5226200000000  0.4474440000000  0.5259570000000 1.0
C      1  0.4209980000000  0.5281560000000  0.4329070000000 1.0
C      1  0.5167620000000  0.4439180000000  0.4555970000000 1.0
C      1  0.5063360000000  0.4636770000000  0.4171120000000 1.0
C      1  0.5349080000000  0.5634220000000  0.5678660000000 1.0
C      1  0.4479770000000  0.5502840000000  0.5129240000000 1.0
C      1  0.4701720000000  0.5229070000000  0.6022980000000 1.0
C      1  0.6254470000000  0.4803810000000  0.4795320000000 1.0
C      1  0.5063550000000  0.5897250000000  0.4355390000000 1.0
C      1  0.4512980000000  0.4400870000000  0.5573200000000 1.0
C      1  0.4036570000000  0.4469850000000  0.4317200000000 1.0
C      1  0.4315350000000  0.4199010000000  0.4564230000000 1.0
C      1  0.5058650000000  0.4855360000000  0.4872580000000 1.0
C      1  0.5092530000000  0.5685280000000  0.5274960000000 1.0
C      1  0.5084420000000  0.4067720000000  0.4835330000000 1.0
C      1  0.4572110000000  0.4168100000000  0.5049730000000 1.0
C      1  0.5217120000000  0.4031670000000  0.4260700000000 1.0
C      1  0.5125980000000  0.5217700000000  0.5005300000000 1.0
C      1  0.4297750000000  0.5120760000000  0.4083360000000 1.0
C      1  0.5744030000000  0.4836640000000  0.4089910000000 1.0
C      1  0.4476240000000  0.5403720000000  0.5929850000000 1.0
C      1  0.3863140000000  0.4956800000000  0.5112010000000 1.0
C      1  0.4283020000000  0.5689570000000  0.5553010000000 1.0
C      1  0.5331470000000  0.5460650000000  0.5927250000000 1.0
C      1  0.5231460000000  0.5695330000000  0.4999320000000 1.0
C      1  0.4919030000000  0.5480110000000  0.4637640000000 1.0
C      1  0.4626170000000  0.5984450000000  0.5187140000000 1.0
C      1  0.5765000000000  0.5366560000000  0.4985140000000 1.0
C      1  0.4417470000000  0.5893960000000  0.4759300000000 1.0
C      1  0.4891070000000  0.5767680000000  0.5749960000000 1.0
C      1  0.5320180000000  0.4693610000000  0.5470350000000 1.0
C      1  0.4111590000000  0.4646480000000  0.5346310000000 1.0
C      1  0.4994740000000  0.4895520000000  0.4380020000000 1.0
C      1  0.4245780000000  0.5234670000000  0.4823150000000 1.0
C      1  0.4509440000000  0.4766230000000  0.3903060000000 1.0
C      1  0.5975520000000  0.4848290000000  0.4737940000000 1.0
C      1  0.4257220000000  0.5256910000000  0.5805100000000 1.0
C      1  0.5247020000000  0.4539200000000  0.5739600000000 1.0
C      1  0.4572160000000  0.5206770000000  0.4202260000000 1.0
C      1  0.5608120000000  0.5366330000000  0.5962600000000 1.0
C      1  0.5006400000000  0.5368880000000  0.3997610000000 1.0
C      1  0.5770230000000  0.4456550000000  0.5549270000000 1.0
C      1  0.4763330000000  0.5566190000000  0.5575260000000 1.0
C      1  0.5527940000000  0.4649730000000  0.4893270000000 1.0
C      1  0.5661330000000  0.4821390000000  0.4386200000000 1.0
C      1  0.5166660000000  0.5447910000000  0.4805200000000 1.0
C      1  0.5659930000000  0.5091620000000  0.5964950000000 1.0
C      1  0.4260150000000  0.5703010000000  0.5221890000000 1.0
C      1  0.5362070000000  0.4010380000000  0.4818210000000 1.0
C      1  0.3926170000000  0.5064430000000  0.5379100000000 1.0
C      1  0.5596000000000  0.5754650000000  0.5109720000000 1.0
C      1  0.5436140000000  0.4001830000000  0.5096950000000 1.0
C      1  0.4302450000000  0.4437870000000  0.5353930000000 1.0
C      1  0.4346410000000  0.4835600000000  0.4119540000000 1.0
C      1  0.5127710000000  0.3884210000000  0.5462840000000 1.0
C      1  0.5506810000000  0.5593920000000  0.4359470000000 1.0
C      1  0.5197510000000  0.5575760000000  0.3987640000000 1.0
C      1  0.4818950000000  0.4119140000000  0.5776270000000 1.0
C      1  0.5203970000000  0.4988050000000  0.5409630000000 1.0
C      1  0.4743570000000  0.5012290000000  0.5704830000000 1.0
C      1  0.4689250000000  0.5290590000000  0.4676490000000 1.0
C      1  0.4731190000000  0.4835190000000  0.5457320000000 1.0
C      1  0.4358950000000  0.5549550000000  0.4383250000000 1.0
C      1  0.5148040000000  0.5957070000000  0.5414520000000 1.0
C      1  0.4372580000000  0.5241790000000  0.5250430000000 1.0
C      1  0.4708590000000  0.4074220000000  0.5288300000000 1.0
C      1  0.4000760000000  0.4700700000000  0.5087090000000 1.0
C      1  0.5547970000000  0.4353580000000  0.4355730000000 1.0
C      1  0.5560110000000  0.5145730000000  0.4941420000000 1.0
C      1  0.3982350000000  0.5535600000000  0.5176640000000 1.0
C      1  0.5755820000000  0.4893520000000  0.5793370000000 1.0
C      1  0.5087810000000  0.5282170000000  0.5989760000000 1.0
C      1  0.4595800000000  0.4953300000000  0.6112090000000 1.0
C      1  0.5819100000000  0.5107680000000  0.4036230000000 1.0
C      1  0.4476830000000  0.4794530000000  0.4397520000000 1.0
C      1  0.4726200000000  0.5423490000000  0.4071400000000 1.0
C      1  0.4325890000000  0.4764950000000  0.4909410000000 1.0
C      1  0.4764510000000  0.4370400000000  0.5945930000000 1.0
C      1  0.5620810000000  0.4648600000000  0.5716630000000 1.0
C      1  0.4764670000000  0.5643150000000  0.5271890000000 1.0
C      1  0.5749630000000  0.5663630000000  0.5342420000000 1.0
C      1  0.6111340000000  0.4352340000000  0.4936620000000 1.0
C      1  0.5751890000000  0.4432010000000  0.4580510000000 1.0
C      1  0.4091450000000  0.5309660000000  0.5354740000000 1.0
C      1  0.5212530000000  0.5967230000000  0.4874630000000 1.0
C      1  0.5154610000000  0.5133100000000  0.6222520000000 1.0
C      1  0.6104130000000  0.5278830000000  0.5322990000000 1.0
C      1  0.5003560000000  0.6160990000000  0.4442410000000 1.0
C      1  0.4940310000000  0.4560730000000  0.5780950000000 1.0
C      1  0.5433210000000  0.5937300000000  0.4690110000000 1.0
C      1  0.5887560000000  0.4683270000000  0.4514950000000 1.0
C      1  0.4131580000000  0.5440050000000  0.5614920000000 1.0
C      1  0.4681490000000  0.5091930000000  0.4912430000000 1.0
C      1  0.4313870000000  0.4295010000000  0.5097610000000 1.0
C      1  0.5402230000000  0.5175930000000  0.4661800000000 1.0
C      1  0.4370290000000  0.5943180000000  0.5053690000000 1.0
C      1  0.4165340000000  0.4348880000000  0.4770460000000 1.0
C      1  0.4253010000000  0.4294230000000  0.4292040000000 1.0
C      1  0.6144520000000  0.4526420000000  0.5160200000000 1.0
C      1  0.5632820000000  0.5753090000000  0.4813880000000 1.0
C      1  0.4624300000000  0.5629090000000  0.4263200000000 1.0
C      1  0.3814990000000  0.5158180000000  0.4897970000000 1.0
C      1  0.6004110000000  0.5275940000000  0.4843410000000 1.0
C      1  0.4252660000000  0.5715260000000  0.4598770000000 1.0
C      1  0.4246060000000  0.4807280000000  0.4610280000000 1.0
C      1  0.5490480000000  0.4764380000000  0.3992450000000 1.0
C      1  0.4698970000000  0.5911660000000  0.4672540000000 1.0
C      1  0.4063990000000  0.4565690000000  0.4583810000000 1.0
C      1  0.5158410000000  0.4578540000000  0.4979990000000 1.0
C      1  0.4947730000000  0.4840740000000  0.5879450000000 1.0
C      1  0.5471520000000  0.4272980000000  0.5224610000000 1.0
C      1  0.4698770000000  0.4360810000000  0.4846420000000 1.0
C      1  0.4936800000000  0.4930990000000  0.5286650000000 1.0
C      1  0.4586540000000  0.4402430000000  0.4136660000000 1.0
C      1  0.4783150000000  0.4060570000000  0.4477210000000 1.0
C      1  0.4391440000000  0.5056970000000  0.5008750000000 1.0
END
