TITL C-951340-9809-627 -5.24454222465956e-07 125000 -86.9332767197337 0 0 16 (C1) n - 1
REM
REM in /home/bkarasulu/work/CARBON/AIRSS/Generating-Clusters/EDIP-Nigel-Params/with-SteepDescent/Only-C1/SD-CG/HFTN-CG
REM
REM
REM
REM
REM
REM ./C.cell (11c1c37f851c82e70ff6c80c92926a4b)
REM
REM compiler GCC version 9.2.1 20190827 (Red Hat 9.2.1-1)
REM options -cpp -mtune=generic -march=x86-64 -g -O0 -fpre-include=/usr/include/finclude/math-vector-fortran.h
REM seed 1659981750 2008849925 -442773912 -1032635307 579684983 -1263965372 741653054 -1283950667 -1164010428 1254630641 -1040026618 -1399035134 -1495914223 213644005 -243310229 392659339 -1853476299 -1033241304 1552063639 -1853913522 -770996978 -1589886751 -1807478271 1837548412 690747379 -1363235631 1708613080 28330631 1400694453 -172850649 493888526 956452439 983737528
REM
CELL 1.54180   50.00000   50.00000   50.00000   90.00000   90.00000   90.00000
LATT -1
SFAC C  
C      1  0.4722730000000  0.4680770000000  0.5005740000000 1.0
C      1  0.5222510000000  0.5457070000000  0.4598970000000 1.0
C      1  0.5324830000000  0.4525700000000  0.5137460000000 1.0
C      1  0.5203210000000  0.5579930000000  0.4834070000000 1.0
C      1  0.4632410000000  0.5107080000000  0.5413620000000 1.0
C      1  0.5148740000000  0.4413070000000  0.4955670000000 1.0
C      1  0.4848740000000  0.5105990000000  0.5244880000000 1.0
C      1  0.5055970000000  0.4828710000000  0.4843150000000 1.0
C      1  0.5117610000000  0.5523710000000  0.5079120000000 1.0
C      1  0.4875130000000  0.4457260000000  0.4956290000000 1.0
C      1  0.4993610000000  0.5338940000000  0.5224170000000 1.0
C      1  0.5299670000000  0.4761890000000  0.4997120000000 1.0
C      1  0.4451840000000  0.5085290000000  0.5593990000000 1.0
C      1  0.5175280000000  0.5212300000000  0.4506870000000 1.0
C      1  0.5102770000000  0.4975390000000  0.4603250000000 1.0
C      1  0.4824930000000  0.4946890000000  0.5005640000000 1.0
END
