TITL C-951341-1326-495 -7.74413148618499e-06 125000 -985.509989982409 0 0 158 (C1) n - 1
REM
REM in /home/bkarasulu/work/CARBON/AIRSS/Generating-Clusters/EDIP-Nigel-Params/with-SteepDescent/Only-C1/SD-CG/HFTN-CG
REM
REM
REM
REM
REM
REM ./C.cell (11c1c37f851c82e70ff6c80c92926a4b)
REM
REM compiler GCC version 9.2.1 20190827 (Red Hat 9.2.1-1)
REM options -cpp -mtune=generic -march=x86-64 -g -O0 -fpre-include=/usr/include/finclude/math-vector-fortran.h
REM seed -811337484 -70678212 1171832462 -1685997002 -437700740 513893867 1760515486 -1302143500 -1468627871 857143793 1623408166 205994497 -1284305252 -1436590348 -44220107 -1859744960 190095823 -640669431 -815393450 590616334 -953986608 -977530442 445412015 -1782913890 1665667583 1842244388 2086068924 2053549288 -1546014644 -605132707 -2085872288 1965306937 205852831
REM
CELL 1.54180   50.00000   50.00000   50.00000   90.00000   90.00000   90.00000
LATT -1
SFAC C  
C      1  0.5438140000000  0.5923640000000  0.4951840000000 1.0
C      1  0.4504890000000  0.5335690000000  0.4879910000000 1.0
C      1  0.5226360000000  0.4896640000000  0.4458170000000 1.0
C      1  0.5959730000000  0.4978380000000  0.5425240000000 1.0
C      1  0.5369880000000  0.5159510000000  0.4402010000000 1.0
C      1  0.4309260000000  0.4158390000000  0.5469870000000 1.0
C      1  0.5515480000000  0.3873020000000  0.5040390000000 1.0
C      1  0.5194800000000  0.4790770000000  0.5386220000000 1.0
C      1  0.5477080000000  0.4862410000000  0.4712680000000 1.0
C      1  0.5552790000000  0.4194890000000  0.4663370000000 1.0
C      1  0.5255350000000  0.5376040000000  0.4548730000000 1.0
C      1  0.5596250000000  0.5017200000000  0.5867380000000 1.0
C      1  0.4158880000000  0.4858330000000  0.4993300000000 1.0
C      1  0.5363160000000  0.5389100000000  0.5269870000000 1.0
C      1  0.4867370000000  0.5028790000000  0.4473360000000 1.0
C      1  0.4825400000000  0.5075610000000  0.5579930000000 1.0
C      1  0.4029230000000  0.4913450000000  0.4548200000000 1.0
C      1  0.4069860000000  0.4627490000000  0.5374190000000 1.0
C      1  0.4060200000000  0.4898980000000  0.5278500000000 1.0
C      1  0.4729280000000  0.4342100000000  0.5113960000000 1.0
C      1  0.4483440000000  0.4724600000000  0.4822020000000 1.0
C      1  0.5335560000000  0.5595790000000  0.4344540000000 1.0
C      1  0.5973150000000  0.5341430000000  0.4511600000000 1.0
C      1  0.5020940000000  0.5469900000000  0.3974520000000 1.0
C      1  0.4210870000000  0.5361030000000  0.5379640000000 1.0
C      1  0.5919290000000  0.5461970000000  0.5357230000000 1.0
C      1  0.4894000000000  0.5704850000000  0.4868390000000 1.0
C      1  0.5380100000000  0.5043400000000  0.3916140000000 1.0
C      1  0.4410210000000  0.4342310000000  0.4765000000000 1.0
C      1  0.4740820000000  0.4370610000000  0.4323350000000 1.0
C      1  0.4732270000000  0.5597150000000  0.5857080000000 1.0
C      1  0.4686500000000  0.5015680000000  0.5831170000000 1.0
C      1  0.5502100000000  0.4503170000000  0.5115440000000 1.0
C      1  0.4403530000000  0.6064910000000  0.5100650000000 1.0
C      1  0.5170000000000  0.4540420000000  0.4706850000000 1.0
C      1  0.5853270000000  0.5093710000000  0.4412320000000 1.0
C      1  0.4410260000000  0.4752810000000  0.4316100000000 1.0
C      1  0.4704380000000  0.4007110000000  0.5444230000000 1.0
C      1  0.4353760000000  0.4351250000000  0.5673080000000 1.0
C      1  0.4446360000000  0.5195240000000  0.5892000000000 1.0
C      1  0.5245000000000  0.4413370000000  0.4291280000000 1.0
C      1  0.5695960000000  0.5798330000000  0.5031830000000 1.0
C      1  0.5742360000000  0.5502400000000  0.4255190000000 1.0
C      1  0.5835880000000  0.5226120000000  0.5503210000000 1.0
C      1  0.4520110000000  0.5537120000000  0.4636900000000 1.0
C      1  0.4436540000000  0.4286880000000  0.4450720000000 1.0
C      1  0.5321430000000  0.5969430000000  0.4675920000000 1.0
C      1  0.5644770000000  0.4755510000000  0.5716260000000 1.0
C      1  0.5133480000000  0.5187360000000  0.3989910000000 1.0
C      1  0.5261680000000  0.5990890000000  0.5171730000000 1.0
C      1  0.4667240000000  0.4817180000000  0.5264540000000 1.0
C      1  0.4673740000000  0.5209270000000  0.4321500000000 1.0
C      1  0.4252010000000  0.4508410000000  0.4387690000000 1.0
C      1  0.4716320000000  0.4332300000000  0.4793750000000 1.0
C      1  0.5050630000000  0.4062420000000  0.4545590000000 1.0
C      1  0.4822430000000  0.5279350000000  0.4965840000000 1.0
C      1  0.5629930000000  0.5147090000000  0.3972830000000 1.0
C      1  0.5687630000000  0.4056760000000  0.4918790000000 1.0
C      1  0.5518880000000  0.4327570000000  0.4368510000000 1.0
C      1  0.5099330000000  0.5679950000000  0.4181920000000 1.0
C      1  0.5840830000000  0.5248340000000  0.4975840000000 1.0
C      1  0.4135680000000  0.5967140000000  0.5051280000000 1.0
C      1  0.5724650000000  0.5683460000000  0.5309500000000 1.0
C      1  0.5880250000000  0.5705360000000  0.4840230000000 1.0
C      1  0.5399880000000  0.5006290000000  0.4962640000000 1.0
C      1  0.4634170000000  0.4786900000000  0.4542560000000 1.0
C      1  0.4741140000000  0.5451280000000  0.3916080000000 1.0
C      1  0.5909720000000  0.4762070000000  0.5108900000000 1.0
C      1  0.5260980000000  0.5014930000000  0.5583200000000 1.0
C      1  0.5162420000000  0.4882860000000  0.5101630000000 1.0
C      1  0.5199900000000  0.4701860000000  0.4205990000000 1.0
C      1  0.5036810000000  0.4429660000000  0.5935690000000 1.0
C      1  0.4180500000000  0.5089750000000  0.5467730000000 1.0
C      1  0.4203770000000  0.4594360000000  0.5633550000000 1.0
C      1  0.4812790000000  0.4535250000000  0.4569440000000 1.0
C      1  0.5022530000000  0.5826450000000  0.5543620000000 1.0
C      1  0.4201600000000  0.5055670000000  0.5762640000000 1.0
C      1  0.4589320000000  0.5628600000000  0.5265490000000 1.0
C      1  0.4801990000000  0.4184310000000  0.5644030000000 1.0
C      1  0.5696740000000  0.5713270000000  0.4441610000000 1.0
C      1  0.5170340000000  0.4892970000000  0.5887140000000 1.0
C      1  0.5260340000000  0.4613740000000  0.5953890000000 1.0
C      1  0.4979750000000  0.5110040000000  0.5165390000000 1.0
C      1  0.4910780000000  0.5801140000000  0.4394250000000 1.0
C      1  0.5853010000000  0.5438100000000  0.4752460000000 1.0
C      1  0.4882760000000  0.4914570000000  0.6025670000000 1.0
C      1  0.5471010000000  0.4527910000000  0.5774200000000 1.0
C      1  0.4202930000000  0.5402620000000  0.5098020000000 1.0
C      1  0.4992450000000  0.5657890000000  0.5783110000000 1.0
C      1  0.4380320000000  0.4098130000000  0.4995140000000 1.0
C      1  0.4967090000000  0.5152030000000  0.6176090000000 1.0
C      1  0.5450610000000  0.4587010000000  0.4829180000000 1.0
C      1  0.5281940000000  0.5851290000000  0.5426030000000 1.0
C      1  0.5843390000000  0.4422540000000  0.4726650000000 1.0
C      1  0.4398620000000  0.5114820000000  0.4723690000000 1.0
C      1  0.4823070000000  0.5549800000000  0.5099910000000 1.0
C      1  0.5012100000000  0.4230340000000  0.4313790000000 1.0
C      1  0.5795580000000  0.4248660000000  0.5127250000000 1.0
C      1  0.3963340000000  0.5576300000000  0.4771040000000 1.0
C      1  0.5539530000000  0.5229920000000  0.5083090000000 1.0
C      1  0.4843000000000  0.6014700000000  0.5384260000000 1.0
C      1  0.4022630000000  0.4515710000000  0.4878290000000 1.0
C      1  0.5011360000000  0.4650500000000  0.4962010000000 1.0
C      1  0.4176500000000  0.4786000000000  0.5835240000000 1.0
C      1  0.5459300000000  0.4264660000000  0.5312930000000 1.0
C      1  0.5467770000000  0.5492780000000  0.5719560000000 1.0
C      1  0.5010870000000  0.4400330000000  0.5134840000000 1.0
C      1  0.4821750000000  0.5581030000000  0.4606700000000 1.0
C      1  0.5584660000000  0.5224030000000  0.5659300000000 1.0
C      1  0.4679520000000  0.5194810000000  0.4028610000000 1.0
C      1  0.4114260000000  0.4448200000000  0.5148620000000 1.0
C      1  0.4724890000000  0.4766510000000  0.4990220000000 1.0
C      1  0.5917430000000  0.4967750000000  0.4890480000000 1.0
C      1  0.4892630000000  0.4796460000000  0.5469520000000 1.0
C      1  0.5820680000000  0.4744670000000  0.5486830000000 1.0
C      1  0.4917950000000  0.4760080000000  0.4124040000000 1.0
C      1  0.4112160000000  0.5070920000000  0.4791260000000 1.0
C      1  0.5205380000000  0.5280060000000  0.6087640000000 1.0
C      1  0.4770990000000  0.4549030000000  0.5970210000000 1.0
C      1  0.5456770000000  0.5863960000000  0.4442230000000 1.0
C      1  0.4880090000000  0.3945870000000  0.4978790000000 1.0
C      1  0.4624140000000  0.4359760000000  0.5788960000000 1.0
C      1  0.4484320000000  0.5423080000000  0.5463160000000 1.0
C      1  0.5029040000000  0.6025600000000  0.4598310000000 1.0
C      1  0.4123740000000  0.5807760000000  0.4814870000000 1.0
C      1  0.5716920000000  0.4520530000000  0.4312550000000 1.0
C      1  0.5422870000000  0.5082170000000  0.6098680000000 1.0
C      1  0.4502040000000  0.5466490000000  0.5763490000000 1.0
C      1  0.5225670000000  0.4218420000000  0.4733730000000 1.0
C      1  0.4970960000000  0.5302840000000  0.4637110000000 1.0
C      1  0.5863070000000  0.4623060000000  0.4527670000000 1.0
C      1  0.4987000000000  0.6093580000000  0.5129040000000 1.0
C      1  0.5463820000000  0.5616750000000  0.5440290000000 1.0
C      1  0.5119050000000  0.4141620000000  0.5014790000000 1.0
C      1  0.4660590000000  0.4052790000000  0.5156380000000 1.0
C      1  0.4104320000000  0.4630570000000  0.4617300000000 1.0
C      1  0.5632880000000  0.5218400000000  0.4252800000000 1.0
C      1  0.4225330000000  0.4992100000000  0.4332260000000 1.0
C      1  0.4901990000000  0.5009680000000  0.3969610000000 1.0
C      1  0.5333060000000  0.4029590000000  0.5183030000000 1.0
C      1  0.4859330000000  0.5995470000000  0.4865890000000 1.0
C      1  0.5369670000000  0.4773520000000  0.3983230000000 1.0
C      1  0.4201280000000  0.4182560000000  0.5208350000000 1.0
C      1  0.4552610000000  0.6023260000000  0.4842690000000 1.0
C      1  0.4806010000000  0.4042520000000  0.4707470000000 1.0
C      1  0.6061680000000  0.5363870000000  0.5139780000000 1.0
C      1  0.5207140000000  0.5466920000000  0.5854400000000 1.0
C      1  0.4732810000000  0.4550570000000  0.4096020000000 1.0
C      1  0.3995580000000  0.5334130000000  0.4911180000000 1.0
C      1  0.4399920000000  0.5221850000000  0.4440630000000 1.0
C      1  0.4391250000000  0.5808030000000  0.4699630000000 1.0
C      1  0.4556240000000  0.5920890000000  0.5333190000000 1.0
C      1  0.5930530000000  0.4480900000000  0.4998590000000 1.0
C      1  0.5127180000000  0.5248850000000  0.5400980000000 1.0
C      1  0.4611370000000  0.5163140000000  0.5397090000000 1.0
C      1  0.5783090000000  0.4892420000000  0.4630860000000 1.0
C      1  0.5081000000000  0.4254210000000  0.5703580000000 1.0
C      1  0.5347750000000  0.4331040000000  0.5590780000000 1.0
END
