TITL C-951337-3020-96 -1.53240865136887e-06 125000 -195.549396798247 0 0 34 (C1) n - 1
REM
REM in /home/bkarasulu/work/CARBON/AIRSS/Generating-Clusters/EDIP-Nigel-Params/with-SteepDescent/Only-C1/SD-CG/HFTN-CG
REM
REM
REM
REM
REM
REM ./C.cell (11c1c37f851c82e70ff6c80c92926a4b)
REM
REM compiler GCC version 9.2.1 20190827 (Red Hat 9.2.1-1)
REM options -cpp -mtune=generic -march=x86-64 -g -O0 -fpre-include=/usr/include/finclude/math-vector-fortran.h
REM seed -1919783334 -200753815 -759489125 -1435511472 -1361607237 992960191 1581543687 -1329477633 1430823396 -1309380036 -420069833 -2070319485 -1905036954 -252044233 487606498 78482360 985502405 193716034 364640829 -1995263064 -2145556386 669735432 2012018014 130301491 1540985721 -276926322 2007393277 1953822833 580760080 1212301617 -343089863 -797937022 68186469
REM
CELL 1.54180   50.00000   50.00000   50.00000   90.00000   90.00000   90.00000
LATT -1
SFAC C  
C      1  0.4941420000000  0.4887020000000  0.4924670000000 1.0
C      1  0.4998250000000  0.4735910000000  0.5390430000000 1.0
C      1  0.5356340000000  0.5156290000000  0.4761510000000 1.0
C      1  0.4659470000000  0.4963060000000  0.4995510000000 1.0
C      1  0.4881720000000  0.5409700000000  0.4727960000000 1.0
C      1  0.4873720000000  0.5477380000000  0.4999830000000 1.0
C      1  0.5092410000000  0.5466880000000  0.5433250000000 1.0
C      1  0.4868930000000  0.4402860000000  0.5063190000000 1.0
C      1  0.4655260000000  0.4469980000000  0.4656050000000 1.0
C      1  0.4891120000000  0.5122340000000  0.4362510000000 1.0
C      1  0.4938030000000  0.4865150000000  0.5636860000000 1.0
C      1  0.5114580000000  0.4516200000000  0.4666940000000 1.0
C      1  0.4872790000000  0.5464750000000  0.5600880000000 1.0
C      1  0.5023550000000  0.5317060000000  0.5780090000000 1.0
C      1  0.5334400000000  0.5319990000000  0.5027590000000 1.0
C      1  0.4775020000000  0.4583710000000  0.5254700000000 1.0
C      1  0.5080080000000  0.5379090000000  0.5162610000000 1.0
C      1  0.4727810000000  0.4751760000000  0.4613240000000 1.0
C      1  0.5080290000000  0.5527870000000  0.4558480000000 1.0
C      1  0.5292720000000  0.4655330000000  0.5350250000000 1.0
C      1  0.4900200000000  0.4819140000000  0.4359000000000 1.0
C      1  0.4983430000000  0.5042640000000  0.5841540000000 1.0
C      1  0.5099160000000  0.4942080000000  0.5175300000000 1.0
C      1  0.5087520000000  0.4950060000000  0.6066050000000 1.0
C      1  0.5411550000000  0.5336650000000  0.4534950000000 1.0
C      1  0.5388840000000  0.4842540000000  0.5138360000000 1.0
C      1  0.4568650000000  0.4754360000000  0.5161600000000 1.0
C      1  0.5505910000000  0.5103800000000  0.5118150000000 1.0
C      1  0.5189840000000  0.5359550000000  0.4349980000000 1.0
C      1  0.4565080000000  0.4993910000000  0.4718610000000 1.0
C      1  0.5087600000000  0.5019460000000  0.4687560000000 1.0
C      1  0.5151160000000  0.4754530000000  0.4518210000000 1.0
C      1  0.4710170000000  0.5221540000000  0.4578890000000 1.0
C      1  0.4893000000000  0.4387390000000  0.4785250000000 1.0
END
