TITL C-951336-9012-631 1.02903459704544e-07 125000 -375.412776150923 0 0 61 (C1) n - 1
REM
REM in /home/bkarasulu/work/CARBON/AIRSS/Generating-Clusters/EDIP-Nigel-Params/with-SteepDescent/Only-C1/SD-CG/HFTN-CG
REM
REM
REM
REM
REM
REM ./C.cell (11c1c37f851c82e70ff6c80c92926a4b)
REM
REM compiler GCC version 9.2.1 20190827 (Red Hat 9.2.1-1)
REM options -cpp -mtune=generic -march=x86-64 -g -O0 -fpre-include=/usr/include/finclude/math-vector-fortran.h
REM seed 347608544 -1818473865 -1332904111 461883629 -2058908673 -1792449787 432004547 1810290777 -1478981814 -1163723596 1193904488 305169829 1821469050 -950651081 -1521748143 436843357 1021331716 1981586438 463629739 1401070640 -678380913 -401183050 -803879189 -729726703 1084185636 -1524043954 -1029091109 -1400879746 -123836212 827806686 2072518079 -2088837170 -1710700029
REM
CELL 1.54180   50.00000   50.00000   50.00000   90.00000   90.00000   90.00000
LATT -1
SFAC C  
C      1  0.4626740000000  0.4745700000000  0.4877270000000 1.0
C      1  0.4233290000000  0.5221860000000  0.4617850000000 1.0
C      1  0.5680390000000  0.4673290000000  0.4536990000000 1.0
C      1  0.5004890000000  0.5438640000000  0.4610830000000 1.0
C      1  0.4393490000000  0.5295500000000  0.5542170000000 1.0
C      1  0.4515270000000  0.5606060000000  0.5164040000000 1.0
C      1  0.5767790000000  0.4776010000000  0.5013570000000 1.0
C      1  0.5242470000000  0.5180890000000  0.5427350000000 1.0
C      1  0.4491530000000  0.5102510000000  0.4581200000000 1.0
C      1  0.4522450000000  0.4495430000000  0.5001950000000 1.0
C      1  0.5255570000000  0.4728950000000  0.5547930000000 1.0
C      1  0.4295190000000  0.5542560000000  0.5002320000000 1.0
C      1  0.4870870000000  0.4333970000000  0.5077770000000 1.0
C      1  0.5097250000000  0.4292210000000  0.4766190000000 1.0
C      1  0.4957020000000  0.4747800000000  0.5313890000000 1.0
C      1  0.4554010000000  0.5229940000000  0.4855070000000 1.0
C      1  0.4557570000000  0.5494460000000  0.5433790000000 1.0
C      1  0.5787530000000  0.4868410000000  0.4720390000000 1.0
C      1  0.4330370000000  0.4952640000000  0.5210450000000 1.0
C      1  0.4572050000000  0.4991070000000  0.5054550000000 1.0
C      1  0.4996250000000  0.5180240000000  0.5008960000000 1.0
C      1  0.5187060000000  0.4623580000000  0.4425920000000 1.0
C      1  0.5040590000000  0.4741240000000  0.5746280000000 1.0
C      1  0.5378910000000  0.5731600000000  0.4987410000000 1.0
C      1  0.5353350000000  0.4430420000000  0.4820290000000 1.0
C      1  0.4852420000000  0.4982130000000  0.5712610000000 1.0
C      1  0.5300900000000  0.5389340000000  0.4637820000000 1.0
C      1  0.4598730000000  0.4853500000000  0.5601940000000 1.0
C      1  0.5411290000000  0.4943530000000  0.5437690000000 1.0
C      1  0.4898920000000  0.5292900000000  0.4398640000000 1.0
C      1  0.4731740000000  0.4680650000000  0.4411460000000 1.0
C      1  0.5249490000000  0.5575680000000  0.5177250000000 1.0
C      1  0.5473300000000  0.5136250000000  0.5001400000000 1.0
C      1  0.5566330000000  0.4331190000000  0.4970610000000 1.0
C      1  0.5032190000000  0.4585830000000  0.5083660000000 1.0
C      1  0.5249930000000  0.5280530000000  0.5149200000000 1.0
C      1  0.4876600000000  0.4503520000000  0.5697210000000 1.0
C      1  0.4975640000000  0.5653270000000  0.5268280000000 1.0
C      1  0.4625010000000  0.4395420000000  0.5257540000000 1.0
C      1  0.4831990000000  0.5397610000000  0.4864940000000 1.0
C      1  0.4840790000000  0.5031980000000  0.5228500000000 1.0
C      1  0.4727390000000  0.4606840000000  0.5462980000000 1.0
C      1  0.5677870000000  0.5337820000000  0.4879440000000 1.0
C      1  0.5483800000000  0.5553060000000  0.4799070000000 1.0
C      1  0.4945210000000  0.5178630000000  0.5490640000000 1.0
C      1  0.4915930000000  0.5020980000000  0.4495250000000 1.0
C      1  0.5725770000000  0.5158660000000  0.4637330000000 1.0
C      1  0.5402350000000  0.4666300000000  0.4635110000000 1.0
C      1  0.4926960000000  0.4710840000000  0.4840090000000 1.0
C      1  0.5464110000000  0.5192640000000  0.4486790000000 1.0
C      1  0.4175770000000  0.5424990000000  0.4792810000000 1.0
C      1  0.5572490000000  0.4928310000000  0.5179100000000 1.0
C      1  0.4846350000000  0.5471710000000  0.5482200000000 1.0
C      1  0.4960460000000  0.4515790000000  0.4595450000000 1.0
C      1  0.5049160000000  0.4981950000000  0.4776830000000 1.0
C      1  0.4408580000000  0.5027830000000  0.5466510000000 1.0
C      1  0.4781190000000  0.5643040000000  0.5039020000000 1.0
C      1  0.5059920000000  0.4850870000000  0.4301530000000 1.0
C      1  0.5765170000000  0.4496970000000  0.5047290000000 1.0
C      1  0.4538540000000  0.4812300000000  0.4596770000000 1.0
C      1  0.5345820000000  0.4962180000000  0.4752610000000 1.0
END
