TITL C-951340-9809-324 -6.35588408934905e-07 125000 -265.475717585786 0 0 44 (C1) n - 1
REM
REM in /home/bkarasulu/work/CARBON/AIRSS/Generating-Clusters/EDIP-Nigel-Params/with-SteepDescent/Only-C1/SD-CG/HFTN-CG
REM
REM
REM
REM
REM
REM ./C.cell (11c1c37f851c82e70ff6c80c92926a4b)
REM
REM compiler GCC version 9.2.1 20190827 (Red Hat 9.2.1-1)
REM options -cpp -mtune=generic -march=x86-64 -g -O0 -fpre-include=/usr/include/finclude/math-vector-fortran.h
REM seed 205449546 -870459621 424286680 -179911792 218555786 -1342649029 1278421832 -1955852149 -1678054250 571516450 -119239726 -89761728 -1628087628 1566564777 686772354 1399866009 421026462 693536679 1556426471 213330969 474364774 -1732622415 1560099647 -2020819197 -1693632998 -1635123969 1619084411 -1905798082 332998574 -1357618731 713368805 1577942737 520880272
REM
CELL 1.54180   50.00000   50.00000   50.00000   90.00000   90.00000   90.00000
LATT -1
SFAC C  
C      1  0.4763500000000  0.5338090000000  0.5010780000000 1.0
C      1  0.5425530000000  0.5310400000000  0.4404620000000 1.0
C      1  0.4726120000000  0.4636340000000  0.4647000000000 1.0
C      1  0.5264620000000  0.5418020000000  0.5003820000000 1.0
C      1  0.4623950000000  0.4360040000000  0.5079450000000 1.0
C      1  0.5513370000000  0.4998680000000  0.5063090000000 1.0
C      1  0.5229900000000  0.4613930000000  0.5070480000000 1.0
C      1  0.5103990000000  0.5205860000000  0.5631590000000 1.0
C      1  0.4506110000000  0.4828400000000  0.4593030000000 1.0
C      1  0.5555880000000  0.5064110000000  0.5564490000000 1.0
C      1  0.4969950000000  0.5333400000000  0.4586550000000 1.0
C      1  0.5151220000000  0.5302280000000  0.4359750000000 1.0
C      1  0.5475070000000  0.4748400000000  0.4623150000000 1.0
C      1  0.5227530000000  0.4601480000000  0.4557850000000 1.0
C      1  0.4404890000000  0.4867700000000  0.5105620000000 1.0
C      1  0.4887340000000  0.4695340000000  0.5335930000000 1.0
C      1  0.5534500000000  0.5255070000000  0.4653630000000 1.0
C      1  0.4406980000000  0.4995210000000  0.4832020000000 1.0
C      1  0.5187820000000  0.4768900000000  0.5652310000000 1.0
C      1  0.5061640000000  0.5106860000000  0.4182290000000 1.0
C      1  0.4682970000000  0.5278400000000  0.4541090000000 1.0
C      1  0.5006220000000  0.5437270000000  0.4861370000000 1.0
C      1  0.5295330000000  0.5172930000000  0.5187890000000 1.0
C      1  0.5472790000000  0.4995850000000  0.4771490000000 1.0
C      1  0.4468970000000  0.5300980000000  0.5371840000000 1.0
C      1  0.4626160000000  0.5022510000000  0.4388180000000 1.0
C      1  0.4675300000000  0.5482310000000  0.5260720000000 1.0
C      1  0.4968280000000  0.4738510000000  0.4522690000000 1.0
C      1  0.5455100000000  0.4743310000000  0.5201630000000 1.0
C      1  0.5490150000000  0.5462040000000  0.4837730000000 1.0
C      1  0.4803820000000  0.5064510000000  0.5104370000000 1.0
C      1  0.4582820000000  0.5016320000000  0.5294540000000 1.0
C      1  0.5055620000000  0.4936290000000  0.5183160000000 1.0
C      1  0.5001280000000  0.4577390000000  0.5564900000000 1.0
C      1  0.5437770000000  0.4810480000000  0.5497850000000 1.0
C      1  0.4608170000000  0.5236260000000  0.5616340000000 1.0
C      1  0.4863750000000  0.5357880000000  0.5562320000000 1.0
C      1  0.4628840000000  0.4592670000000  0.5232910000000 1.0
C      1  0.4891540000000  0.4909680000000  0.4294600000000 1.0
C      1  0.5351750000000  0.5243320000000  0.5475560000000 1.0
C      1  0.5267930000000  0.4482410000000  0.4820920000000 1.0
C      1  0.5105420000000  0.4987350000000  0.5813630000000 1.0
C      1  0.4695790000000  0.4430200000000  0.4830770000000 1.0
C      1  0.4544340000000  0.5272630000000  0.4806080000000 1.0
END
