TITL C-950533-5798-255 -1.13605663929133e-06 125000 -625.064407290063 0 0 100 (C1) n - 1
REM
REM in /home/bkarasulu/work/CARBON/AIRSS/Generating-Clusters/EDIP-Nigel-Params/with-SteepDescent/Only-C1/SD-CG/HFTN-CG
REM
REM
REM
REM
REM
REM ./C.cell (11c1c37f851c82e70ff6c80c92926a4b)
REM
REM compiler GCC version 9.2.1 20190827 (Red Hat 9.2.1-1)
REM options -cpp -mtune=generic -march=x86-64 -g -O0 -fpre-include=/usr/include/finclude/math-vector-fortran.h
REM seed 2021130855 -348523410 -918661812 692717593 1562656261 1837135526 1640410891 1682591403 -1194540991 1274466953 666100675 1019727346 -871955344 -519856872 -286135762 1546784688 577097923 -780329412 770190864 1322772962 -309308808 -392860140 813322944 1117892642 -119054687 -1461804517 887228201 -1268037654 1320004279 -1942901383 1468948997 -1646057584 -2027092058
REM
CELL 1.54180   50.00000   50.00000   50.00000   90.00000   90.00000   90.00000
LATT -1
SFAC C  
C      1  0.5361540000000  0.5256220000000  0.5752180000000 1.0
C      1  0.5712480000000  0.5317480000000  0.5419530000000 1.0
C      1  0.4573110000000  0.5258800000000  0.4240520000000 1.0
C      1  0.4839230000000  0.5080790000000  0.5391560000000 1.0
C      1  0.4603450000000  0.4403510000000  0.4427590000000 1.0
C      1  0.5629420000000  0.5288380000000  0.4703280000000 1.0
C      1  0.5590770000000  0.5568510000000  0.5439940000000 1.0
C      1  0.5137310000000  0.5213210000000  0.5327770000000 1.0
C      1  0.4145650000000  0.4697600000000  0.5439180000000 1.0
C      1  0.5002220000000  0.4367690000000  0.5204800000000 1.0
C      1  0.4819890000000  0.5364790000000  0.4352870000000 1.0
C      1  0.4852760000000  0.5224300000000  0.4612800000000 1.0
C      1  0.5402170000000  0.4380040000000  0.4963320000000 1.0
C      1  0.5166470000000  0.4747460000000  0.5044210000000 1.0
C      1  0.4295520000000  0.4641800000000  0.5029950000000 1.0
C      1  0.4556240000000  0.5530740000000  0.5312810000000 1.0
C      1  0.5608810000000  0.4799440000000  0.5654500000000 1.0
C      1  0.4692440000000  0.4846240000000  0.5996620000000 1.0
C      1  0.5664020000000  0.4597860000000  0.5436290000000 1.0
C      1  0.5511320000000  0.5074540000000  0.4157030000000 1.0
C      1  0.4363840000000  0.4549970000000  0.4542510000000 1.0
C      1  0.4731090000000  0.4988840000000  0.5113850000000 1.0
C      1  0.4175890000000  0.5426890000000  0.4952950000000 1.0
C      1  0.4474520000000  0.4849840000000  0.4549430000000 1.0
C      1  0.4117810000000  0.5150090000000  0.4823550000000 1.0
C      1  0.4396680000000  0.4738390000000  0.5591190000000 1.0
C      1  0.4561030000000  0.5190560000000  0.4975210000000 1.0
C      1  0.5212500000000  0.4864540000000  0.4576300000000 1.0
C      1  0.5446110000000  0.5438370000000  0.4503600000000 1.0
C      1  0.5310790000000  0.4851990000000  0.4107520000000 1.0
C      1  0.4794690000000  0.4844300000000  0.4188700000000 1.0
C      1  0.5337770000000  0.4319020000000  0.4680480000000 1.0
C      1  0.5285940000000  0.4667650000000  0.4359180000000 1.0
C      1  0.4637520000000  0.4700830000000  0.5027670000000 1.0
C      1  0.4913410000000  0.5477260000000  0.5675120000000 1.0
C      1  0.5362110000000  0.4680420000000  0.5750090000000 1.0
C      1  0.4715280000000  0.5363010000000  0.5490470000000 1.0
C      1  0.4777420000000  0.5655950000000  0.4458890000000 1.0
C      1  0.4807350000000  0.4570450000000  0.4286050000000 1.0
C      1  0.5443970000000  0.5136840000000  0.4884690000000 1.0
C      1  0.5322210000000  0.4994280000000  0.5375000000000 1.0
C      1  0.5636740000000  0.4674190000000  0.4721210000000 1.0
C      1  0.5827250000000  0.5096440000000  0.4566930000000 1.0
C      1  0.5883470000000  0.4852760000000  0.4726620000000 1.0
C      1  0.4345100000000  0.4433490000000  0.4821460000000 1.0
C      1  0.5037000000000  0.4992550000000  0.4083050000000 1.0
C      1  0.5389010000000  0.4852150000000  0.4809040000000 1.0
C      1  0.4390540000000  0.5060280000000  0.4761380000000 1.0
C      1  0.4735850000000  0.4721620000000  0.4697040000000 1.0
C      1  0.5185500000000  0.4717460000000  0.5409230000000 1.0
C      1  0.4623280000000  0.4603170000000  0.5459160000000 1.0
C      1  0.4640490000000  0.5083270000000  0.5850710000000 1.0
C      1  0.4881060000000  0.4760810000000  0.5536890000000 1.0
C      1  0.5224900000000  0.5550850000000  0.4649100000000 1.0
C      1  0.4586200000000  0.4329430000000  0.5393210000000 1.0
C      1  0.5659010000000  0.4509770000000  0.4965140000000 1.0
C      1  0.5458800000000  0.4394230000000  0.5424200000000 1.0
C      1  0.4455550000000  0.5027150000000  0.5606500000000 1.0
C      1  0.4556070000000  0.4979500000000  0.4277840000000 1.0
C      1  0.5220380000000  0.5303750000000  0.5020370000000 1.0
C      1  0.5743240000000  0.5028290000000  0.4308400000000 1.0
C      1  0.5335520000000  0.5654720000000  0.5470780000000 1.0
C      1  0.4724320000000  0.5859690000000  0.4896410000000 1.0
C      1  0.5056480000000  0.4324040000000  0.4584480000000 1.0
C      1  0.5831740000000  0.5286340000000  0.5153050000000 1.0
C      1  0.4615980000000  0.5630620000000  0.4737860000000 1.0
C      1  0.4097240000000  0.4947680000000  0.5288680000000 1.0
C      1  0.4886270000000  0.5265720000000  0.5887290000000 1.0
C      1  0.4045050000000  0.4926020000000  0.5002240000000 1.0
C      1  0.5742050000000  0.5464630000000  0.4926010000000 1.0
C      1  0.4322900000000  0.5598750000000  0.4775630000000 1.0
C      1  0.5188840000000  0.5419400000000  0.5558770000000 1.0
C      1  0.4601910000000  0.4280740000000  0.4892410000000 1.0
C      1  0.5003210000000  0.5879130000000  0.4844290000000 1.0
C      1  0.6048630000000  0.5109260000000  0.5121190000000 1.0
C      1  0.4377450000000  0.5339780000000  0.5171010000000 1.0
C      1  0.5544960000000  0.5661380000000  0.4986280000000 1.0
C      1  0.4765310000000  0.4282980000000  0.4646630000000 1.0
C      1  0.5353390000000  0.5304300000000  0.4254160000000 1.0
C      1  0.5511060000000  0.4501690000000  0.4497190000000 1.0
C      1  0.5750920000000  0.4689630000000  0.5171190000000 1.0
C      1  0.4954710000000  0.4538090000000  0.4952040000000 1.0
C      1  0.4185200000000  0.4485520000000  0.5255470000000 1.0
C      1  0.4944880000000  0.4949150000000  0.4679180000000 1.0
C      1  0.4898140000000  0.4724410000000  0.5843430000000 1.0
C      1  0.4737450000000  0.5373320000000  0.4832130000000 1.0
C      1  0.4991420000000  0.4992050000000  0.4969840000000 1.0
C      1  0.5069320000000  0.4464160000000  0.4330660000000 1.0
C      1  0.5039970000000  0.5761990000000  0.4574160000000 1.0
C      1  0.4732830000000  0.4233150000000  0.5174070000000 1.0
C      1  0.5290160000000  0.4289190000000  0.5216350000000 1.0
C      1  0.5262580000000  0.5608210000000  0.4938610000000 1.0
C      1  0.5535590000000  0.5089340000000  0.5560570000000 1.0
C      1  0.5932740000000  0.4875450000000  0.5022300000000 1.0
C      1  0.5062440000000  0.5278090000000  0.4175790000000 1.0
C      1  0.4507880000000  0.5803310000000  0.5349070000000 1.0
C      1  0.5165380000000  0.4816990000000  0.5913440000000 1.0
C      1  0.4282160000000  0.5147810000000  0.5385220000000 1.0
C      1  0.4614050000000  0.5933110000000  0.5138980000000 1.0
C      1  0.5157670000000  0.5120130000000  0.5916510000000 1.0
END
