TITL C-950533-5798-392 -3.08387135601279e-06 125000 -872.578266567386 0 0 140 (C1) n - 1
REM
REM in /home/bkarasulu/work/CARBON/AIRSS/Generating-Clusters/EDIP-Nigel-Params/with-SteepDescent/Only-C1/SD-CG/HFTN-CG
REM
REM
REM
REM
REM
REM ./C.cell (11c1c37f851c82e70ff6c80c92926a4b)
REM
REM compiler GCC version 9.2.1 20190827 (Red Hat 9.2.1-1)
REM options -cpp -mtune=generic -march=x86-64 -g -O0 -fpre-include=/usr/include/finclude/math-vector-fortran.h
REM seed 579619613 624637822 881954724 1137391525 508492095 -801710226 1840833278 2118170803 707746744 -395845703 1288811718 377971675 -69087353 -986212731 -16010156 1606059813 -1117100465 112759641 -1290218736 -1869808850 -1836835903 -1198638959 -676452183 85804069 1215781016 -1029984033 -1734208417 -102431784 -1485719673 -1640512248 769442100 420707296 1355697053
REM
CELL 1.54180   50.00000   50.00000   50.00000   90.00000   90.00000   90.00000
LATT -1
SFAC C  
C      1  0.5341550000000  0.5851640000000  0.4977850000000 1.0
C      1  0.3963480000000  0.4893750000000  0.5037640000000 1.0
C      1  0.4220790000000  0.5033510000000  0.5057210000000 1.0
C      1  0.4704330000000  0.4775670000000  0.5247830000000 1.0
C      1  0.4732120000000  0.5557590000000  0.5043670000000 1.0
C      1  0.4420040000000  0.5438920000000  0.5823580000000 1.0
C      1  0.4397700000000  0.5480080000000  0.5536760000000 1.0
C      1  0.5034010000000  0.4013320000000  0.4611700000000 1.0
C      1  0.5948540000000  0.4946910000000  0.5423710000000 1.0
C      1  0.4751580000000  0.5029670000000  0.5064590000000 1.0
C      1  0.4663620000000  0.5194800000000  0.4387130000000 1.0
C      1  0.4758840000000  0.5445070000000  0.4228880000000 1.0
C      1  0.5018640000000  0.5539740000000  0.4625700000000 1.0
C      1  0.5158260000000  0.4452300000000  0.5544080000000 1.0
C      1  0.4296340000000  0.5591990000000  0.4428910000000 1.0
C      1  0.4295670000000  0.5709770000000  0.4997350000000 1.0
C      1  0.5496880000000  0.5382680000000  0.5785540000000 1.0
C      1  0.5714530000000  0.5626280000000  0.4805530000000 1.0
C      1  0.5246210000000  0.5771890000000  0.4693150000000 1.0
C      1  0.5577880000000  0.5336390000000  0.4497020000000 1.0
C      1  0.5375680000000  0.4494790000000  0.4226790000000 1.0
C      1  0.5120270000000  0.4214620000000  0.5070080000000 1.0
C      1  0.4527440000000  0.4330360000000  0.5353990000000 1.0
C      1  0.4857700000000  0.4878400000000  0.6040230000000 1.0
C      1  0.5428460000000  0.5328750000000  0.4971970000000 1.0
C      1  0.4593390000000  0.4998810000000  0.6014880000000 1.0
C      1  0.5334280000000  0.4699410000000  0.5953670000000 1.0
C      1  0.4750840000000  0.6025230000000  0.5107760000000 1.0
C      1  0.5498620000000  0.5010400000000  0.5328270000000 1.0
C      1  0.4518860000000  0.5228570000000  0.5406050000000 1.0
C      1  0.3959740000000  0.5367550000000  0.4936180000000 1.0
C      1  0.4926350000000  0.5974110000000  0.4620510000000 1.0
C      1  0.5175690000000  0.4653210000000  0.5306180000000 1.0
C      1  0.5142140000000  0.5312930000000  0.5022060000000 1.0
C      1  0.4875390000000  0.4964270000000  0.4442250000000 1.0
C      1  0.4289690000000  0.4554420000000  0.4967230000000 1.0
C      1  0.4654170000000  0.4089110000000  0.5245390000000 1.0
C      1  0.4516110000000  0.4534480000000  0.4380570000000 1.0
C      1  0.4925300000000  0.5004020000000  0.4056370000000 1.0
C      1  0.4787460000000  0.4715030000000  0.4676890000000 1.0
C      1  0.5861390000000  0.5446050000000  0.5408230000000 1.0
C      1  0.5070130000000  0.4778940000000  0.4787160000000 1.0
C      1  0.5718910000000  0.4235910000000  0.4651230000000 1.0
C      1  0.5210900000000  0.5399440000000  0.4151020000000 1.0
C      1  0.4852000000000  0.4366970000000  0.5058080000000 1.0
C      1  0.4868710000000  0.4552290000000  0.4088200000000 1.0
C      1  0.5048830000000  0.5283660000000  0.4747590000000 1.0
C      1  0.4262030000000  0.5040170000000  0.5358860000000 1.0
C      1  0.5190340000000  0.4954610000000  0.5364480000000 1.0
C      1  0.4725390000000  0.4430670000000  0.4783440000000 1.0
C      1  0.5408090000000  0.4584870000000  0.5139790000000 1.0
C      1  0.4432390000000  0.4358830000000  0.4796760000000 1.0
C      1  0.5556180000000  0.4688020000000  0.4618190000000 1.0
C      1  0.5345290000000  0.4377360000000  0.4937020000000 1.0
C      1  0.4606910000000  0.5292280000000  0.5129640000000 1.0
C      1  0.5939320000000  0.5173440000000  0.4997670000000 1.0
C      1  0.5546130000000  0.5108430000000  0.5811860000000 1.0
C      1  0.5997360000000  0.5208880000000  0.5284200000000 1.0
C      1  0.5624400000000  0.4630200000000  0.5622150000000 1.0
C      1  0.5917170000000  0.5400130000000  0.4803270000000 1.0
C      1  0.5019320000000  0.5521310000000  0.4332540000000 1.0
C      1  0.5368080000000  0.4964360000000  0.4238670000000 1.0
C      1  0.4405770000000  0.4820710000000  0.5904180000000 1.0
C      1  0.5310520000000  0.5549360000000  0.5661310000000 1.0
C      1  0.5947180000000  0.4995040000000  0.4592530000000 1.0
C      1  0.4936720000000  0.4633500000000  0.5126380000000 1.0
C      1  0.6061720000000  0.4941110000000  0.4854310000000 1.0
C      1  0.4669350000000  0.5833200000000  0.4585960000000 1.0
C      1  0.4140560000000  0.5254450000000  0.4465010000000 1.0
C      1  0.4032060000000  0.5191330000000  0.5467910000000 1.0
C      1  0.5162330000000  0.4598130000000  0.4031040000000 1.0
C      1  0.4319050000000  0.4394760000000  0.4530940000000 1.0
C      1  0.4488420000000  0.5051330000000  0.4191840000000 1.0
C      1  0.5007980000000  0.5550260000000  0.5188540000000 1.0
C      1  0.4096550000000  0.5534390000000  0.5125650000000 1.0
C      1  0.5857670000000  0.4706650000000  0.5218800000000 1.0
C      1  0.5878620000000  0.5273000000000  0.4535900000000 1.0
C      1  0.4954950000000  0.6050940000000  0.4893370000000 1.0
C      1  0.5630750000000  0.4923240000000  0.4792610000000 1.0
C      1  0.5468350000000  0.5161970000000  0.4723520000000 1.0
C      1  0.4560970000000  0.5691210000000  0.4334000000000 1.0
C      1  0.5182070000000  0.5801630000000  0.5225350000000 1.0
C      1  0.5438900000000  0.5244000000000  0.4245670000000 1.0
C      1  0.4782420000000  0.4425990000000  0.4342800000000 1.0
C      1  0.5526010000000  0.4738180000000  0.4324560000000 1.0
C      1  0.5622020000000  0.5775060000000  0.5036940000000 1.0
C      1  0.4376880000000  0.4830620000000  0.4571960000000 1.0
C      1  0.5988800000000  0.4661690000000  0.4938510000000 1.0
C      1  0.5282270000000  0.4558550000000  0.4702500000000 1.0
C      1  0.4933110000000  0.5350210000000  0.5938010000000 1.0
C      1  0.4440950000000  0.4596340000000  0.5231690000000 1.0
C      1  0.4839930000000  0.4542750000000  0.5681380000000 1.0
C      1  0.5565150000000  0.4218700000000  0.5332510000000 1.0
C      1  0.5305710000000  0.4016510000000  0.4504600000000 1.0
C      1  0.4589770000000  0.5695370000000  0.5454720000000 1.0
C      1  0.4119220000000  0.5458300000000  0.5413900000000 1.0
C      1  0.4359620000000  0.4630820000000  0.5697960000000 1.0
C      1  0.3929010000000  0.4898630000000  0.4758440000000 1.0
C      1  0.4862010000000  0.5530910000000  0.5488620000000 1.0
C      1  0.4568620000000  0.5777920000000  0.5159670000000 1.0
C      1  0.4455660000000  0.5025060000000  0.4820390000000 1.0
C      1  0.4720940000000  0.5576930000000  0.4735210000000 1.0
C      1  0.5379720000000  0.4528030000000  0.5740570000000 1.0
C      1  0.5575310000000  0.5280330000000  0.5217360000000 1.0
C      1  0.5138650000000  0.5040500000000  0.4609010000000 1.0
C      1  0.5529780000000  0.4190620000000  0.4417920000000 1.0
C      1  0.5517970000000  0.5639860000000  0.4576580000000 1.0
C      1  0.5028340000000  0.5559380000000  0.5737120000000 1.0
C      1  0.5203800000000  0.4390130000000  0.4463180000000 1.0
C      1  0.5644090000000  0.5651550000000  0.5310250000000 1.0
C      1  0.4260680000000  0.5008250000000  0.4357200000000 1.0
C      1  0.5685760000000  0.4070200000000  0.5121530000000 1.0
C      1  0.4278140000000  0.4741770000000  0.5435530000000 1.0
C      1  0.4746460000000  0.3942210000000  0.5022920000000 1.0
C      1  0.5327280000000  0.4978050000000  0.5955980000000 1.0
C      1  0.5737170000000  0.4464480000000  0.5408100000000 1.0
C      1  0.4976370000000  0.5017830000000  0.5591420000000 1.0
C      1  0.4525790000000  0.5293810000000  0.4653280000000 1.0
C      1  0.4792750000000  0.5244970000000  0.5528640000000 1.0
C      1  0.5664540000000  0.4934280000000  0.5579430000000 1.0
C      1  0.4788870000000  0.4799870000000  0.5538800000000 1.0
C      1  0.3990300000000  0.5190720000000  0.4709590000000 1.0
C      1  0.5044850000000  0.5061420000000  0.5893510000000 1.0
C      1  0.4846630000000  0.4167380000000  0.4452940000000 1.0
C      1  0.5594840000000  0.4814480000000  0.5108100000000 1.0
C      1  0.4566110000000  0.4406520000000  0.5639400000000 1.0
C      1  0.5562310000000  0.4173470000000  0.4891740000000 1.0
C      1  0.5801540000000  0.4521520000000  0.4680970000000 1.0
C      1  0.5007900000000  0.3974130000000  0.4914150000000 1.0
C      1  0.5054170000000  0.5061040000000  0.5126000000000 1.0
C      1  0.4992950000000  0.6027490000000  0.5277170000000 1.0
C      1  0.5249360000000  0.4207050000000  0.5368980000000 1.0
C      1  0.5386250000000  0.5723260000000  0.5444520000000 1.0
C      1  0.4630250000000  0.5284640000000  0.5938930000000 1.0
C      1  0.5194620000000  0.4890350000000  0.4020540000000 1.0
C      1  0.4277580000000  0.5584980000000  0.4722430000000 1.0
C      1  0.4710800000000  0.4800270000000  0.4018150000000 1.0
C      1  0.4868530000000  0.4608620000000  0.5961520000000 1.0
C      1  0.4146870000000  0.4678520000000  0.4699570000000 1.0
C      1  0.4886230000000  0.5292010000000  0.3982580000000 1.0
END
