TITL C-950526-5686-67 -1.39237502167442e-06 125000 -946.773487372872 0 0 152 (C1) n - 1
REM
REM in /home/bkarasulu/work/CARBON/AIRSS/Generating-Clusters/EDIP-Nigel-Params/with-SteepDescent/Only-C1/SD-CG/HFTN-CG
REM
REM
REM
REM
REM
REM ./C.cell (11c1c37f851c82e70ff6c80c92926a4b)
REM
REM compiler GCC version 9.2.1 20190827 (Red Hat 9.2.1-1)
REM options -cpp -mtune=generic -march=x86-64 -g -O0 -fpre-include=/usr/include/finclude/math-vector-fortran.h
REM seed -104962375 -675265781 -535024564 1361099251 -1777962727 1710304654 1903589916 1410565439 -866771357 629834042 1301204760 -228171941 2059159568 2119339949 -429769116 2076738589 -45376059 279004520 -1602374775 -1415699901 -1178998559 -371586636 -1125557668 -2092155521 1184252613 2097497836 -501666754 1712362771 -763992872 -1661445726 -1300570367 1674453747 1797145136
REM
CELL 1.54180   50.00000   50.00000   50.00000   90.00000   90.00000   90.00000
LATT -1
SFAC C  
C      1  0.5300540000000  0.4280470000000  0.4556200000000 1.0
C      1  0.5410400000000  0.5377260000000  0.4341400000000 1.0
C      1  0.5429330000000  0.5334650000000  0.5695490000000 1.0
C      1  0.5524810000000  0.4259690000000  0.4753690000000 1.0
C      1  0.5310090000000  0.4867040000000  0.5860370000000 1.0
C      1  0.5132600000000  0.5768980000000  0.4539890000000 1.0
C      1  0.5345820000000  0.5126820000000  0.6006610000000 1.0
C      1  0.5535150000000  0.4749150000000  0.4784120000000 1.0
C      1  0.4572490000000  0.5048120000000  0.5479690000000 1.0
C      1  0.4889750000000  0.5372830000000  0.5713020000000 1.0
C      1  0.5348410000000  0.4708250000000  0.5406430000000 1.0
C      1  0.5400220000000  0.4375420000000  0.4290370000000 1.0
C      1  0.5879410000000  0.5533920000000  0.5619680000000 1.0
C      1  0.4154840000000  0.4617690000000  0.4803910000000 1.0
C      1  0.4593590000000  0.4200850000000  0.5697120000000 1.0
C      1  0.4263340000000  0.5503610000000  0.5462210000000 1.0
C      1  0.5855590000000  0.4805890000000  0.5583310000000 1.0
C      1  0.5747820000000  0.5753550000000  0.4802960000000 1.0
C      1  0.4989600000000  0.5365110000000  0.4594670000000 1.0
C      1  0.5460310000000  0.4309410000000  0.5545680000000 1.0
C      1  0.4811870000000  0.4865510000000  0.5540050000000 1.0
C      1  0.4998740000000  0.5638020000000  0.5806030000000 1.0
C      1  0.4823350000000  0.4875790000000  0.5854990000000 1.0
C      1  0.5824250000000  0.5056500000000  0.5706410000000 1.0
C      1  0.5780080000000  0.5040370000000  0.4328960000000 1.0
C      1  0.5166610000000  0.4998930000000  0.4791400000000 1.0
C      1  0.5676930000000  0.5292030000000  0.4434280000000 1.0
C      1  0.5692760000000  0.4999300000000  0.5167820000000 1.0
C      1  0.4879830000000  0.5328720000000  0.4872550000000 1.0
C      1  0.6102990000000  0.4807460000000  0.5214540000000 1.0
C      1  0.5648340000000  0.5848710000000  0.5322720000000 1.0
C      1  0.5098110000000  0.4502460000000  0.4647680000000 1.0
C      1  0.4103960000000  0.5256660000000  0.5477270000000 1.0
C      1  0.5709470000000  0.4978960000000  0.4855910000000 1.0
C      1  0.5281140000000  0.5664420000000  0.4977430000000 1.0
C      1  0.4684230000000  0.4777240000000  0.4566430000000 1.0
C      1  0.4256760000000  0.5889380000000  0.4784090000000 1.0
C      1  0.4995290000000  0.4259940000000  0.4012940000000 1.0
C      1  0.5395370000000  0.6078550000000  0.4894960000000 1.0
C      1  0.5976890000000  0.4592170000000  0.4776770000000 1.0
C      1  0.4493840000000  0.5482950000000  0.4475340000000 1.0
C      1  0.4624740000000  0.4062220000000  0.5440640000000 1.0
C      1  0.4715990000000  0.4417560000000  0.5856190000000 1.0
C      1  0.4505770000000  0.4186970000000  0.5198800000000 1.0
C      1  0.5168360000000  0.4711710000000  0.5150280000000 1.0
C      1  0.5340850000000  0.4935020000000  0.4100720000000 1.0
C      1  0.5121460000000  0.5621210000000  0.5331410000000 1.0
C      1  0.4924110000000  0.5569580000000  0.4149150000000 1.0
C      1  0.4673350000000  0.5727550000000  0.5477530000000 1.0
C      1  0.4316270000000  0.4498080000000  0.5520320000000 1.0
C      1  0.5587610000000  0.4277790000000  0.5263540000000 1.0
C      1  0.4339500000000  0.4509510000000  0.4609390000000 1.0
C      1  0.4529060000000  0.5909910000000  0.4723000000000 1.0
C      1  0.5996490000000  0.4565970000000  0.5073710000000 1.0
C      1  0.4813070000000  0.4800420000000  0.4815210000000 1.0
C      1  0.5848470000000  0.5439000000000  0.5168560000000 1.0
C      1  0.5252860000000  0.4726090000000  0.4837510000000 1.0
C      1  0.5657600000000  0.4753230000000  0.5354030000000 1.0
C      1  0.4772380000000  0.5054830000000  0.4983010000000 1.0
C      1  0.4624170000000  0.4683990000000  0.5188690000000 1.0
C      1  0.5611400000000  0.5754610000000  0.4557580000000 1.0
C      1  0.4076240000000  0.5214450000000  0.5183250000000 1.0
C      1  0.4496720000000  0.5538470000000  0.5633190000000 1.0
C      1  0.4563970000000  0.4115210000000  0.4919850000000 1.0
C      1  0.6001060000000  0.4951280000000  0.4476230000000 1.0
C      1  0.4292330000000  0.4957790000000  0.4360530000000 1.0
C      1  0.4608690000000  0.4593240000000  0.4174380000000 1.0
C      1  0.3943240000000  0.4968410000000  0.5065710000000 1.0
C      1  0.5021950000000  0.4455080000000  0.5852710000000 1.0
C      1  0.4917070000000  0.4377100000000  0.4882090000000 1.0
C      1  0.4357040000000  0.5135000000000  0.5106370000000 1.0
C      1  0.4065330000000  0.4889220000000  0.4803630000000 1.0
C      1  0.4911650000000  0.4679600000000  0.4395090000000 1.0
C      1  0.5944550000000  0.5151590000000  0.5231990000000 1.0
C      1  0.4829650000000  0.4009210000000  0.4884410000000 1.0
C      1  0.4077520000000  0.5036900000000  0.4555180000000 1.0
C      1  0.4149740000000  0.5696880000000  0.4958610000000 1.0
C      1  0.4624810000000  0.5345840000000  0.5270460000000 1.0
C      1  0.4526790000000  0.5206620000000  0.4005000000000 1.0
C      1  0.4790560000000  0.5125530000000  0.3976420000000 1.0
C      1  0.4194300000000  0.4760970000000  0.5450030000000 1.0
C      1  0.4690210000000  0.4516490000000  0.5431490000000 1.0
C      1  0.4623840000000  0.4324060000000  0.4064190000000 1.0
C      1  0.5065950000000  0.4730430000000  0.5957250000000 1.0
C      1  0.4351320000000  0.4835280000000  0.5854920000000 1.0
C      1  0.5164020000000  0.5897940000000  0.4819000000000 1.0
C      1  0.5172440000000  0.4463420000000  0.4116070000000 1.0
C      1  0.4931250000000  0.5943330000000  0.4966030000000 1.0
C      1  0.5261440000000  0.5399160000000  0.5938310000000 1.0
C      1  0.4541050000000  0.5029760000000  0.4520100000000 1.0
C      1  0.4723080000000  0.5265310000000  0.4390620000000 1.0
C      1  0.4850390000000  0.4830160000000  0.3989840000000 1.0
C      1  0.4915120000000  0.4037350000000  0.5377680000000 1.0
C      1  0.4657280000000  0.5497680000000  0.4961110000000 1.0
C      1  0.4978370000000  0.4986190000000  0.4338890000000 1.0
C      1  0.4999230000000  0.5317600000000  0.4050960000000 1.0
C      1  0.5164360000000  0.5123050000000  0.4523050000000 1.0
C      1  0.4961020000000  0.4344130000000  0.5378280000000 1.0
C      1  0.5443550000000  0.5173580000000  0.5212890000000 1.0
C      1  0.4960980000000  0.5775250000000  0.5544170000000 1.0
C      1  0.4235740000000  0.5422150000000  0.4327670000000 1.0
C      1  0.5137440000000  0.4739260000000  0.4017820000000 1.0
C      1  0.4524090000000  0.5305080000000  0.5842720000000 1.0
C      1  0.5323940000000  0.5423470000000  0.4788370000000 1.0
C      1  0.4308120000000  0.5651680000000  0.5209060000000 1.0
C      1  0.4048050000000  0.5331990000000  0.4551530000000 1.0
C      1  0.4658220000000  0.4546080000000  0.4909920000000 1.0
C      1  0.4971630000000  0.5325620000000  0.5404600000000 1.0
C      1  0.5649470000000  0.5293020000000  0.4735700000000 1.0
C      1  0.5168520000000  0.4413090000000  0.5582990000000 1.0
C      1  0.5380740000000  0.5666730000000  0.4423690000000 1.0
C      1  0.5287090000000  0.5190010000000  0.4967770000000 1.0
C      1  0.5268380000000  0.3947380000000  0.5063550000000 1.0
C      1  0.4797150000000  0.4126980000000  0.4153830000000 1.0
C      1  0.5560780000000  0.5427310000000  0.5222880000000 1.0
C      1  0.5573720000000  0.4845670000000  0.4257730000000 1.0
C      1  0.4365750000000  0.5086540000000  0.5699900000000 1.0
C      1  0.4305720000000  0.4375660000000  0.5261290000000 1.0
C      1  0.4940950000000  0.4921630000000  0.5231580000000 1.0
C      1  0.5728640000000  0.4524860000000  0.5186570000000 1.0
C      1  0.5619680000000  0.4567890000000  0.4355530000000 1.0
C      1  0.5273530000000  0.5224940000000  0.4109220000000 1.0
C      1  0.5432580000000  0.5633900000000  0.5385430000000 1.0
C      1  0.5449170000000  0.4159420000000  0.5028850000000 1.0
C      1  0.4346180000000  0.4643390000000  0.4331810000000 1.0
C      1  0.4046670000000  0.5464150000000  0.4819320000000 1.0
C      1  0.5272210000000  0.5180580000000  0.5469150000000 1.0
C      1  0.5729690000000  0.5317710000000  0.5722850000000 1.0
C      1  0.4415560000000  0.4888130000000  0.5280450000000 1.0
C      1  0.4537990000000  0.5830880000000  0.5232440000000 1.0
C      1  0.5897850000000  0.5673500000000  0.5371920000000 1.0
C      1  0.5062120000000  0.4440050000000  0.5128060000000 1.0
C      1  0.4129190000000  0.4521430000000  0.5078310000000 1.0
C      1  0.4607670000000  0.5761250000000  0.4471030000000 1.0
C      1  0.4991540000000  0.3916800000000  0.5110180000000 1.0
C      1  0.5248470000000  0.4915950000000  0.5577130000000 1.0
C      1  0.4453010000000  0.4260920000000  0.4695880000000 1.0
C      1  0.6121040000000  0.4772150000000  0.5491900000000 1.0
C      1  0.4435950000000  0.5123400000000  0.4798980000000 1.0
C      1  0.4292000000000  0.5182560000000  0.4152110000000 1.0
C      1  0.4891120000000  0.5732290000000  0.4376880000000 1.0
C      1  0.5538180000000  0.4686410000000  0.5869720000000 1.0
C      1  0.5559240000000  0.5850900000000  0.5014660000000 1.0
C      1  0.5610540000000  0.4465530000000  0.5727120000000 1.0
C      1  0.4592930000000  0.4698220000000  0.5917700000000 1.0
C      1  0.4795290000000  0.5169350000000  0.5926960000000 1.0
C      1  0.5844140000000  0.5487270000000  0.4869240000000 1.0
C      1  0.3986390000000  0.4724230000000  0.5240890000000 1.0
C      1  0.5680150000000  0.4523790000000  0.4664360000000 1.0
C      1  0.4427840000000  0.5419940000000  0.4766170000000 1.0
C      1  0.5981170000000  0.4886880000000  0.4746470000000 1.0
C      1  0.4680260000000  0.5815440000000  0.4965450000000 1.0
END
