TITL C-951346-9544-349 5.55907901297412e-07 125000 -208.639330819023 0 0 35 (C1) n - 1
REM
REM in /home/bkarasulu/work/CARBON/AIRSS/Generating-Clusters/EDIP-Nigel-Params/with-SteepDescent/Only-C1/SD-CG/HFTN-CG
REM
REM
REM
REM
REM
REM ./C.cell (11c1c37f851c82e70ff6c80c92926a4b)
REM
REM compiler GCC version 9.2.1 20190827 (Red Hat 9.2.1-1)
REM options -cpp -mtune=generic -march=x86-64 -g -O0 -fpre-include=/usr/include/finclude/math-vector-fortran.h
REM seed 1041392604 -1515498806 -1695820585 -1707537441 -1848151420 1380782895 -2060029377 367948107 2025726537 570414277 -436482332 -951693982 40841223 1843783255 2054068244 234916020 -2073946151 -1774917134 295013718 -248917959 1614492213 142216731 -484797088 -1786628532 -473079275 1596899072 1602865930 176595638 -853417626 -38859114 -622586819 220718237 1176824004
REM
CELL 1.54180   50.00000   50.00000   50.00000   90.00000   90.00000   90.00000
LATT -1
SFAC C  
C      1  0.5368730000000  0.4804670000000  0.4942090000000 1.0
C      1  0.4914940000000  0.4468180000000  0.5300110000000 1.0
C      1  0.4792920000000  0.4644350000000  0.5477940000000 1.0
C      1  0.5523440000000  0.5333680000000  0.4865600000000 1.0
C      1  0.4547580000000  0.4880470000000  0.4992390000000 1.0
C      1  0.4853910000000  0.5114810000000  0.5546660000000 1.0
C      1  0.5362250000000  0.4865450000000  0.4503420000000 1.0
C      1  0.5492780000000  0.4943990000000  0.5178850000000 1.0
C      1  0.5473190000000  0.5336560000000  0.4601260000000 1.0
C      1  0.5306060000000  0.4601980000000  0.5462740000000 1.0
C      1  0.5073360000000  0.5034780000000  0.5351280000000 1.0
C      1  0.4791100000000  0.5005950000000  0.4565850000000 1.0
C      1  0.4943430000000  0.5440730000000  0.4719740000000 1.0
C      1  0.5457730000000  0.5241080000000  0.5123310000000 1.0
C      1  0.5089230000000  0.4919140000000  0.4887800000000 1.0
C      1  0.4955100000000  0.5273820000000  0.4991200000000 1.0
C      1  0.5328580000000  0.4877350000000  0.5423880000000 1.0
C      1  0.4515970000000  0.4940830000000  0.5262680000000 1.0
C      1  0.5276590000000  0.5141200000000  0.4551490000000 1.0
C      1  0.4741260000000  0.5353850000000  0.5446550000000 1.0
C      1  0.4739790000000  0.5406770000000  0.5169460000000 1.0
C      1  0.4812520000000  0.4554100000000  0.4773520000000 1.0
C      1  0.5533120000000  0.4775270000000  0.4709470000000 1.0
C      1  0.5146580000000  0.4692460000000  0.4450040000000 1.0
C      1  0.4994300000000  0.5227430000000  0.4513900000000 1.0
C      1  0.4670490000000  0.5542790000000  0.4692570000000 1.0
C      1  0.4663090000000  0.4891300000000  0.5500990000000 1.0
C      1  0.4480430000000  0.5341580000000  0.4779980000000 1.0
C      1  0.4831760000000  0.4471340000000  0.5032340000000 1.0
C      1  0.5173750000000  0.4387340000000  0.5367010000000 1.0
C      1  0.5176690000000  0.5286360000000  0.5203950000000 1.0
C      1  0.4495730000000  0.5475590000000  0.5035010000000 1.0
C      1  0.4905270000000  0.4872450000000  0.5131520000000 1.0
C      1  0.4954520000000  0.4774560000000  0.4654650000000 1.0
C      1  0.4613810000000  0.5077770000000  0.4790750000000 1.0
END
