TITL C-951334-9093-88 -1.43318463657994e-06 125000 -700.218089373267 0 0 113 (C1) n - 1
REM
REM in /home/bkarasulu/work/CARBON/AIRSS/Generating-Clusters/EDIP-Nigel-Params/with-SteepDescent/Only-C1/SD-CG/HFTN-CG
REM
REM
REM
REM
REM
REM ./C.cell (11c1c37f851c82e70ff6c80c92926a4b)
REM
REM compiler GCC version 9.2.1 20190827 (Red Hat 9.2.1-1)
REM options -cpp -mtune=generic -march=x86-64 -g -O0 -fpre-include=/usr/include/finclude/math-vector-fortran.h
REM seed -1788509974 -1930128362 -1545698732 -1432445690 -443408114 700954458 -1607646431 1932485553 -1734101143 52737108 -557114623 -790779620 460327888 1544088390 -1958055264 302743018 979750497 31846323 359941707 319338696 1533548256 -914669817 -2081228235 1414237860 159671714 593729139 1142171813 -263103511 -1653047199 816807146 942326053 1778288031 1363863829
REM
CELL 1.54180   50.00000   50.00000   50.00000   90.00000   90.00000   90.00000
LATT -1
SFAC C  
C      1  0.4501590000000  0.5770440000000  0.5177250000000 1.0
C      1  0.4377090000000  0.4614890000000  0.4691930000000 1.0
C      1  0.4527140000000  0.5209020000000  0.5310830000000 1.0
C      1  0.4285130000000  0.5559520000000  0.4741190000000 1.0
C      1  0.4811070000000  0.4727790000000  0.4064100000000 1.0
C      1  0.5030670000000  0.4902990000000  0.4523940000000 1.0
C      1  0.4120670000000  0.5111710000000  0.5431470000000 1.0
C      1  0.5233190000000  0.5829510000000  0.4850520000000 1.0
C      1  0.4362560000000  0.5180460000000  0.5829100000000 1.0
C      1  0.5150560000000  0.4846240000000  0.5272740000000 1.0
C      1  0.5478050000000  0.5691480000000  0.4910940000000 1.0
C      1  0.4656370000000  0.4521870000000  0.5628950000000 1.0
C      1  0.5299110000000  0.4306960000000  0.4524470000000 1.0
C      1  0.5404700000000  0.4967170000000  0.5164470000000 1.0
C      1  0.4976900000000  0.4023160000000  0.5149370000000 1.0
C      1  0.4195990000000  0.5326630000000  0.4572140000000 1.0
C      1  0.4358740000000  0.5415410000000  0.5462680000000 1.0
C      1  0.5325300000000  0.4530550000000  0.4962470000000 1.0
C      1  0.5068290000000  0.5901840000000  0.5070890000000 1.0
C      1  0.4807070000000  0.4721050000000  0.4641460000000 1.0
C      1  0.5769460000000  0.4506060000000  0.5530780000000 1.0
C      1  0.4391770000000  0.5179970000000  0.5038830000000 1.0
C      1  0.4588130000000  0.5624340000000  0.4721570000000 1.0
C      1  0.4302050000000  0.5001360000000  0.5621800000000 1.0
C      1  0.5776680000000  0.4432060000000  0.5053240000000 1.0
C      1  0.4076720000000  0.5116950000000  0.4729890000000 1.0
C      1  0.4866030000000  0.5782770000000  0.4510590000000 1.0
C      1  0.4682270000000  0.5358060000000  0.4469680000000 1.0
C      1  0.5614870000000  0.5055370000000  0.5584640000000 1.0
C      1  0.5847810000000  0.5109070000000  0.4862750000000 1.0
C      1  0.4558370000000  0.4407380000000  0.4834640000000 1.0
C      1  0.5674890000000  0.5649960000000  0.4706290000000 1.0
C      1  0.4412980000000  0.5259560000000  0.4372430000000 1.0
C      1  0.5241000000000  0.4971670000000  0.4715650000000 1.0
C      1  0.5341480000000  0.4885220000000  0.4113230000000 1.0
C      1  0.5813560000000  0.5143270000000  0.5152430000000 1.0
C      1  0.4113010000000  0.4897820000000  0.5230860000000 1.0
C      1  0.5632940000000  0.5045990000000  0.4447180000000 1.0
C      1  0.5183460000000  0.4725220000000  0.4322750000000 1.0
C      1  0.5118830000000  0.5322650000000  0.4260340000000 1.0
C      1  0.4460470000000  0.4213980000000  0.5281510000000 1.0
C      1  0.5265950000000  0.5263270000000  0.4791950000000 1.0
C      1  0.4670130000000  0.4807650000000  0.5196580000000 1.0
C      1  0.4214380000000  0.5435280000000  0.5009080000000 1.0
C      1  0.4912830000000  0.5627600000000  0.5540810000000 1.0
C      1  0.4747940000000  0.4189680000000  0.5260870000000 1.0
C      1  0.5115250000000  0.5495710000000  0.5714270000000 1.0
C      1  0.4854180000000  0.5079450000000  0.4893350000000 1.0
C      1  0.5099760000000  0.4571190000000  0.5149390000000 1.0
C      1  0.5552790000000  0.5663560000000  0.5183950000000 1.0
C      1  0.4895050000000  0.5000280000000  0.5175630000000 1.0
C      1  0.5388930000000  0.5556660000000  0.5618120000000 1.0
C      1  0.5071090000000  0.5819850000000  0.5344410000000 1.0
C      1  0.4283440000000  0.5610060000000  0.5245600000000 1.0
C      1  0.5891330000000  0.4481280000000  0.4799520000000 1.0
C      1  0.4958100000000  0.4547450000000  0.4221490000000 1.0
C      1  0.4827150000000  0.4241780000000  0.4619620000000 1.0
C      1  0.4973550000000  0.5534630000000  0.4125340000000 1.0
C      1  0.5871140000000  0.4656490000000  0.4585280000000 1.0
C      1  0.5283520000000  0.5460660000000  0.4513720000000 1.0
C      1  0.5083780000000  0.5213780000000  0.5751230000000 1.0
C      1  0.4922610000000  0.5487080000000  0.5089750000000 1.0
C      1  0.5210130000000  0.4099710000000  0.5324960000000 1.0
C      1  0.4844180000000  0.4328200000000  0.5497130000000 1.0
C      1  0.4531820000000  0.4865950000000  0.4609890000000 1.0
C      1  0.4886010000000  0.4813540000000  0.5751010000000 1.0
C      1  0.5273190000000  0.5156080000000  0.4085350000000 1.0
C      1  0.5575160000000  0.5534820000000  0.4457990000000 1.0
C      1  0.4474300000000  0.4972350000000  0.4323930000000 1.0
C      1  0.5197120000000  0.4108040000000  0.4938400000000 1.0
C      1  0.5712820000000  0.4890340000000  0.4691420000000 1.0
C      1  0.4113860000000  0.4641790000000  0.4826170000000 1.0
C      1  0.5608130000000  0.5349980000000  0.5549770000000 1.0
C      1  0.4611790000000  0.5307840000000  0.5803180000000 1.0
C      1  0.5365570000000  0.5761640000000  0.5399030000000 1.0
C      1  0.4572010000000  0.5099900000000  0.4808570000000 1.0
C      1  0.4816010000000  0.5115600000000  0.5720910000000 1.0
C      1  0.4724460000000  0.4978820000000  0.4159250000000 1.0
C      1  0.4185870000000  0.4614150000000  0.5299790000000 1.0
C      1  0.5124670000000  0.4374560000000  0.5404210000000 1.0
C      1  0.5103290000000  0.4164320000000  0.4663580000000 1.0
C      1  0.5207870000000  0.5407620000000  0.5294160000000 1.0
C      1  0.5506290000000  0.4323830000000  0.5037220000000 1.0
C      1  0.5398650000000  0.5261610000000  0.5090370000000 1.0
C      1  0.4695170000000  0.5677190000000  0.4998130000000 1.0
C      1  0.5227700000000  0.5034230000000  0.5934630000000 1.0
C      1  0.5764060000000  0.5307900000000  0.4437850000000 1.0
C      1  0.4841180000000  0.5266970000000  0.5310560000000 1.0
C      1  0.4548720000000  0.4862280000000  0.5485860000000 1.0
C      1  0.5895140000000  0.5346130000000  0.4701450000000 1.0
C      1  0.4895170000000  0.5136700000000  0.4365830000000 1.0
C      1  0.5135240000000  0.5722260000000  0.4596810000000 1.0
C      1  0.5803280000000  0.4633980000000  0.5285490000000 1.0
C      1  0.5666070000000  0.4928580000000  0.5303650000000 1.0
C      1  0.5394580000000  0.4575810000000  0.4489130000000 1.0
C      1  0.4125040000000  0.4452200000000  0.5057240000000 1.0
C      1  0.5618980000000  0.4862470000000  0.4216330000000 1.0
C      1  0.5455980000000  0.4927500000000  0.5791450000000 1.0
C      1  0.4771590000000  0.5598480000000  0.4315030000000 1.0
C      1  0.5706950000000  0.5413320000000  0.5274410000000 1.0
C      1  0.4790400000000  0.4591990000000  0.5000560000000 1.0
C      1  0.5269210000000  0.4503610000000  0.5622130000000 1.0
C      1  0.5538890000000  0.4458600000000  0.5655680000000 1.0
C      1  0.5035800000000  0.4827990000000  0.6009040000000 1.0
C      1  0.4348980000000  0.4257550000000  0.5013510000000 1.0
C      1  0.5672230000000  0.4597270000000  0.4356950000000 1.0
C      1  0.4985820000000  0.5329710000000  0.4848010000000 1.0
C      1  0.5165900000000  0.4780870000000  0.5586020000000 1.0
C      1  0.4785980000000  0.4482370000000  0.4459480000000 1.0
C      1  0.5424650000000  0.4742090000000  0.4754560000000 1.0
C      1  0.4624060000000  0.5555020000000  0.5632940000000 1.0
C      1  0.4394360000000  0.4452090000000  0.5457540000000 1.0
C      1  0.4055800000000  0.4913360000000  0.4931470000000 1.0
END
