TITL C-951333-8791-469 -2.67751940337176e-06 125000 -774.857865218969 0 0 124 (C1) n - 1
REM
REM in /home/bkarasulu/work/CARBON/AIRSS/Generating-Clusters/EDIP-Nigel-Params/with-SteepDescent/Only-C1/SD-CG/HFTN-CG
REM
REM
REM
REM
REM
REM ./C.cell (11c1c37f851c82e70ff6c80c92926a4b)
REM
REM compiler GCC version 9.2.1 20190827 (Red Hat 9.2.1-1)
REM options -cpp -mtune=generic -march=x86-64 -g -O0 -fpre-include=/usr/include/finclude/math-vector-fortran.h
REM seed 2024716572 286498343 -1140790639 -432552522 1074533815 73560019 1834651078 -413672163 1233490878 -431540784 -1757761388 892125761 591684805 -736414069 529326909 -1263054022 -1791028569 2032104225 1733075314 -1074534676 -1094312753 -1067325272 -1677225529 -1562065187 -1780718188 515710036 -1008620832 -73722314 510376739 -363176130 775161023 624965969 210242302
REM
CELL 1.54180   50.00000   50.00000   50.00000   90.00000   90.00000   90.00000
LATT -1
SFAC C  
C      1  0.4807440000000  0.4443030000000  0.4958200000000 1.0
C      1  0.4497820000000  0.5690060000000  0.5219390000000 1.0
C      1  0.5257750000000  0.4177820000000  0.4248330000000 1.0
C      1  0.5851540000000  0.5258830000000  0.5179690000000 1.0
C      1  0.5012800000000  0.4363410000000  0.5538250000000 1.0
C      1  0.4024620000000  0.5149120000000  0.5236650000000 1.0
C      1  0.4528330000000  0.5085320000000  0.4487540000000 1.0
C      1  0.4703420000000  0.4947460000000  0.4260830000000 1.0
C      1  0.5339670000000  0.5238420000000  0.4519050000000 1.0
C      1  0.5699360000000  0.5694660000000  0.5324800000000 1.0
C      1  0.4991730000000  0.4588880000000  0.4655970000000 1.0
C      1  0.5211150000000  0.5000740000000  0.4094230000000 1.0
C      1  0.4798280000000  0.5716980000000  0.5134030000000 1.0
C      1  0.5968270000000  0.5160440000000  0.4583200000000 1.0
C      1  0.4785350000000  0.5142680000000  0.5456500000000 1.0
C      1  0.5557350000000  0.4375090000000  0.5480000000000 1.0
C      1  0.4792250000000  0.4805320000000  0.4706640000000 1.0
C      1  0.4930390000000  0.4069950000000  0.5162690000000 1.0
C      1  0.5712510000000  0.5388930000000  0.4935720000000 1.0
C      1  0.5295370000000  0.4661070000000  0.4801920000000 1.0
C      1  0.5524570000000  0.4554850000000  0.4621650000000 1.0
C      1  0.5155850000000  0.5939470000000  0.4882720000000 1.0
C      1  0.5898290000000  0.4681230000000  0.4952860000000 1.0
C      1  0.4494340000000  0.4248600000000  0.5617420000000 1.0
C      1  0.5516030000000  0.4245100000000  0.4671900000000 1.0
C      1  0.5811570000000  0.5610460000000  0.4510210000000 1.0
C      1  0.4650790000000  0.4608690000000  0.5821060000000 1.0
C      1  0.5290890000000  0.4467130000000  0.5044510000000 1.0
C      1  0.4633690000000  0.4678520000000  0.4910150000000 1.0
C      1  0.5217530000000  0.4686950000000  0.4192360000000 1.0
C      1  0.5620660000000  0.5676000000000  0.5033730000000 1.0
C      1  0.5124660000000  0.5514910000000  0.5792370000000 1.0
C      1  0.5742830000000  0.4978410000000  0.4586970000000 1.0
C      1  0.4874140000000  0.5963420000000  0.4983640000000 1.0
C      1  0.4965420000000  0.5012310000000  0.4782510000000 1.0
C      1  0.4907690000000  0.5604180000000  0.4106490000000 1.0
C      1  0.4843150000000  0.5444030000000  0.4337280000000 1.0
C      1  0.5451880000000  0.5713730000000  0.5492820000000 1.0
C      1  0.5038400000000  0.4785330000000  0.5306810000000 1.0
C      1  0.5438920000000  0.5138040000000  0.4237640000000 1.0
C      1  0.5628960000000  0.5765530000000  0.4384390000000 1.0
C      1  0.5274310000000  0.5522410000000  0.4557430000000 1.0
C      1  0.5378730000000  0.4188260000000  0.4941950000000 1.0
C      1  0.5112720000000  0.4135930000000  0.5392870000000 1.0
C      1  0.4455470000000  0.4294630000000  0.5336380000000 1.0
C      1  0.5068300000000  0.3960630000000  0.4933010000000 1.0
C      1  0.5681750000000  0.5028770000000  0.5595370000000 1.0
C      1  0.4570920000000  0.5166760000000  0.5027690000000 1.0
C      1  0.4395440000000  0.4494130000000  0.5754500000000 1.0
C      1  0.5826880000000  0.5441240000000  0.5416030000000 1.0
C      1  0.4876650000000  0.5865790000000  0.4210920000000 1.0
C      1  0.4446590000000  0.5053190000000  0.5904020000000 1.0
C      1  0.4140010000000  0.5237850000000  0.4781180000000 1.0
C      1  0.4904080000000  0.5648070000000  0.5645580000000 1.0
C      1  0.5016320000000  0.4503430000000  0.5182450000000 1.0
C      1  0.5134630000000  0.5931330000000  0.4371660000000 1.0
C      1  0.5781260000000  0.4702290000000  0.4704910000000 1.0
C      1  0.4399520000000  0.4336210000000  0.4476760000000 1.0
C      1  0.5069870000000  0.5127990000000  0.4545530000000 1.0
C      1  0.4637420000000  0.5532130000000  0.5690190000000 1.0
C      1  0.4626760000000  0.4228520000000  0.4616900000000 1.0
C      1  0.4248890000000  0.4682130000000  0.5577800000000 1.0
C      1  0.5318520000000  0.5735870000000  0.5052420000000 1.0
C      1  0.4683590000000  0.4661260000000  0.4247070000000 1.0
C      1  0.4534680000000  0.5214590000000  0.5328060000000 1.0
C      1  0.4859840000000  0.5175250000000  0.4995540000000 1.0
C      1  0.4961240000000  0.4543320000000  0.4340430000000 1.0
C      1  0.4821680000000  0.4373080000000  0.5752610000000 1.0
C      1  0.4281510000000  0.4977760000000  0.5654360000000 1.0
C      1  0.4483550000000  0.5557990000000  0.4763190000000 1.0
C      1  0.5646860000000  0.5320040000000  0.5632730000000 1.0
C      1  0.4456770000000  0.5487080000000  0.5445910000000 1.0
C      1  0.4638910000000  0.5857710000000  0.4375090000000 1.0
C      1  0.5625360000000  0.4920730000000  0.4316070000000 1.0
C      1  0.4183910000000  0.5467280000000  0.5548410000000 1.0
C      1  0.4066520000000  0.5359130000000  0.5037080000000 1.0
C      1  0.4672640000000  0.5313520000000  0.5896660000000 1.0
C      1  0.5244830000000  0.5823660000000  0.5325490000000 1.0
C      1  0.4938070000000  0.5469210000000  0.4941380000000 1.0
C      1  0.4129830000000  0.5192280000000  0.5506480000000 1.0
C      1  0.5542830000000  0.4048820000000  0.5132640000000 1.0
C      1  0.4984370000000  0.5555600000000  0.4627400000000 1.0
C      1  0.5824940000000  0.4481660000000  0.5380320000000 1.0
C      1  0.4641980000000  0.4157290000000  0.5150600000000 1.0
C      1  0.4985670000000  0.5856830000000  0.4636640000000 1.0
C      1  0.5479050000000  0.4662400000000  0.4338170000000 1.0
C      1  0.4282080000000  0.4855340000000  0.4604140000000 1.0
C      1  0.5084600000000  0.5072870000000  0.5827930000000 1.0
C      1  0.4285560000000  0.4369090000000  0.4736720000000 1.0
C      1  0.5381720000000  0.4943950000000  0.4913220000000 1.0
C      1  0.5440610000000  0.4869490000000  0.5660270000000 1.0
C      1  0.4993290000000  0.4984600000000  0.4306260000000 1.0
C      1  0.4613530000000  0.4831550000000  0.5998240000000 1.0
C      1  0.4037800000000  0.4994860000000  0.4679380000000 1.0
C      1  0.4995460000000  0.5311870000000  0.5964320000000 1.0
C      1  0.5073270000000  0.4046900000000  0.4657840000000 1.0
C      1  0.5252640000000  0.5271550000000  0.5281970000000 1.0
C      1  0.4554030000000  0.5385260000000  0.4360490000000 1.0
C      1  0.4846640000000  0.4100260000000  0.4488230000000 1.0
C      1  0.4433260000000  0.5264650000000  0.4771610000000 1.0
C      1  0.4320710000000  0.4560620000000  0.5318520000000 1.0
C      1  0.5432910000000  0.5016760000000  0.5201930000000 1.0
C      1  0.5360640000000  0.5434400000000  0.5569820000000 1.0
C      1  0.5871330000000  0.4730800000000  0.5223560000000 1.0
C      1  0.5421170000000  0.4127420000000  0.5377710000000 1.0
C      1  0.4425070000000  0.4595820000000  0.4359960000000 1.0
C      1  0.5732840000000  0.5004900000000  0.5293640000000 1.0
C      1  0.5885720000000  0.5408710000000  0.4688540000000 1.0
C      1  0.5212090000000  0.5459790000000  0.5043410000000 1.0
C      1  0.5528990000000  0.5135250000000  0.4741260000000 1.0
C      1  0.5302490000000  0.4915640000000  0.5901550000000 1.0
C      1  0.5353760000000  0.5719940000000  0.4361590000000 1.0
C      1  0.4982780000000  0.4251790000000  0.4273510000000 1.0
C      1  0.4982100000000  0.5083350000000  0.5259650000000 1.0
C      1  0.5466900000000  0.4573170000000  0.5262300000000 1.0
C      1  0.4972910000000  0.5730450000000  0.5378410000000 1.0
C      1  0.4319860000000  0.5638670000000  0.4993900000000 1.0
C      1  0.5321310000000  0.4090760000000  0.4510510000000 1.0
C      1  0.4189260000000  0.4669650000000  0.5088900000000 1.0
C      1  0.4818840000000  0.5000090000000  0.5715630000000 1.0
C      1  0.5325880000000  0.4802410000000  0.5382400000000 1.0
C      1  0.4344330000000  0.4642330000000  0.4836670000000 1.0
C      1  0.4027470000000  0.4888260000000  0.5139720000000 1.0
C      1  0.4476860000000  0.5647610000000  0.4485330000000 1.0
END
