TITL C-950527-2551-298 -1.35945102567507e-06 125000 -271.409868348612 0 0 45 (C1) n - 1
REM
REM in /home/bkarasulu/work/CARBON/AIRSS/Generating-Clusters/EDIP-Nigel-Params/with-SteepDescent/Only-C1/SD-CG/HFTN-CG
REM
REM
REM
REM
REM
REM ./C.cell (11c1c37f851c82e70ff6c80c92926a4b)
REM
REM compiler GCC version 9.2.1 20190827 (Red Hat 9.2.1-1)
REM options -cpp -mtune=generic -march=x86-64 -g -O0 -fpre-include=/usr/include/finclude/math-vector-fortran.h
REM seed -733001326 -1428854894 -539715742 314216064 -1479960402 2132373674 40665042 -1602762535 1361150912 2048223985 371671420 1170059184 2027137198 -446633065 1950514483 -826618172 -399440539 1514229601 -1806709800 -1249363841 -880409490 -78208193 -2076612598 -364208631 -1123066223 437412635 1693355708 1709367331 -1154375524 -1377197419 79920328 -238087623 -1155633605
REM
CELL 1.54180   50.00000   50.00000   50.00000   90.00000   90.00000   90.00000
LATT -1
SFAC C  
C      1  0.5562570000000  0.4799010000000  0.5396330000000 1.0
C      1  0.5088890000000  0.4695250000000  0.5217580000000 1.0
C      1  0.5029670000000  0.5112900000000  0.4372550000000 1.0
C      1  0.5762770000000  0.5449250000000  0.4824820000000 1.0
C      1  0.4776500000000  0.4823250000000  0.4580410000000 1.0
C      1  0.4532450000000  0.5495280000000  0.4809580000000 1.0
C      1  0.5172110000000  0.5575800000000  0.5437520000000 1.0
C      1  0.4579610000000  0.5014400000000  0.4925940000000 1.0
C      1  0.5263000000000  0.4726610000000  0.4539490000000 1.0
C      1  0.5672430000000  0.4682900000000  0.5170980000000 1.0
C      1  0.4769790000000  0.5406460000000  0.4662700000000 1.0
C      1  0.4487710000000  0.4728040000000  0.4892090000000 1.0
C      1  0.5330770000000  0.5349410000000  0.5440100000000 1.0
C      1  0.5718110000000  0.5163880000000  0.4820240000000 1.0
C      1  0.5269400000000  0.4981550000000  0.4401930000000 1.0
C      1  0.4727060000000  0.5398240000000  0.5384160000000 1.0
C      1  0.4397270000000  0.5129880000000  0.5128350000000 1.0
C      1  0.5560410000000  0.5355670000000  0.5280810000000 1.0
C      1  0.5559190000000  0.5347620000000  0.5000750000000 1.0
C      1  0.4423410000000  0.4662740000000  0.4613710000000 1.0
C      1  0.4948990000000  0.5374070000000  0.4895830000000 1.0
C      1  0.4912380000000  0.5624140000000  0.5345800000000 1.0
C      1  0.5283920000000  0.4845150000000  0.5397760000000 1.0
C      1  0.4826630000000  0.4662130000000  0.5368350000000 1.0
C      1  0.4868850000000  0.5138760000000  0.5335870000000 1.0
C      1  0.5158640000000  0.4415630000000  0.5103750000000 1.0
C      1  0.4371280000000  0.4645260000000  0.5248540000000 1.0
C      1  0.5020850000000  0.4705320000000  0.4731410000000 1.0
C      1  0.4783810000000  0.5186990000000  0.4474760000000 1.0
C      1  0.5053150000000  0.4877190000000  0.4974870000000 1.0
C      1  0.4622440000000  0.4492820000000  0.5236770000000 1.0
C      1  0.4417270000000  0.4919340000000  0.5353020000000 1.0
C      1  0.4881880000000  0.5643090000000  0.5047580000000 1.0
C      1  0.5594150000000  0.5013640000000  0.4607840000000 1.0
C      1  0.5434670000000  0.4407980000000  0.5032160000000 1.0
C      1  0.5521740000000  0.4740780000000  0.4675160000000 1.0
C      1  0.4498000000000  0.5411630000000  0.5186500000000 1.0
C      1  0.5489030000000  0.4673790000000  0.4954780000000 1.0
C      1  0.4700880000000  0.4415220000000  0.4965610000000 1.0
C      1  0.4863240000000  0.5101700000000  0.5026590000000 1.0
C      1  0.4973610000000  0.4425820000000  0.4864460000000 1.0
C      1  0.4703870000000  0.4916720000000  0.5449550000000 1.0
C      1  0.4619970000000  0.4641090000000  0.4421750000000 1.0
C      1  0.5163970000000  0.5111970000000  0.5425280000000 1.0
C      1  0.4603670000000  0.5711600000000  0.4975950000000 1.0
END
