TITL C-950534-5965-628 4.29304937644994e-07 125000 -112.275900979645 0 0 20 (C1) n - 1
REM
REM in /home/bkarasulu/work/CARBON/AIRSS/Generating-Clusters/EDIP-Nigel-Params/with-SteepDescent/Only-C1/SD-CG/HFTN-CG
REM
REM
REM
REM
REM
REM ./C.cell (11c1c37f851c82e70ff6c80c92926a4b)
REM
REM compiler GCC version 9.2.1 20190827 (Red Hat 9.2.1-1)
REM options -cpp -mtune=generic -march=x86-64 -g -O0 -fpre-include=/usr/include/finclude/math-vector-fortran.h
REM seed -1187266971 -553201375 297827524 666260438 442000513 1511458078 -1821840782 1587916423 1814704255 1550747271 -1660155333 1894777793 -1473606956 -1010914167 2109401710 1640579627 -760797445 1049965782 -1531341578 -42004702 -2090954516 1861063408 -295725853 900493818 1004196486 -821581264 -640297471 843355997 421163524 -107358638 -945746935 922433624 1881733254
REM
CELL 1.54180   50.00000   50.00000   50.00000   90.00000   90.00000   90.00000
LATT -1
SFAC C  
C      1  0.4507960000000  0.4972850000000  0.5046950000000 1.0
C      1  0.5019050000000  0.5275880000000  0.5238260000000 1.0
C      1  0.4949790000000  0.4740970000000  0.5088160000000 1.0
C      1  0.5001200000000  0.4704150000000  0.5367030000000 1.0
C      1  0.4683160000000  0.4756430000000  0.4963390000000 1.0
C      1  0.4943850000000  0.4888710000000  0.5566160000000 1.0
C      1  0.4850310000000  0.5028390000000  0.4605140000000 1.0
C      1  0.5360170000000  0.4711350000000  0.4795420000000 1.0
C      1  0.4886230000000  0.5258920000000  0.4761670000000 1.0
C      1  0.4560260000000  0.5090450000000  0.5304050000000 1.0
C      1  0.5328580000000  0.5444420000000  0.4884800000000 1.0
C      1  0.4656750000000  0.5307590000000  0.4930300000000 1.0
C      1  0.5492070000000  0.4571980000000  0.4613770000000 1.0
C      1  0.5120480000000  0.5253920000000  0.4951160000000 1.0
C      1  0.5102160000000  0.5074080000000  0.5432390000000 1.0
C      1  0.4722700000000  0.5312430000000  0.5216760000000 1.0
C      1  0.5095270000000  0.4633380000000  0.4861190000000 1.0
C      1  0.5501040000000  0.5234790000000  0.4843680000000 1.0
C      1  0.4781190000000  0.4769160000000  0.4681880000000 1.0
C      1  0.5437780000000  0.4970140000000  0.4847860000000 1.0
END
