TITL C-950525-1983-405 -1.09504345433536e-06 125000 -944.62621255846 0 0 149 (C1) n - 1
REM
REM in /home/bkarasulu/work/CARBON/AIRSS/Generating-Clusters/EDIP-Nigel-Params/with-SteepDescent/Only-C1/SD-CG/HFTN-CG
REM
REM
REM
REM
REM
REM ./C.cell (11c1c37f851c82e70ff6c80c92926a4b)
REM
REM compiler GCC version 9.2.1 20190827 (Red Hat 9.2.1-1)
REM options -cpp -mtune=generic -march=x86-64 -g -O0 -fpre-include=/usr/include/finclude/math-vector-fortran.h
REM seed 2041532919 1621379767 -401541168 688850320 -1762156382 -832267277 -1792856840 -2007409624 -410103775 -329442887 -22047193 -958481473 -1250036099 1351832455 807126795 -948019819 -926845245 698993900 -789512981 -497020116 189663892 -1486343839 -1815695144 -1904157235 1685230618 -1664798237 -1070054743 158136684 925951038 1144217621 -1549931524 2038487301 533388056
REM
CELL 1.54180   50.00000   50.00000   50.00000   90.00000   90.00000   90.00000
LATT -1
SFAC C  
C      1  0.5522110000000  0.4178030000000  0.4731130000000 1.0
C      1  0.4125940000000  0.4617950000000  0.4897520000000 1.0
C      1  0.4241790000000  0.5622590000000  0.4600910000000 1.0
C      1  0.5105440000000  0.5037000000000  0.4143300000000 1.0
C      1  0.5761640000000  0.4432570000000  0.5319220000000 1.0
C      1  0.5830220000000  0.4243850000000  0.5121610000000 1.0
C      1  0.4864810000000  0.4381610000000  0.5627350000000 1.0
C      1  0.4153970000000  0.4949580000000  0.4399770000000 1.0
C      1  0.4625220000000  0.5581050000000  0.4317360000000 1.0
C      1  0.4758350000000  0.5643880000000  0.4859190000000 1.0
C      1  0.4947160000000  0.4102710000000  0.5563070000000 1.0
C      1  0.5103960000000  0.5003470000000  0.4656160000000 1.0
C      1  0.4210330000000  0.4698360000000  0.5554370000000 1.0
C      1  0.4607910000000  0.5875520000000  0.4753670000000 1.0
C      1  0.4505440000000  0.4681230000000  0.5644290000000 1.0
C      1  0.4877580000000  0.4598180000000  0.4469280000000 1.0
C      1  0.5204490000000  0.5093920000000  0.5480360000000 1.0
C      1  0.4472330000000  0.5788330000000  0.4482050000000 1.0
C      1  0.4963330000000  0.6058220000000  0.5039160000000 1.0
C      1  0.5421230000000  0.5337330000000  0.4732820000000 1.0
C      1  0.5293040000000  0.5173100000000  0.3968630000000 1.0
C      1  0.5129820000000  0.4498240000000  0.4622830000000 1.0
C      1  0.4887300000000  0.4469300000000  0.5088090000000 1.0
C      1  0.5550670000000  0.4949710000000  0.4445070000000 1.0
C      1  0.5814090000000  0.5031260000000  0.4575330000000 1.0
C      1  0.4472080000000  0.5530470000000  0.5561810000000 1.0
C      1  0.4794090000000  0.5938560000000  0.5265880000000 1.0
C      1  0.4333040000000  0.5135640000000  0.4255220000000 1.0
C      1  0.4110480000000  0.5204790000000  0.5554310000000 1.0
C      1  0.4513840000000  0.4260730000000  0.4341420000000 1.0
C      1  0.5477590000000  0.4787080000000  0.5877550000000 1.0
C      1  0.5176780000000  0.4256410000000  0.4426240000000 1.0
C      1  0.5438230000000  0.4096530000000  0.5466480000000 1.0
C      1  0.4582470000000  0.5027110000000  0.4115040000000 1.0
C      1  0.4560020000000  0.4119200000000  0.5260560000000 1.0
C      1  0.4572950000000  0.4395260000000  0.5673420000000 1.0
C      1  0.4909940000000  0.5785450000000  0.5532000000000 1.0
C      1  0.4459930000000  0.5594700000000  0.5266100000000 1.0
C      1  0.5456930000000  0.4749340000000  0.4922780000000 1.0
C      1  0.5606480000000  0.5577610000000  0.4679780000000 1.0
C      1  0.4933560000000  0.4582680000000  0.5379510000000 1.0
C      1  0.5567120000000  0.4357590000000  0.5522500000000 1.0
C      1  0.5843960000000  0.4708050000000  0.5293250000000 1.0
C      1  0.5051590000000  0.4859370000000  0.6151190000000 1.0
C      1  0.5570720000000  0.5209020000000  0.4980830000000 1.0
C      1  0.5311380000000  0.5460400000000  0.4038490000000 1.0
C      1  0.5315870000000  0.5267390000000  0.5963900000000 1.0
C      1  0.4499380000000  0.5890590000000  0.5226090000000 1.0
C      1  0.5913660000000  0.4794050000000  0.4724820000000 1.0
C      1  0.5869190000000  0.5582650000000  0.5103270000000 1.0
C      1  0.5822790000000  0.4845630000000  0.5009310000000 1.0
C      1  0.5710840000000  0.4937090000000  0.5466910000000 1.0
C      1  0.5220280000000  0.5928340000000  0.4999640000000 1.0
C      1  0.5495990000000  0.5691700000000  0.4417630000000 1.0
C      1  0.4456050000000  0.4249440000000  0.5017450000000 1.0
C      1  0.4831520000000  0.5468780000000  0.5892570000000 1.0
C      1  0.5157430000000  0.5409560000000  0.4853750000000 1.0
C      1  0.5325890000000  0.4769320000000  0.4646530000000 1.0
C      1  0.4800280000000  0.5066220000000  0.5723590000000 1.0
C      1  0.5671730000000  0.4981820000000  0.5766670000000 1.0
C      1  0.5232100000000  0.4965170000000  0.5947930000000 1.0
C      1  0.5408530000000  0.4989360000000  0.5066200000000 1.0
C      1  0.5402120000000  0.4018830000000  0.5178720000000 1.0
C      1  0.5402130000000  0.4928370000000  0.5350550000000 1.0
C      1  0.4843810000000  0.5175970000000  0.4203020000000 1.0
C      1  0.4735250000000  0.5066300000000  0.5432290000000 1.0
C      1  0.4433630000000  0.5181140000000  0.5935000000000 1.0
C      1  0.4343050000000  0.4266350000000  0.4587100000000 1.0
C      1  0.4798750000000  0.4177980000000  0.4408310000000 1.0
C      1  0.5211520000000  0.5781450000000  0.4378770000000 1.0
C      1  0.4866110000000  0.4070780000000  0.5283800000000 1.0
C      1  0.4193930000000  0.4447180000000  0.5384720000000 1.0
C      1  0.5120280000000  0.4089390000000  0.5067680000000 1.0
C      1  0.4983100000000  0.5488190000000  0.5287810000000 1.0
C      1  0.5542800000000  0.5039070000000  0.3965510000000 1.0
C      1  0.5619570000000  0.4103650000000  0.4997300000000 1.0
C      1  0.5133970000000  0.4389150000000  0.4961150000000 1.0
C      1  0.4703460000000  0.5639490000000  0.5694170000000 1.0
C      1  0.4605270000000  0.5272530000000  0.4669000000000 1.0
C      1  0.4616780000000  0.4834890000000  0.4733100000000 1.0
C      1  0.5980260000000  0.5361940000000  0.4928280000000 1.0
C      1  0.4959580000000  0.4486870000000  0.5877780000000 1.0
C      1  0.4333080000000  0.5312800000000  0.5696370000000 1.0
C      1  0.4852210000000  0.4701380000000  0.6026530000000 1.0
C      1  0.5060810000000  0.3981590000000  0.4796720000000 1.0
C      1  0.4024130000000  0.5028750000000  0.5157430000000 1.0
C      1  0.4767380000000  0.5336910000000  0.3961340000000 1.0
C      1  0.4852360000000  0.6063650000000  0.4752170000000 1.0
C      1  0.4812560000000  0.5600940000000  0.4081810000000 1.0
C      1  0.4885960000000  0.4592700000000  0.4083110000000 1.0
C      1  0.4314320000000  0.4501060000000  0.5111330000000 1.0
C      1  0.4717070000000  0.5487930000000  0.5114390000000 1.0
C      1  0.4798510000000  0.5392080000000  0.4481970000000 1.0
C      1  0.4850900000000  0.4895690000000  0.4548750000000 1.0
C      1  0.5281800000000  0.4053000000000  0.4615520000000 1.0
C      1  0.4682700000000  0.5270490000000  0.6033370000000 1.0
C      1  0.5640460000000  0.4362100000000  0.4536230000000 1.0
C      1  0.4973160000000  0.5568790000000  0.4673380000000 1.0
C      1  0.5574780000000  0.5267550000000  0.5815760000000 1.0
C      1  0.4677210000000  0.4771330000000  0.5398920000000 1.0
C      1  0.5091450000000  0.5594840000000  0.4184670000000 1.0
C      1  0.5511300000000  0.5890740000000  0.5374480000000 1.0
C      1  0.4399640000000  0.4243750000000  0.5489450000000 1.0
C      1  0.5434600000000  0.4389560000000  0.4321290000000 1.0
C      1  0.5613180000000  0.5477010000000  0.5606510000000 1.0
C      1  0.4631450000000  0.4717490000000  0.4116800000000 1.0
C      1  0.5514960000000  0.5439560000000  0.5182740000000 1.0
C      1  0.4525510000000  0.4718200000000  0.5150700000000 1.0
C      1  0.4229830000000  0.5497270000000  0.5096680000000 1.0
C      1  0.4476000000000  0.4943280000000  0.4971330000000 1.0
C      1  0.4022020000000  0.5323660000000  0.5204080000000 1.0
C      1  0.4168060000000  0.4495860000000  0.4628720000000 1.0
C      1  0.5376340000000  0.5201500000000  0.4451420000000 1.0
C      1  0.5075830000000  0.4968300000000  0.5702810000000 1.0
C      1  0.5446590000000  0.5710080000000  0.5574600000000 1.0
C      1  0.4256730000000  0.4677690000000  0.4427400000000 1.0
C      1  0.5936960000000  0.5118100000000  0.5091880000000 1.0
C      1  0.5121100000000  0.5480610000000  0.5863060000000 1.0
C      1  0.4706580000000  0.5211940000000  0.4952380000000 1.0
C      1  0.4320250000000  0.5315980000000  0.4572630000000 1.0
C      1  0.5499720000000  0.5432230000000  0.4263820000000 1.0
C      1  0.5223050000000  0.5559210000000  0.5107390000000 1.0
C      1  0.5172840000000  0.5670330000000  0.5646420000000 1.0
C      1  0.5211250000000  0.4039780000000  0.5615730000000 1.0
C      1  0.5668740000000  0.5743750000000  0.4939270000000 1.0
C      1  0.4441350000000  0.4544140000000  0.4248180000000 1.0
C      1  0.4190800000000  0.5708560000000  0.4888780000000 1.0
C      1  0.5890790000000  0.5163500000000  0.5374860000000 1.0
C      1  0.4984410000000  0.5179420000000  0.5310320000000 1.0
C      1  0.4105760000000  0.5092180000000  0.4661190000000 1.0
C      1  0.5832440000000  0.4553740000000  0.4604970000000 1.0
C      1  0.5435980000000  0.4547890000000  0.5705280000000 1.0
C      1  0.4628560000000  0.4854860000000  0.5877540000000 1.0
C      1  0.5591800000000  0.4843030000000  0.4164550000000 1.0
C      1  0.4606420000000  0.4539400000000  0.4659180000000 1.0
C      1  0.5121730000000  0.4744740000000  0.4129590000000 1.0
C      1  0.5832510000000  0.5447030000000  0.5410720000000 1.0
C      1  0.4147900000000  0.4954940000000  0.5414610000000 1.0
C      1  0.4814490000000  0.4113910000000  0.4696080000000 1.0
C      1  0.5343960000000  0.4540370000000  0.5096730000000 1.0
C      1  0.4389840000000  0.5933520000000  0.4951440000000 1.0
C      1  0.5066060000000  0.5933850000000  0.4583790000000 1.0
C      1  0.4696790000000  0.4337510000000  0.4874830000000 1.0
C      1  0.4166400000000  0.4926830000000  0.4910500000000 1.0
C      1  0.5271020000000  0.4644050000000  0.5371320000000 1.0
C      1  0.5859310000000  0.5322250000000  0.4666700000000 1.0
C      1  0.5485800000000  0.5912790000000  0.5099540000000 1.0
C      1  0.5021390000000  0.5144820000000  0.4923390000000 1.0
C      1  0.5392810000000  0.4627600000000  0.4147360000000 1.0
END
