TITL C-950522-5749-401 -4.18554029471127e-06 125000 -964.890677967611 0 0 159 (C1) n - 1
REM
REM in /home/bkarasulu/work/CARBON/AIRSS/Generating-Clusters/EDIP-Nigel-Params/with-SteepDescent/Only-C1/SD-CG/HFTN-CG
REM
REM
REM
REM
REM
REM ./C.cell (11c1c37f851c82e70ff6c80c92926a4b)
REM
REM compiler GCC version 9.2.1 20190827 (Red Hat 9.2.1-1)
REM options -cpp -mtune=generic -march=x86-64 -g -O0 -fpre-include=/usr/include/finclude/math-vector-fortran.h
REM seed 411751023 -1867669726 -2140733098 1140260098 -47685288 1384348903 1413924576 155590990 -1481106386 -1544393654 1136378032 1287739114 -1746307154 824859458 -474853107 -1904218441 7027165 347674222 -351127181 2014580306 210787282 -1694830516 1591344201 718489966 1592273429 -508494897 260575803 1383085278 839046706 -2005228695 890776260 257862946 1260364218
REM
CELL 1.54180   50.00000   50.00000   50.00000   90.00000   90.00000   90.00000
LATT -1
SFAC C  
C      1  0.5362410000000  0.5592070000000  0.5110040000000 1.0
C      1  0.4727700000000  0.5741140000000  0.5712900000000 1.0
C      1  0.5222860000000  0.5840090000000  0.5739440000000 1.0
C      1  0.5641300000000  0.5623940000000  0.4379490000000 1.0
C      1  0.4971730000000  0.5874290000000  0.5593620000000 1.0
C      1  0.5361640000000  0.5689720000000  0.4321850000000 1.0
C      1  0.4253490000000  0.5716590000000  0.4452480000000 1.0
C      1  0.4480440000000  0.5882550000000  0.4523320000000 1.0
C      1  0.4768250000000  0.5350760000000  0.4335850000000 1.0
C      1  0.5892530000000  0.4664660000000  0.4397170000000 1.0
C      1  0.4735690000000  0.5824470000000  0.4390840000000 1.0
C      1  0.4505800000000  0.5960720000000  0.4795610000000 1.0
C      1  0.4804520000000  0.4731940000000  0.4602650000000 1.0
C      1  0.5060320000000  0.5376020000000  0.4241000000000 1.0
C      1  0.4460630000000  0.4170990000000  0.4927620000000 1.0
C      1  0.4649970000000  0.5338480000000  0.5578910000000 1.0
C      1  0.4728060000000  0.5704230000000  0.5216650000000 1.0
C      1  0.5116250000000  0.4936140000000  0.6038670000000 1.0
C      1  0.5386440000000  0.4743070000000  0.4354300000000 1.0
C      1  0.3998730000000  0.5281140000000  0.4988680000000 1.0
C      1  0.5016580000000  0.5077620000000  0.4560740000000 1.0
C      1  0.6100690000000  0.5102070000000  0.4486840000000 1.0
C      1  0.4016400000000  0.5074640000000  0.4788420000000 1.0
C      1  0.5261210000000  0.4207740000000  0.4746660000000 1.0
C      1  0.5463950000000  0.4276930000000  0.4541240000000 1.0
C      1  0.5251140000000  0.4476490000000  0.5752760000000 1.0
C      1  0.5237320000000  0.5971010000000  0.4921510000000 1.0
C      1  0.5106540000000  0.5473600000000  0.5445980000000 1.0
C      1  0.5317730000000  0.4551100000000  0.4146360000000 1.0
C      1  0.5320260000000  0.4496600000000  0.5069990000000 1.0
C      1  0.4377830000000  0.4728870000000  0.4286850000000 1.0
C      1  0.4651030000000  0.5377940000000  0.5257830000000 1.0
C      1  0.5049260000000  0.4209980000000  0.4292270000000 1.0
C      1  0.5744860000000  0.4275730000000  0.4952950000000 1.0
C      1  0.4603110000000  0.5154850000000  0.4891770000000 1.0
C      1  0.5081510000000  0.4586850000000  0.3995160000000 1.0
C      1  0.6031740000000  0.4585940000000  0.4646500000000 1.0
C      1  0.4762890000000  0.5688070000000  0.4137850000000 1.0
C      1  0.4188630000000  0.5416960000000  0.5487870000000 1.0
C      1  0.4094230000000  0.5529840000000  0.4890910000000 1.0
C      1  0.5235760000000  0.5260110000000  0.5268510000000 1.0
C      1  0.4221990000000  0.5485680000000  0.4288890000000 1.0
C      1  0.5670340000000  0.5463530000000  0.5658890000000 1.0
C      1  0.4230780000000  0.4287090000000  0.4397230000000 1.0
C      1  0.5987200000000  0.4930850000000  0.4278250000000 1.0
C      1  0.4964840000000  0.5925710000000  0.4541540000000 1.0
C      1  0.4839110000000  0.4458510000000  0.5000820000000 1.0
C      1  0.4073020000000  0.4576630000000  0.4717700000000 1.0
C      1  0.5889600000000  0.4902300000000  0.5299600000000 1.0
C      1  0.6108520000000  0.4921250000000  0.5009460000000 1.0
C      1  0.4819820000000  0.4500450000000  0.4392890000000 1.0
C      1  0.6142120000000  0.5166020000000  0.4865120000000 1.0
C      1  0.5600740000000  0.4727140000000  0.5643700000000 1.0
C      1  0.4732760000000  0.4171060000000  0.5039060000000 1.0
C      1  0.5342100000000  0.5974570000000  0.5192370000000 1.0
C      1  0.4738690000000  0.4628610000000  0.5933830000000 1.0
C      1  0.4148490000000  0.4515410000000  0.5573280000000 1.0
C      1  0.5098130000000  0.3928780000000  0.4968340000000 1.0
C      1  0.4177030000000  0.4562920000000  0.4437360000000 1.0
C      1  0.3994240000000  0.4807120000000  0.4886310000000 1.0
C      1  0.5864110000000  0.5375130000000  0.5453760000000 1.0
C      1  0.4473210000000  0.4235770000000  0.4249290000000 1.0
C      1  0.5294970000000  0.4007550000000  0.5162280000000 1.0
C      1  0.4487250000000  0.4777920000000  0.5846130000000 1.0
C      1  0.4314500000000  0.4362950000000  0.5382030000000 1.0
C      1  0.5318730000000  0.5275020000000  0.4697690000000 1.0
C      1  0.4861320000000  0.5151010000000  0.5062860000000 1.0
C      1  0.5409210000000  0.5543640000000  0.4812490000000 1.0
C      1  0.5110260000000  0.4485410000000  0.4854210000000 1.0
C      1  0.5893460000000  0.5313610000000  0.4815740000000 1.0
C      1  0.5482400000000  0.4246970000000  0.5113020000000 1.0
C      1  0.5534460000000  0.5216580000000  0.5774660000000 1.0
C      1  0.5556250000000  0.5740170000000  0.5581230000000 1.0
C      1  0.4432940000000  0.5076260000000  0.5126640000000 1.0
C      1  0.5880070000000  0.5282950000000  0.4528230000000 1.0
C      1  0.4831800000000  0.4712700000000  0.4011240000000 1.0
C      1  0.4570900000000  0.4644480000000  0.5353480000000 1.0
C      1  0.4874770000000  0.4955960000000  0.4158190000000 1.0
C      1  0.4960490000000  0.5847680000000  0.4829050000000 1.0
C      1  0.4736350000000  0.5061070000000  0.5551000000000 1.0
C      1  0.5737140000000  0.5411470000000  0.5172810000000 1.0
C      1  0.5543360000000  0.5787740000000  0.5284960000000 1.0
C      1  0.5116940000000  0.5415000000000  0.5927750000000 1.0
C      1  0.5762900000000  0.4499460000000  0.5404540000000 1.0
C      1  0.5245800000000  0.5544410000000  0.5696590000000 1.0
C      1  0.4142020000000  0.4679250000000  0.5137950000000 1.0
C      1  0.5853990000000  0.4500970000000  0.5111320000000 1.0
C      1  0.4196270000000  0.5210790000000  0.4372320000000 1.0
C      1  0.4623210000000  0.4608730000000  0.4834470000000 1.0
C      1  0.4220190000000  0.4978590000000  0.5498010000000 1.0
C      1  0.4881370000000  0.4615400000000  0.5265600000000 1.0
C      1  0.5126570000000  0.3945050000000  0.4682270000000 1.0
C      1  0.4223060000000  0.5767650000000  0.5163230000000 1.0
C      1  0.5622600000000  0.5707540000000  0.4686960000000 1.0
C      1  0.4270590000000  0.5703700000000  0.5441260000000 1.0
C      1  0.4951600000000  0.4005010000000  0.4467910000000 1.0
C      1  0.5600880000000  0.4902200000000  0.5220300000000 1.0
C      1  0.4818150000000  0.5429370000000  0.5913670000000 1.0
C      1  0.5393900000000  0.4792990000000  0.5415230000000 1.0
C      1  0.4052110000000  0.4743300000000  0.5418400000000 1.0
C      1  0.5014050000000  0.4709870000000  0.5828180000000 1.0
C      1  0.5475640000000  0.4596860000000  0.5866560000000 1.0
C      1  0.5910130000000  0.4718040000000  0.4894350000000 1.0
C      1  0.4371900000000  0.5579280000000  0.4980020000000 1.0
C      1  0.5718840000000  0.4995220000000  0.5727290000000 1.0
C      1  0.5236560000000  0.5785870000000  0.4085080000000 1.0
C      1  0.4886260000000  0.5033930000000  0.6179090000000 1.0
C      1  0.5280870000000  0.5175470000000  0.5935500000000 1.0
C      1  0.4709990000000  0.4375690000000  0.6053370000000 1.0
C      1  0.4689820000000  0.5209450000000  0.6079570000000 1.0
C      1  0.4041810000000  0.4367650000000  0.4929970000000 1.0
C      1  0.4731750000000  0.4060280000000  0.5545320000000 1.0
C      1  0.5212560000000  0.4033100000000  0.5433110000000 1.0
C      1  0.5215380000000  0.4561190000000  0.5324040000000 1.0
C      1  0.5254110000000  0.5944320000000  0.4443260000000 1.0
C      1  0.5693380000000  0.5343840000000  0.4130540000000 1.0
C      1  0.4461200000000  0.4364870000000  0.4701820000000 1.0
C      1  0.4659930000000  0.4256730000000  0.4486650000000 1.0
C      1  0.5819310000000  0.5077820000000  0.4080190000000 1.0
C      1  0.5166540000000  0.4995210000000  0.5408680000000 1.0
C      1  0.4648980000000  0.5124780000000  0.4193040000000 1.0
C      1  0.5023390000000  0.5595540000000  0.4049900000000 1.0
C      1  0.5125300000000  0.5109790000000  0.4140120000000 1.0
C      1  0.4255890000000  0.4600990000000  0.5823180000000 1.0
C      1  0.5526140000000  0.5179650000000  0.5124400000000 1.0
C      1  0.3970310000000  0.5133590000000  0.4519610000000 1.0
C      1  0.4756250000000  0.4016320000000  0.5271570000000 1.0
C      1  0.4774670000000  0.4336710000000  0.5598780000000 1.0
C      1  0.5352260000000  0.4235010000000  0.5582120000000 1.0
C      1  0.5842330000000  0.5600940000000  0.4891440000000 1.0
C      1  0.4717900000000  0.4196130000000  0.5840010000000 1.0
C      1  0.4531990000000  0.5455410000000  0.4513710000000 1.0
C      1  0.4516730000000  0.4862990000000  0.5555560000000 1.0
C      1  0.4435770000000  0.4761690000000  0.5105770000000 1.0
C      1  0.5508150000000  0.5102370000000  0.4839170000000 1.0
C      1  0.5924410000000  0.5087580000000  0.5529490000000 1.0
C      1  0.5003680000000  0.4992200000000  0.5659600000000 1.0
C      1  0.5006310000000  0.5724660000000  0.5333510000000 1.0
C      1  0.5436810000000  0.5968930000000  0.4696150000000 1.0
C      1  0.5331890000000  0.5028430000000  0.4339870000000 1.0
C      1  0.4970880000000  0.4906840000000  0.5207040000000 1.0
C      1  0.4889830000000  0.5547450000000  0.4831040000000 1.0
C      1  0.4242940000000  0.4254160000000  0.5110800000000 1.0
C      1  0.4169280000000  0.5220550000000  0.5234340000000 1.0
C      1  0.4599660000000  0.4555890000000  0.4162820000000 1.0
C      1  0.5745350000000  0.4334030000000  0.4655160000000 1.0
C      1  0.4371610000000  0.5271530000000  0.5698400000000 1.0
C      1  0.5326050000000  0.4288430000000  0.4275100000000 1.0
C      1  0.4447580000000  0.5083330000000  0.5955380000000 1.0
C      1  0.5046380000000  0.5297960000000  0.4873240000000 1.0
C      1  0.5087080000000  0.4753690000000  0.4684320000000 1.0
C      1  0.5619980000000  0.4257630000000  0.5466600000000 1.0
C      1  0.5617900000000  0.5195870000000  0.4388020000000 1.0
C      1  0.5615920000000  0.4679230000000  0.4532180000000 1.0
C      1  0.4716210000000  0.5930420000000  0.4982050000000 1.0
C      1  0.5640720000000  0.4841050000000  0.4783280000000 1.0
C      1  0.4400460000000  0.5018540000000  0.4292530000000 1.0
C      1  0.4563130000000  0.5758360000000  0.5467200000000 1.0
C      1  0.4598820000000  0.5445610000000  0.4807450000000 1.0
END
