TITL C-951338-5626-209 -1.75174329630338e-06 125000 -246.433811962654 0 0 42 (C1) n - 1
REM
REM in /home/bkarasulu/work/CARBON/AIRSS/Generating-Clusters/EDIP-Nigel-Params/with-SteepDescent/Only-C1/SD-CG/HFTN-CG
REM
REM
REM
REM
REM
REM ./C.cell (11c1c37f851c82e70ff6c80c92926a4b)
REM
REM compiler GCC version 9.2.1 20190827 (Red Hat 9.2.1-1)
REM options -cpp -mtune=generic -march=x86-64 -g -O0 -fpre-include=/usr/include/finclude/math-vector-fortran.h
REM seed 57329198 12450107 832276441 390534803 1380701887 -1499152046 -230475395 -1193212357 -174235137 628229637 580320868 1783033865 -1801045816 -7140724 -272268169 925700675 -1858849056 549721312 688578153 -147960521 84167570 -1250904771 -1204614918 -1760507114 549532274 -59703670 -1871943642 1164767085 -259549001 1048682020 1303072713 1391966264 -509484245
REM
CELL 1.54180   50.00000   50.00000   50.00000   90.00000   90.00000   90.00000
LATT -1
SFAC C  
C      1  0.4689250000000  0.5491760000000  0.4690210000000 1.0
C      1  0.5450260000000  0.4737080000000  0.4525110000000 1.0
C      1  0.5106170000000  0.5052280000000  0.5067980000000 1.0
C      1  0.5616800000000  0.4771060000000  0.4978360000000 1.0
C      1  0.5006750000000  0.5329400000000  0.5147390000000 1.0
C      1  0.4837080000000  0.4956600000000  0.5581130000000 1.0
C      1  0.5323130000000  0.4676870000000  0.5406990000000 1.0
C      1  0.4765460000000  0.4579280000000  0.4587190000000 1.0
C      1  0.4585570000000  0.5037240000000  0.4878960000000 1.0
C      1  0.4957680000000  0.5360650000000  0.5440800000000 1.0
C      1  0.5178810000000  0.4586240000000  0.4866050000000 1.0
C      1  0.4358680000000  0.4894080000000  0.5258240000000 1.0
C      1  0.4955530000000  0.5323310000000  0.4458710000000 1.0
C      1  0.4829510000000  0.4747120000000  0.5377650000000 1.0
C      1  0.5174810000000  0.5142270000000  0.4410940000000 1.0
C      1  0.4603110000000  0.5444620000000  0.5190390000000 1.0
C      1  0.5349490000000  0.4993080000000  0.4654740000000 1.0
C      1  0.5436560000000  0.5488760000000  0.5250710000000 1.0
C      1  0.5217420000000  0.5528470000000  0.5064400000000 1.0
C      1  0.5244450000000  0.4666180000000  0.4343280000000 1.0
C      1  0.5066750000000  0.4574070000000  0.5354380000000 1.0
C      1  0.5084940000000  0.4432960000000  0.5106180000000 1.0
C      1  0.4873140000000  0.4840700000000  0.4600350000000 1.0
C      1  0.5477260000000  0.4582850000000  0.4785180000000 1.0
C      1  0.4511560000000  0.5155140000000  0.5156610000000 1.0
C      1  0.5091520000000  0.4999090000000  0.5702410000000 1.0
C      1  0.5392800000000  0.5124800000000  0.5123580000000 1.0
C      1  0.4989550000000  0.5705340000000  0.5009280000000 1.0
C      1  0.4407460000000  0.4787490000000  0.4940580000000 1.0
C      1  0.4801130000000  0.4481020000000  0.4849950000000 1.0
C      1  0.5428450000000  0.5296100000000  0.5463690000000 1.0
C      1  0.5551920000000  0.5048090000000  0.4882220000000 1.0
C      1  0.5046560000000  0.4874190000000  0.4352370000000 1.0
C      1  0.4537870000000  0.5228600000000  0.4664800000000 1.0
C      1  0.4556760000000  0.4652840000000  0.5291310000000 1.0
C      1  0.5534100000000  0.4735160000000  0.5246760000000 1.0
C      1  0.5175530000000  0.5247610000000  0.5597270000000 1.0
C      1  0.4556250000000  0.4526320000000  0.5006630000000 1.0
C      1  0.4710750000000  0.5212660000000  0.5487440000000 1.0
C      1  0.4698450000000  0.5203010000000  0.4422430000000 1.0
C      1  0.4718920000000  0.5604440000000  0.4964850000000 1.0
C      1  0.5101810000000  0.4881170000000  0.4812480000000 1.0
END
