TITL C-950521-2237-418 3.38475630467291e-06 125000 -748.916672305443 0 0 120 (C1) n - 1
REM
REM in /home/bkarasulu/work/CARBON/AIRSS/Generating-Clusters/EDIP-Nigel-Params/with-SteepDescent/Only-C1/SD-CG/HFTN-CG
REM
REM
REM
REM
REM
REM ./C.cell (11c1c37f851c82e70ff6c80c92926a4b)
REM
REM compiler GCC version 9.2.1 20190827 (Red Hat 9.2.1-1)
REM options -cpp -mtune=generic -march=x86-64 -g -O0 -fpre-include=/usr/include/finclude/math-vector-fortran.h
REM seed -1554792023 1336099315 1296560113 1010060012 1888132556 -1642762059 -675348734 2095539060 1874104675 2127409320 1584268728 -433343212 -1991059400 -1176173044 941375385 -320893206 -964289392 -1468704147 -1256702564 2023566970 381437935 -1649385102 1229694018 400611064 -389740630 -1662233760 -425975378 269498580 1995917161 -1417791333 1378246613 533991 -2133294223
REM
CELL 1.54180   50.00000   50.00000   50.00000   90.00000   90.00000   90.00000
LATT -1
SFAC C  
C      1  0.4338040000000  0.4792890000000  0.4604840000000 1.0
C      1  0.3990240000000  0.5327840000000  0.4638790000000 1.0
C      1  0.5167420000000  0.5401710000000  0.4818020000000 1.0
C      1  0.5175290000000  0.5311110000000  0.5291630000000 1.0
C      1  0.4232920000000  0.5315070000000  0.4954530000000 1.0
C      1  0.4851000000000  0.4227440000000  0.5376780000000 1.0
C      1  0.5779580000000  0.5182820000000  0.5487830000000 1.0
C      1  0.4691220000000  0.4416450000000  0.5545570000000 1.0
C      1  0.3948010000000  0.5082400000000  0.4764510000000 1.0
C      1  0.5385950000000  0.4682130000000  0.4888080000000 1.0
C      1  0.4320420000000  0.4310580000000  0.5148550000000 1.0
C      1  0.6059660000000  0.4926400000000  0.4834320000000 1.0
C      1  0.5621210000000  0.4564310000000  0.4215080000000 1.0
C      1  0.4791190000000  0.5363560000000  0.4322400000000 1.0
C      1  0.4674000000000  0.4478330000000  0.4652730000000 1.0
C      1  0.5984460000000  0.5116660000000  0.5026010000000 1.0
C      1  0.5466500000000  0.4287410000000  0.5657260000000 1.0
C      1  0.4520980000000  0.4959620000000  0.5384140000000 1.0
C      1  0.4197700000000  0.5467960000000  0.5433360000000 1.0
C      1  0.5120780000000  0.4758530000000  0.4768110000000 1.0
C      1  0.5479140000000  0.4984430000000  0.4896580000000 1.0
C      1  0.4751350000000  0.5494990000000  0.4050780000000 1.0
C      1  0.5532390000000  0.4542740000000  0.5744430000000 1.0
C      1  0.5422150000000  0.4457540000000  0.4397190000000 1.0
C      1  0.4841280000000  0.5317990000000  0.3849520000000 1.0
C      1  0.4503420000000  0.5017790000000  0.5963920000000 1.0
C      1  0.5802420000000  0.4628350000000  0.4552200000000 1.0
C      1  0.5393210000000  0.4895520000000  0.6023780000000 1.0
C      1  0.4650430000000  0.5636950000000  0.5193100000000 1.0
C      1  0.5311590000000  0.4469690000000  0.5210750000000 1.0
C      1  0.5804350000000  0.5494370000000  0.4692120000000 1.0
C      1  0.4782040000000  0.4657970000000  0.5134730000000 1.0
C      1  0.4870790000000  0.5220420000000  0.5310440000000 1.0
C      1  0.5269550000000  0.5149650000000  0.4339120000000 1.0
C      1  0.5875290000000  0.5385040000000  0.4963690000000 1.0
C      1  0.5678460000000  0.5293290000000  0.4509920000000 1.0
C      1  0.4036560000000  0.4919650000000  0.4982260000000 1.0
C      1  0.4553880000000  0.4156820000000  0.5055870000000 1.0
C      1  0.5099940000000  0.5623650000000  0.5794470000000 1.0
C      1  0.4693300000000  0.4022600000000  0.5261970000000 1.0
C      1  0.4931350000000  0.4921990000000  0.5215380000000 1.0
C      1  0.4712320000000  0.5625240000000  0.4701430000000 1.0
C      1  0.5938680000000  0.4674850000000  0.4801900000000 1.0
C      1  0.4490570000000  0.4709050000000  0.5235750000000 1.0
C      1  0.5905360000000  0.5006750000000  0.5284940000000 1.0
C      1  0.4522400000000  0.5271450000000  0.4418390000000 1.0
C      1  0.4733790000000  0.5325190000000  0.5652420000000 1.0
C      1  0.5318670000000  0.4648650000000  0.5919450000000 1.0
C      1  0.5169200000000  0.4626900000000  0.4035150000000 1.0
C      1  0.5570970000000  0.5059480000000  0.5907160000000 1.0
C      1  0.4405080000000  0.5632600000000  0.5340680000000 1.0
C      1  0.4874190000000  0.5706680000000  0.5384840000000 1.0
C      1  0.4178980000000  0.5538430000000  0.4646430000000 1.0
C      1  0.4488470000000  0.5266050000000  0.5808680000000 1.0
C      1  0.4809330000000  0.4874070000000  0.4358870000000 1.0
C      1  0.5150760000000  0.4880980000000  0.5412380000000 1.0
C      1  0.4890600000000  0.5713450000000  0.4186350000000 1.0
C      1  0.4848130000000  0.6005830000000  0.4950720000000 1.0
C      1  0.4852920000000  0.5592990000000  0.5657620000000 1.0
C      1  0.4033620000000  0.5049490000000  0.5250080000000 1.0
C      1  0.5723100000000  0.5465280000000  0.5435710000000 1.0
C      1  0.5281560000000  0.5124410000000  0.5513940000000 1.0
C      1  0.5428460000000  0.4990390000000  0.4175160000000 1.0
C      1  0.4059740000000  0.5340390000000  0.5204780000000 1.0
C      1  0.4652970000000  0.5808100000000  0.4940430000000 1.0
C      1  0.5001860000000  0.4383800000000  0.5159750000000 1.0
C      1  0.5452910000000  0.4740730000000  0.4051430000000 1.0
C      1  0.4266060000000  0.4738390000000  0.4919750000000 1.0
C      1  0.5058430000000  0.4619980000000  0.5814070000000 1.0
C      1  0.4672530000000  0.5013870000000  0.4799760000000 1.0
C      1  0.5325190000000  0.5582310000000  0.4629880000000 1.0
C      1  0.4565700000000  0.4991700000000  0.4520570000000 1.0
C      1  0.4693010000000  0.4707100000000  0.4856450000000 1.0
C      1  0.4457710000000  0.5479780000000  0.4607000000000 1.0
C      1  0.5590900000000  0.4742020000000  0.5513510000000 1.0
C      1  0.5288250000000  0.5685670000000  0.5595820000000 1.0
C      1  0.4213440000000  0.4337910000000  0.4669820000000 1.0
C      1  0.5022210000000  0.4995890000000  0.4925860000000 1.0
C      1  0.5558550000000  0.5036610000000  0.5619470000000 1.0
C      1  0.5258110000000  0.5185510000000  0.4991200000000 1.0
C      1  0.5655680000000  0.4286980000000  0.5001840000000 1.0
C      1  0.4964820000000  0.4650720000000  0.4516950000000 1.0
C      1  0.5672650000000  0.4158870000000  0.5254680000000 1.0
C      1  0.5398420000000  0.4198570000000  0.4890300000000 1.0
C      1  0.5549600000000  0.5597270000000  0.5610080000000 1.0
C      1  0.5442180000000  0.4250410000000  0.5384740000000 1.0
C      1  0.4240990000000  0.5247730000000  0.5639250000000 1.0
C      1  0.4501760000000  0.5176980000000  0.5001910000000 1.0
C      1  0.5715380000000  0.5527330000000  0.5156120000000 1.0
C      1  0.4996660000000  0.5109180000000  0.3959180000000 1.0
C      1  0.4183460000000  0.4451640000000  0.4927570000000 1.0
C      1  0.5587580000000  0.5695450000000  0.4741090000000 1.0
C      1  0.4715280000000  0.4755960000000  0.4110170000000 1.0
C      1  0.4410510000000  0.4495300000000  0.5435270000000 1.0
C      1  0.4722370000000  0.5358050000000  0.5088490000000 1.0
C      1  0.4393930000000  0.4768850000000  0.5871570000000 1.0
C      1  0.4250040000000  0.4707190000000  0.5625680000000 1.0
C      1  0.5114450000000  0.4195370000000  0.4931630000000 1.0
C      1  0.4396690000000  0.4511600000000  0.4541760000000 1.0
C      1  0.5147050000000  0.5831250000000  0.4597940000000 1.0
C      1  0.4978940000000  0.5126410000000  0.4258520000000 1.0
C      1  0.4884390000000  0.5764750000000  0.4476010000000 1.0
C      1  0.4877270000000  0.5406380000000  0.4831800000000 1.0
C      1  0.5415020000000  0.5396130000000  0.4404610000000 1.0
C      1  0.4936560000000  0.4813900000000  0.3938740000000 1.0
C      1  0.4935220000000  0.4076670000000  0.4756660000000 1.0
C      1  0.5828800000000  0.4716200000000  0.5306380000000 1.0
C      1  0.4844300000000  0.4650970000000  0.5633630000000 1.0
C      1  0.5772920000000  0.4577560000000  0.5031020000000 1.0
C      1  0.5164460000000  0.5637720000000  0.5332490000000 1.0
C      1  0.5626840000000  0.5061270000000  0.4666530000000 1.0
C      1  0.5283180000000  0.5804680000000  0.5100280000000 1.0
C      1  0.5113020000000  0.5934990000000  0.4883340000000 1.0
C      1  0.5562580000000  0.5740420000000  0.5029440000000 1.0
C      1  0.4694120000000  0.4212450000000  0.4797930000000 1.0
C      1  0.5544180000000  0.4536800000000  0.4652690000000 1.0
C      1  0.5365210000000  0.4727630000000  0.5326730000000 1.0
C      1  0.4234480000000  0.4988180000000  0.5478810000000 1.0
C      1  0.4674250000000  0.4901330000000  0.5640510000000 1.0
C      1  0.5140570000000  0.4508260000000  0.4315290000000 1.0
END
