TITL C-951342-2639-351 -9.67494453620815e-07 125000 -1118.96017542079 0 0 179 (C1) n - 1
REM
REM in /home/bkarasulu/work/CARBON/AIRSS/Generating-Clusters/EDIP-Nigel-Params/with-SteepDescent/Only-C1/SD-CG/HFTN-CG
REM
REM
REM
REM
REM
REM ./C.cell (11c1c37f851c82e70ff6c80c92926a4b)
REM
REM compiler GCC version 9.2.1 20190827 (Red Hat 9.2.1-1)
REM options -cpp -mtune=generic -march=x86-64 -g -O0 -fpre-include=/usr/include/finclude/math-vector-fortran.h
REM seed 909097615 -1171630943 1634866623 1929046906 1582509600 775759342 -1712293405 1769338144 -1517403959 550977562 301543372 264664543 549254585 -110941204 740835299 21884650 -837185722 -1693225990 -987527588 1262663740 -880455390 2022388905 1953282207 -573818955 -1122938937 -1224742383 1588966135 -1547577736 -1122949487 1404734990 -389967535 1332746095 -1177476225
REM
CELL 1.54180   50.00000   50.00000   50.00000   90.00000   90.00000   90.00000
LATT -1
SFAC C  
C      1  0.4784990000000  0.4800720000000  0.5343710000000 1.0
C      1  0.4452980000000  0.5151210000000  0.4897310000000 1.0
C      1  0.4300410000000  0.4905070000000  0.4830290000000 1.0
C      1  0.5996220000000  0.4679130000000  0.4497410000000 1.0
C      1  0.5457360000000  0.4709300000000  0.4751870000000 1.0
C      1  0.5883490000000  0.4948350000000  0.4452240000000 1.0
C      1  0.5560990000000  0.5679850000000  0.5663110000000 1.0
C      1  0.4831710000000  0.5823030000000  0.4792240000000 1.0
C      1  0.6129160000000  0.5119720000000  0.4848110000000 1.0
C      1  0.5411900000000  0.5678820000000  0.4523450000000 1.0
C      1  0.5964640000000  0.4744880000000  0.5251030000000 1.0
C      1  0.5383320000000  0.6044770000000  0.4875040000000 1.0
C      1  0.5536830000000  0.4244720000000  0.5102960000000 1.0
C      1  0.4774070000000  0.4569560000000  0.6053180000000 1.0
C      1  0.4412150000000  0.5396650000000  0.5310790000000 1.0
C      1  0.5141710000000  0.3945920000000  0.5035020000000 1.0
C      1  0.5227050000000  0.5470090000000  0.4941720000000 1.0
C      1  0.6055560000000  0.5376290000000  0.4974030000000 1.0
C      1  0.5028700000000  0.4456380000000  0.4012880000000 1.0
C      1  0.4490100000000  0.4970460000000  0.4428260000000 1.0
C      1  0.5917940000000  0.5818790000000  0.5345390000000 1.0
C      1  0.5524940000000  0.4005330000000  0.4683480000000 1.0
C      1  0.6054790000000  0.5332790000000  0.5248910000000 1.0
C      1  0.5426100000000  0.3995320000000  0.4963270000000 1.0
C      1  0.5320950000000  0.4822410000000  0.5530300000000 1.0
C      1  0.4265680000000  0.5340420000000  0.6034170000000 1.0
C      1  0.4929430000000  0.5103410000000  0.6175670000000 1.0
C      1  0.5902950000000  0.5354820000000  0.5476540000000 1.0
C      1  0.5743780000000  0.5357310000000  0.4263110000000 1.0
C      1  0.5694900000000  0.4361580000000  0.4875540000000 1.0
C      1  0.5817630000000  0.5441710000000  0.4756320000000 1.0
C      1  0.4605540000000  0.4472450000000  0.4131720000000 1.0
C      1  0.5970880000000  0.4445990000000  0.5214260000000 1.0
C      1  0.4930970000000  0.5631430000000  0.4593630000000 1.0
C      1  0.5916490000000  0.4479850000000  0.4323180000000 1.0
C      1  0.4994460000000  0.4685060000000  0.4176440000000 1.0
C      1  0.5238670000000  0.5013360000000  0.4865640000000 1.0
C      1  0.3939920000000  0.5230600000000  0.4958700000000 1.0
C      1  0.5486910000000  0.4641570000000  0.4115040000000 1.0
C      1  0.3999250000000  0.5268050000000  0.5237870000000 1.0
C      1  0.5171090000000  0.5155180000000  0.4590770000000 1.0
C      1  0.4981690000000  0.4423860000000  0.5090000000000 1.0
C      1  0.4857160000000  0.5194930000000  0.5156790000000 1.0
C      1  0.4267380000000  0.4929510000000  0.5765820000000 1.0
C      1  0.4899830000000  0.5671420000000  0.4090380000000 1.0
C      1  0.5988560000000  0.4388880000000  0.4916890000000 1.0
C      1  0.5945360000000  0.5403670000000  0.4486340000000 1.0
C      1  0.5154630000000  0.4386090000000  0.5679810000000 1.0
C      1  0.5029680000000  0.4917900000000  0.5850030000000 1.0
C      1  0.4561170000000  0.4770350000000  0.6140980000000 1.0
C      1  0.5806450000000  0.5622350000000  0.5515060000000 1.0
C      1  0.4056090000000  0.5537670000000  0.5275300000000 1.0
C      1  0.5120830000000  0.5938260000000  0.5704720000000 1.0
C      1  0.4509340000000  0.5397890000000  0.5598720000000 1.0
C      1  0.5549520000000  0.4937370000000  0.4047650000000 1.0
C      1  0.4051710000000  0.4664060000000  0.5088760000000 1.0
C      1  0.5100340000000  0.3864030000000  0.5300330000000 1.0
C      1  0.5627880000000  0.4349860000000  0.5574890000000 1.0
C      1  0.5307210000000  0.4099430000000  0.4221320000000 1.0
C      1  0.5586150000000  0.5214190000000  0.5813760000000 1.0
C      1  0.3916190000000  0.4956180000000  0.4878750000000 1.0
C      1  0.4324810000000  0.4269380000000  0.4531690000000 1.0
C      1  0.4649530000000  0.5052290000000  0.6139500000000 1.0
C      1  0.4742550000000  0.5201120000000  0.4132070000000 1.0
C      1  0.5468260000000  0.4271790000000  0.4413300000000 1.0
C      1  0.4389380000000  0.5420180000000  0.4814560000000 1.0
C      1  0.4482170000000  0.5599780000000  0.5061640000000 1.0
C      1  0.4364480000000  0.4717200000000  0.5069720000000 1.0
C      1  0.4850050000000  0.4907540000000  0.4022980000000 1.0
C      1  0.5219360000000  0.5116230000000  0.5397260000000 1.0
C      1  0.4363870000000  0.4718980000000  0.5934180000000 1.0
C      1  0.5178260000000  0.4231950000000  0.4014890000000 1.0
C      1  0.5484970000000  0.6041730000000  0.5337820000000 1.0
C      1  0.4647950000000  0.5665400000000  0.5664740000000 1.0
C      1  0.4044390000000  0.5096510000000  0.4398020000000 1.0
C      1  0.4594560000000  0.4166740000000  0.4509340000000 1.0
C      1  0.6040180000000  0.4860420000000  0.4971980000000 1.0
C      1  0.6084330000000  0.5146520000000  0.4552380000000 1.0
C      1  0.5279230000000  0.5996700000000  0.4605090000000 1.0
C      1  0.5434390000000  0.5023370000000  0.5966360000000 1.0
C      1  0.5251980000000  0.5336950000000  0.4124500000000 1.0
C      1  0.5183110000000  0.5210450000000  0.6057710000000 1.0
C      1  0.5463300000000  0.5140820000000  0.5241910000000 1.0
C      1  0.5627470000000  0.5214170000000  0.4789720000000 1.0
C      1  0.5775110000000  0.5067870000000  0.4193650000000 1.0
C      1  0.6066210000000  0.4639900000000  0.4782080000000 1.0
C      1  0.4318000000000  0.4452150000000  0.5456800000000 1.0
C      1  0.4459950000000  0.5246760000000  0.6199230000000 1.0
C      1  0.5146720000000  0.3917250000000  0.4364570000000 1.0
C      1  0.5078710000000  0.4975900000000  0.3849860000000 1.0
C      1  0.4320530000000  0.5479720000000  0.4320130000000 1.0
C      1  0.4686750000000  0.4125850000000  0.4801940000000 1.0
C      1  0.3931610000000  0.4893040000000  0.4593290000000 1.0
C      1  0.5270440000000  0.4459110000000  0.5177730000000 1.0
C      1  0.4437920000000  0.4749850000000  0.4607930000000 1.0
C      1  0.4068500000000  0.4870080000000  0.5559960000000 1.0
C      1  0.5436510000000  0.4674380000000  0.5054290000000 1.0
C      1  0.4078220000000  0.5449330000000  0.4792970000000 1.0
C      1  0.5470890000000  0.5491090000000  0.4270500000000 1.0
C      1  0.5198760000000  0.4568460000000  0.5449170000000 1.0
C      1  0.4253060000000  0.4274420000000  0.4813170000000 1.0
C      1  0.5400660000000  0.5446130000000  0.5747890000000 1.0
C      1  0.5193710000000  0.5512020000000  0.5962130000000 1.0
C      1  0.4994210000000  0.5700610000000  0.5841980000000 1.0
C      1  0.4004260000000  0.4603770000000  0.4578470000000 1.0
C      1  0.4772070000000  0.6172470000000  0.4623940000000 1.0
C      1  0.5403110000000  0.5230230000000  0.4974970000000 1.0
C      1  0.4442810000000  0.5862350000000  0.5598500000000 1.0
C      1  0.4304470000000  0.4719020000000  0.4114990000000 1.0
C      1  0.4603610000000  0.4715870000000  0.3966000000000 1.0
C      1  0.5612040000000  0.4973210000000  0.4606650000000 1.0
C      1  0.4050000000000  0.5693350000000  0.5023260000000 1.0
C      1  0.5188360000000  0.5492790000000  0.4647140000000 1.0
C      1  0.5308100000000  0.5100090000000  0.3967460000000 1.0
C      1  0.5657690000000  0.4425670000000  0.4234630000000 1.0
C      1  0.4807380000000  0.4362840000000  0.5586330000000 1.0
C      1  0.4532090000000  0.5800610000000  0.4396650000000 1.0
C      1  0.4326550000000  0.5926750000000  0.5360310000000 1.0
C      1  0.4937130000000  0.3933910000000  0.4817170000000 1.0
C      1  0.5293370000000  0.4513330000000  0.4535630000000 1.0
C      1  0.4298100000000  0.5237980000000  0.5776110000000 1.0
C      1  0.5368570000000  0.4193740000000  0.5618720000000 1.0
C      1  0.4557400000000  0.5158600000000  0.5167280000000 1.0
C      1  0.5847550000000  0.4833380000000  0.5533050000000 1.0
C      1  0.4901720000000  0.5047960000000  0.4579700000000 1.0
C      1  0.4813460000000  0.4843470000000  0.5647330000000 1.0
C      1  0.4684860000000  0.4595700000000  0.5757870000000 1.0
C      1  0.4781650000000  0.4497280000000  0.5303900000000 1.0
C      1  0.4537840000000  0.5445580000000  0.4542280000000 1.0
C      1  0.4415870000000  0.5273240000000  0.4097440000000 1.0
C      1  0.5693770000000  0.4626150000000  0.5696360000000 1.0
C      1  0.4354140000000  0.4059460000000  0.4980300000000 1.0
C      1  0.5630790000000  0.5903790000000  0.4911930000000 1.0
C      1  0.4843090000000  0.4405110000000  0.4825250000000 1.0
C      1  0.4603610000000  0.4134400000000  0.5563840000000 1.0
C      1  0.5442170000000  0.4755260000000  0.5810800000000 1.0
C      1  0.5783970000000  0.5127420000000  0.5610960000000 1.0
C      1  0.4831060000000  0.5766910000000  0.5428160000000 1.0
C      1  0.4499340000000  0.4413550000000  0.5220750000000 1.0
C      1  0.4980770000000  0.5465540000000  0.5115350000000 1.0
C      1  0.5251110000000  0.4545470000000  0.5921460000000 1.0
C      1  0.5753820000000  0.4265750000000  0.5323560000000 1.0
C      1  0.4689240000000  0.5178250000000  0.4436940000000 1.0
C      1  0.4076000000000  0.4616130000000  0.5395710000000 1.0
C      1  0.4989250000000  0.4943330000000  0.5063480000000 1.0
C      1  0.5553110000000  0.4855930000000  0.5273020000000 1.0
C      1  0.4966890000000  0.5406270000000  0.4083230000000 1.0
C      1  0.4577140000000  0.5954760000000  0.4652120000000 1.0
C      1  0.4286900000000  0.5020260000000  0.4228010000000 1.0
C      1  0.5288830000000  0.3980930000000  0.5455150000000 1.0
C      1  0.4265330000000  0.4553010000000  0.4434290000000 1.0
C      1  0.4935500000000  0.6048330000000  0.5492050000000 1.0
C      1  0.4034090000000  0.5316820000000  0.5706020000000 1.0
C      1  0.4769610000000  0.5682670000000  0.5052380000000 1.0
C      1  0.5040950000000  0.4693330000000  0.6058230000000 1.0
C      1  0.3948780000000  0.5134950000000  0.5492440000000 1.0
C      1  0.5038000000000  0.6130450000000  0.4555870000000 1.0
C      1  0.5697100000000  0.5908470000000  0.5195750000000 1.0
C      1  0.4024320000000  0.4459510000000  0.4853580000000 1.0
C      1  0.5179230000000  0.5366470000000  0.5544450000000 1.0
C      1  0.5265000000000  0.4718200000000  0.4308570000000 1.0
C      1  0.4520870000000  0.4113320000000  0.5204510000000 1.0
C      1  0.5397210000000  0.5907550000000  0.5585550000000 1.0
C      1  0.5057880000000  0.5570060000000  0.5373760000000 1.0
C      1  0.5770120000000  0.4151790000000  0.4693800000000 1.0
C      1  0.5096070000000  0.4060880000000  0.4606320000000 1.0
C      1  0.4812130000000  0.5729120000000  0.4344780000000 1.0
C      1  0.4067880000000  0.5385010000000  0.4477300000000 1.0
C      1  0.5047580000000  0.6192560000000  0.5276790000000 1.0
C      1  0.4343010000000  0.4229660000000  0.5631540000000 1.0
C      1  0.5650840000000  0.5689520000000  0.4717420000000 1.0
C      1  0.4812280000000  0.4906130000000  0.4820200000000 1.0
C      1  0.5285700000000  0.6127080000000  0.5147130000000 1.0
C      1  0.4762510000000  0.4351030000000  0.4349900000000 1.0
C      1  0.4305610000000  0.5846080000000  0.5089860000000 1.0
C      1  0.4506330000000  0.4891840000000  0.5275200000000 1.0
C      1  0.5013080000000  0.4351660000000  0.4571610000000 1.0
C      1  0.4680200000000  0.4652190000000  0.4765340000000 1.0
C      1  0.5378920000000  0.5014090000000  0.4391620000000 1.0
END
