TITL C-951345-2650-472 -2.22435508783331e-07 125000 -76.1339175071264 0 0 14 (C1) n - 1
REM
REM in /home/bkarasulu/work/CARBON/AIRSS/Generating-Clusters/EDIP-Nigel-Params/with-SteepDescent/Only-C1/SD-CG/HFTN-CG
REM
REM
REM
REM
REM
REM ./C.cell (11c1c37f851c82e70ff6c80c92926a4b)
REM
REM compiler GCC version 9.2.1 20190827 (Red Hat 9.2.1-1)
REM options -cpp -mtune=generic -march=x86-64 -g -O0 -fpre-include=/usr/include/finclude/math-vector-fortran.h
REM seed 2071935623 -824515506 1768683591 -274427954 1259596902 -508886979 1883106999 611469576 -1330875828 778406844 -874340111 -634573953 -1490693829 -1278649143 1914615972 -2065265932 -1456820505 -1716973068 -1523290816 -779920394 1723268513 -432660806 -545497063 1042012775 -1917593641 1334292953 1128303722 -382173456 1963152834 -1332663982 -1075711813 -1459431218 1419339452
REM
CELL 1.54180   50.00000   50.00000   50.00000   90.00000   90.00000   90.00000
LATT -1
SFAC C  
C      1  0.5335110000000  0.4767270000000  0.5019290000000 1.0
C      1  0.4877870000000  0.5201400000000  0.5026130000000 1.0
C      1  0.5041450000000  0.4794860000000  0.5001090000000 1.0
C      1  0.4708930000000  0.5035400000000  0.5168640000000 1.0
C      1  0.4654190000000  0.4648140000000  0.4841100000000 1.0
C      1  0.5005310000000  0.5411400000000  0.4900630000000 1.0
C      1  0.4825580000000  0.4927300000000  0.5403130000000 1.0
C      1  0.4919510000000  0.4594750000000  0.4831100000000 1.0
C      1  0.5099220000000  0.5399510000000  0.4618690000000 1.0
C      1  0.5373190000000  0.5463060000000  0.4656370000000 1.0
C      1  0.4580080000000  0.4847800000000  0.5006620000000 1.0
C      1  0.5296300000000  0.5465660000000  0.4929500000000 1.0
C      1  0.5288950000000  0.4718050000000  0.5293370000000 1.0
C      1  0.4994300000000  0.4725400000000  0.5304320000000 1.0
END
