TITL C-950522-5749-678 -1.10127539729055e-06 125000 -1227.75231939338 0 0 195 (C1) n - 1
REM
REM in /home/bkarasulu/work/CARBON/AIRSS/Generating-Clusters/EDIP-Nigel-Params/with-SteepDescent/Only-C1/SD-CG/HFTN-CG
REM
REM
REM
REM
REM
REM ./C.cell (11c1c37f851c82e70ff6c80c92926a4b)
REM
REM compiler GCC version 9.2.1 20190827 (Red Hat 9.2.1-1)
REM options -cpp -mtune=generic -march=x86-64 -g -O0 -fpre-include=/usr/include/finclude/math-vector-fortran.h
REM seed -1910363398 -1123310146 -2105182204 297157852 -647178735 -755932103 597109830 1492485910 1430444110 1157314069 -678949346 -193683232 1888886699 84448343 1050151336 -1736484979 1809469243 -1882300404 -1159252397 -1105882518 1379752235 1334830723 -1993993253 2019753136 1674185509 1237201526 -1821286043 -2147187756 1324592119 -659383712 -131458866 -1562528197 -686174133
REM
CELL 1.54180   50.00000   50.00000   50.00000   90.00000   90.00000   90.00000
LATT -1
SFAC C  
C      1  0.5415590000000  0.4732840000000  0.6012150000000 1.0
C      1  0.6105990000000  0.4829970000000  0.5195110000000 1.0
C      1  0.4981220000000  0.3927000000000  0.4793440000000 1.0
C      1  0.4806030000000  0.5939180000000  0.4704470000000 1.0
C      1  0.5753000000000  0.5086380000000  0.4403590000000 1.0
C      1  0.5056910000000  0.4265640000000  0.3996080000000 1.0
C      1  0.5312410000000  0.4914490000000  0.6208910000000 1.0
C      1  0.4452240000000  0.4184870000000  0.5339280000000 1.0
C      1  0.5857510000000  0.4415570000000  0.5567090000000 1.0
C      1  0.4788790000000  0.5783840000000  0.4448990000000 1.0
C      1  0.5363540000000  0.5340970000000  0.5967980000000 1.0
C      1  0.5408060000000  0.5192900000000  0.4094050000000 1.0
C      1  0.5364840000000  0.3835420000000  0.5041940000000 1.0
C      1  0.6171750000000  0.5110960000000  0.5117040000000 1.0
C      1  0.5085290000000  0.5403560000000  0.5618680000000 1.0
C      1  0.5646840000000  0.5028250000000  0.4866030000000 1.0
C      1  0.4025760000000  0.4792780000000  0.5185800000000 1.0
C      1  0.5194390000000  0.5666630000000  0.5995280000000 1.0
C      1  0.4387980000000  0.4637020000000  0.4847830000000 1.0
C      1  0.4751330000000  0.5507760000000  0.4114450000000 1.0
C      1  0.5076060000000  0.4578240000000  0.5243990000000 1.0
C      1  0.4613540000000  0.5257810000000  0.5923740000000 1.0
C      1  0.3901280000000  0.5353510000000  0.5043650000000 1.0
C      1  0.4208110000000  0.4291460000000  0.5172850000000 1.0
C      1  0.4945160000000  0.6106070000000  0.5123780000000 1.0
C      1  0.4079660000000  0.5024830000000  0.4121170000000 1.0
C      1  0.5310310000000  0.5693200000000  0.4155730000000 1.0
C      1  0.5164110000000  0.5687780000000  0.4888670000000 1.0
C      1  0.5791370000000  0.4887580000000  0.4156180000000 1.0
C      1  0.4858920000000  0.5052490000000  0.4093070000000 1.0
C      1  0.4518270000000  0.4191300000000  0.4473850000000 1.0
C      1  0.5218400000000  0.5415810000000  0.4038330000000 1.0
C      1  0.4518320000000  0.4411770000000  0.5804830000000 1.0
C      1  0.5808110000000  0.5148520000000  0.5873900000000 1.0
C      1  0.5967060000000  0.5586020000000  0.5283770000000 1.0
C      1  0.4090910000000  0.4503290000000  0.5580530000000 1.0
C      1  0.4558610000000  0.4185420000000  0.4782610000000 1.0
C      1  0.5298660000000  0.4788060000000  0.5735730000000 1.0
C      1  0.4882860000000  0.4980160000000  0.4383940000000 1.0
C      1  0.4046550000000  0.4506550000000  0.5304490000000 1.0
C      1  0.5940280000000  0.4415970000000  0.5020370000000 1.0
C      1  0.4621550000000  0.3926360000000  0.4920610000000 1.0
C      1  0.5419550000000  0.6009140000000  0.5499990000000 1.0
C      1  0.5266830000000  0.4729460000000  0.3989630000000 1.0
C      1  0.5054530000000  0.5967560000000  0.4856500000000 1.0
C      1  0.5596510000000  0.5732950000000  0.4646780000000 1.0
C      1  0.5100530000000  0.4695840000000  0.4693580000000 1.0
C      1  0.4515980000000  0.5448670000000  0.5712350000000 1.0
C      1  0.3989430000000  0.5019880000000  0.5405550000000 1.0
C      1  0.4501520000000  0.4898590000000  0.5217920000000 1.0
C      1  0.4662390000000  0.5715940000000  0.5770990000000 1.0
C      1  0.4961050000000  0.4996740000000  0.5466320000000 1.0
C      1  0.5454660000000  0.4319930000000  0.4185230000000 1.0
C      1  0.4030850000000  0.5502690000000  0.5507060000000 1.0
C      1  0.3828760000000  0.4829000000000  0.4964680000000 1.0
C      1  0.4608540000000  0.4694330000000  0.4659710000000 1.0
C      1  0.4945080000000  0.5330510000000  0.4026800000000 1.0
C      1  0.4760730000000  0.3985840000000  0.5665890000000 1.0
C      1  0.4999160000000  0.4328680000000  0.5978830000000 1.0
C      1  0.5418920000000  0.4004840000000  0.4585830000000 1.0
C      1  0.4352920000000  0.4610430000000  0.5643870000000 1.0
C      1  0.5339090000000  0.4467320000000  0.5324390000000 1.0
C      1  0.4711580000000  0.5121550000000  0.4831810000000 1.0
C      1  0.5860800000000  0.4705040000000  0.5597630000000 1.0
C      1  0.4742800000000  0.4927350000000  0.5060890000000 1.0
C      1  0.4893900000000  0.5635400000000  0.6022000000000 1.0
C      1  0.5323860000000  0.4140000000000  0.5279230000000 1.0
C      1  0.5757250000000  0.5744110000000  0.4397580000000 1.0
C      1  0.4645290000000  0.4961530000000  0.4561260000000 1.0
C      1  0.5568470000000  0.4943560000000  0.4594280000000 1.0
C      1  0.4956810000000  0.4077600000000  0.5853290000000 1.0
C      1  0.5890620000000  0.4586970000000  0.4267040000000 1.0
C      1  0.5008330000000  0.4160930000000  0.4257830000000 1.0
C      1  0.4687120000000  0.6212640000000  0.5083050000000 1.0
C      1  0.3927630000000  0.5305440000000  0.5329660000000 1.0
C      1  0.4247610000000  0.4330130000000  0.4427740000000 1.0
C      1  0.4683970000000  0.4492080000000  0.4082660000000 1.0
C      1  0.4312670000000  0.5935390000000  0.4539170000000 1.0
C      1  0.5074470000000  0.5328700000000  0.5124430000000 1.0
C      1  0.5168920000000  0.5822310000000  0.4417460000000 1.0
C      1  0.5380690000000  0.4346290000000  0.4904100000000 1.0
C      1  0.5210710000000  0.4935020000000  0.4988140000000 1.0
C      1  0.4580680000000  0.3931500000000  0.5212090000000 1.0
C      1  0.5849470000000  0.4302450000000  0.5288430000000 1.0
C      1  0.3879300000000  0.4642840000000  0.4735220000000 1.0
C      1  0.5004190000000  0.4844890000000  0.3916770000000 1.0
C      1  0.5047700000000  0.4182290000000  0.4933690000000 1.0
C      1  0.5498530000000  0.4920690000000  0.4012870000000 1.0
C      1  0.5329330000000  0.4519280000000  0.4677000000000 1.0
C      1  0.5274780000000  0.6079860000000  0.4680770000000 1.0
C      1  0.4520320000000  0.4661540000000  0.5394620000000 1.0
C      1  0.5558870000000  0.6004080000000  0.4758450000000 1.0
C      1  0.5088410000000  0.5233730000000  0.5859200000000 1.0
C      1  0.4208290000000  0.5110550000000  0.4853670000000 1.0
C      1  0.5559730000000  0.5308620000000  0.4915020000000 1.0
C      1  0.5740450000000  0.5536320000000  0.4830680000000 1.0
C      1  0.3819650000000  0.5116730000000  0.4894240000000 1.0
C      1  0.4572850000000  0.4968060000000  0.5902210000000 1.0
C      1  0.4624760000000  0.5359010000000  0.5428490000000 1.0
C      1  0.4025350000000  0.4758250000000  0.4246700000000 1.0
C      1  0.5565280000000  0.4649460000000  0.4562840000000 1.0
C      1  0.5443030000000  0.6048430000000  0.5219560000000 1.0
C      1  0.4948620000000  0.5945090000000  0.5382810000000 1.0
C      1  0.4868230000000  0.5339100000000  0.6036310000000 1.0
C      1  0.4459110000000  0.5822240000000  0.5332770000000 1.0
C      1  0.4621360000000  0.4421400000000  0.5270350000000 1.0
C      1  0.5286570000000  0.4431290000000  0.3968540000000 1.0
C      1  0.5691940000000  0.5624660000000  0.5695100000000 1.0
C      1  0.5995100000000  0.5171110000000  0.4580010000000 1.0
C      1  0.5539080000000  0.5209390000000  0.5471060000000 1.0
C      1  0.5313130000000  0.5635330000000  0.4621160000000 1.0
C      1  0.5298990000000  0.4415250000000  0.6035570000000 1.0
C      1  0.5857090000000  0.4297400000000  0.4765160000000 1.0
C      1  0.4504110000000  0.5382760000000  0.4535860000000 1.0
C      1  0.5602070000000  0.5598230000000  0.4200550000000 1.0
C      1  0.4811150000000  0.4337980000000  0.4832420000000 1.0
C      1  0.5625130000000  0.3947990000000  0.5026840000000 1.0
C      1  0.4669970000000  0.5900220000000  0.5526360000000 1.0
C      1  0.4479530000000  0.5803130000000  0.4358130000000 1.0
C      1  0.5590860000000  0.4147420000000  0.4805860000000 1.0
C      1  0.3993840000000  0.5606970000000  0.4906630000000 1.0
C      1  0.4327580000000  0.5990350000000  0.4812910000000 1.0
C      1  0.6016420000000  0.5285100000000  0.5289590000000 1.0
C      1  0.4832420000000  0.3906120000000  0.5375620000000 1.0
C      1  0.4815430000000  0.4800060000000  0.5919480000000 1.0
C      1  0.5650820000000  0.5963590000000  0.5044430000000 1.0
C      1  0.5562400000000  0.4596900000000  0.5143260000000 1.0
C      1  0.5556810000000  0.5316370000000  0.4314700000000 1.0
C      1  0.4232400000000  0.5093890000000  0.5578140000000 1.0
C      1  0.5921190000000  0.5676160000000  0.5545880000000 1.0
C      1  0.4208910000000  0.5380140000000  0.5688470000000 1.0
C      1  0.5455060000000  0.5734080000000  0.5576620000000 1.0
C      1  0.4358830000000  0.5524590000000  0.4321390000000 1.0
C      1  0.3912020000000  0.4830030000000  0.4516970000000 1.0
C      1  0.3979750000000  0.5601620000000  0.4624240000000 1.0
C      1  0.4248670000000  0.5764650000000  0.5012380000000 1.0
C      1  0.4484770000000  0.5389070000000  0.4068700000000 1.0
C      1  0.4787950000000  0.5471960000000  0.4495400000000 1.0
C      1  0.5278190000000  0.4189350000000  0.4387720000000 1.0
C      1  0.5334180000000  0.5682150000000  0.5154230000000 1.0
C      1  0.5748990000000  0.4845900000000  0.5848220000000 1.0
C      1  0.5143190000000  0.6051100000000  0.5577250000000 1.0
C      1  0.5436730000000  0.4958530000000  0.5558830000000 1.0
C      1  0.6075110000000  0.4665670000000  0.4966810000000 1.0
C      1  0.4061490000000  0.5506590000000  0.4369700000000 1.0
C      1  0.4842490000000  0.4526260000000  0.4615270000000 1.0
C      1  0.4308190000000  0.4353400000000  0.4888630000000 1.0
C      1  0.5830450000000  0.4815870000000  0.5321750000000 1.0
C      1  0.5251560000000  0.3826730000000  0.4770920000000 1.0
C      1  0.4383010000000  0.4995950000000  0.4363590000000 1.0
C      1  0.5865690000000  0.4542570000000  0.4596250000000 1.0
C      1  0.4279290000000  0.4856950000000  0.5020350000000 1.0
C      1  0.5399790000000  0.5366270000000  0.5168200000000 1.0
C      1  0.5773190000000  0.5691050000000  0.5081080000000 1.0
C      1  0.4411440000000  0.4580920000000  0.4040330000000 1.0
C      1  0.4951950000000  0.5313900000000  0.4804590000000 1.0
C      1  0.5033810000000  0.4938980000000  0.5757270000000 1.0
C      1  0.4533420000000  0.5071070000000  0.4077300000000 1.0
C      1  0.4507010000000  0.4150380000000  0.5652360000000 1.0
C      1  0.5487210000000  0.4870140000000  0.5059800000000 1.0
C      1  0.4473040000000  0.4832130000000  0.3892360000000 1.0
C      1  0.5345180000000  0.5356360000000  0.4534270000000 1.0
C      1  0.4325070000000  0.4878690000000  0.5773960000000 1.0
C      1  0.3986030000000  0.5226420000000  0.4330220000000 1.0
C      1  0.5185570000000  0.5684070000000  0.5694630000000 1.0
C      1  0.5196170000000  0.5154630000000  0.4706750000000 1.0
C      1  0.4453560000000  0.5293640000000  0.4820760000000 1.0
C      1  0.4253850000000  0.4585200000000  0.4275650000000 1.0
C      1  0.5011580000000  0.4125800000000  0.5240690000000 1.0
C      1  0.5716670000000  0.4284120000000  0.5773820000000 1.0
C      1  0.4926400000000  0.5277290000000  0.5405380000000 1.0
C      1  0.4573290000000  0.5578750000000  0.5236930000000 1.0
C      1  0.5053880000000  0.5683880000000  0.5285210000000 1.0
C      1  0.5131270000000  0.4931020000000  0.4518450000000 1.0
C      1  0.5983090000000  0.5458430000000  0.4655670000000 1.0
C      1  0.4109790000000  0.5059840000000  0.4561630000000 1.0
C      1  0.5732990000000  0.5103420000000  0.6146570000000 1.0
C      1  0.4443270000000  0.5533680000000  0.4994730000000 1.0
C      1  0.5700210000000  0.4059520000000  0.5277660000000 1.0
C      1  0.5454220000000  0.5153450000000  0.6187850000000 1.0
C      1  0.5605870000000  0.5340950000000  0.5751070000000 1.0
C      1  0.4766510000000  0.4334370000000  0.4342560000000 1.0
C      1  0.6012710000000  0.5633950000000  0.4437330000000 1.0
C      1  0.4999070000000  0.4861540000000  0.5199660000000 1.0
C      1  0.4787940000000  0.4512620000000  0.5883440000000 1.0
C      1  0.4806590000000  0.4648530000000  0.3859130000000 1.0
C      1  0.5576990000000  0.4581410000000  0.4267010000000 1.0
C      1  0.5329670000000  0.4520910000000  0.5607780000000 1.0
C      1  0.5954000000000  0.5003620000000  0.4831740000000 1.0
C      1  0.5790000000000  0.5115870000000  0.5346940000000 1.0
C      1  0.4601560000000  0.6089630000000  0.4843930000000 1.0
C      1  0.4896010000000  0.4380030000000  0.5320330000000 1.0
C      1  0.5435080000000  0.4309850000000  0.5787520000000 1.0
C      1  0.4094920000000  0.4346470000000  0.4683300000000 1.0
C      1  0.4445210000000  0.5131390000000  0.5377290000000 1.0
END
