TITL C-950536-5891-728 2.29761960626972e-06 125000 -541.496176921905 0 0 89 (C1) n - 1
REM
REM in /home/bkarasulu/work/CARBON/AIRSS/Generating-Clusters/EDIP-Nigel-Params/with-SteepDescent/Only-C1/SD-CG/HFTN-CG
REM
REM
REM
REM
REM
REM ./C.cell (11c1c37f851c82e70ff6c80c92926a4b)
REM
REM compiler GCC version 9.2.1 20190827 (Red Hat 9.2.1-1)
REM options -cpp -mtune=generic -march=x86-64 -g -O0 -fpre-include=/usr/include/finclude/math-vector-fortran.h
REM seed -1436292982 123607791 1195911438 1353228860 1621512402 -1130039027 1901302006 -345297283 -2114494279 -1176944916 1078746422 2057218220 2071545585 -389087505 383545133 -1160542967 -778461445 -228315861 -471908435 1523842476 -2141971496 636940814 -1607466489 1705260108 -785072630 -1406916423 714385110 272469111 -17912667 -1753193683 108628184 1440828386 -1746651901
REM
CELL 1.54180   50.00000   50.00000   50.00000   90.00000   90.00000   90.00000
LATT -1
SFAC C  
C      1  0.5044520000000  0.4796730000000  0.5607280000000 1.0
C      1  0.5721080000000  0.5128540000000  0.4698760000000 1.0
C      1  0.5657120000000  0.4636880000000  0.5409510000000 1.0
C      1  0.5643950000000  0.4874110000000  0.4597020000000 1.0
C      1  0.5523320000000  0.5413470000000  0.5432600000000 1.0
C      1  0.4784880000000  0.4409750000000  0.5721110000000 1.0
C      1  0.5712110000000  0.4656510000000  0.5104890000000 1.0
C      1  0.5359520000000  0.4329380000000  0.4966740000000 1.0
C      1  0.5041480000000  0.5449270000000  0.4289240000000 1.0
C      1  0.4280620000000  0.4474800000000  0.4759430000000 1.0
C      1  0.4802250000000  0.4210870000000  0.5256470000000 1.0
C      1  0.5987890000000  0.4756120000000  0.5062110000000 1.0
C      1  0.4440690000000  0.4480900000000  0.4516650000000 1.0
C      1  0.4502890000000  0.5035240000000  0.4186750000000 1.0
C      1  0.4613830000000  0.4814110000000  0.5155940000000 1.0
C      1  0.5381310000000  0.5763850000000  0.5363790000000 1.0
C      1  0.4873790000000  0.4326450000000  0.4753850000000 1.0
C      1  0.5247630000000  0.4854640000000  0.5141820000000 1.0
C      1  0.4845170000000  0.5505220000000  0.4558470000000 1.0
C      1  0.4630990000000  0.4994590000000  0.5687940000000 1.0
C      1  0.5259120000000  0.5800400000000  0.5105480000000 1.0
C      1  0.5157710000000  0.4689500000000  0.4347000000000 1.0
C      1  0.4234150000000  0.4641670000000  0.4991640000000 1.0
C      1  0.5662840000000  0.4924610000000  0.5515790000000 1.0
C      1  0.5165150000000  0.4365530000000  0.4750280000000 1.0
C      1  0.4934110000000  0.5048030000000  0.4462270000000 1.0
C      1  0.5063500000000  0.4131700000000  0.5304470000000 1.0
C      1  0.4816790000000  0.4932920000000  0.5468280000000 1.0
C      1  0.4444360000000  0.5353260000000  0.4802800000000 1.0
C      1  0.5954610000000  0.5027900000000  0.5140970000000 1.0
C      1  0.5302090000000  0.4282730000000  0.5257330000000 1.0
C      1  0.4814730000000  0.5609720000000  0.5263270000000 1.0
C      1  0.4528060000000  0.5348240000000  0.5571420000000 1.0
C      1  0.4680430000000  0.4826030000000  0.5918610000000 1.0
C      1  0.5527350000000  0.4872250000000  0.5024420000000 1.0
C      1  0.4415100000000  0.4765880000000  0.5375730000000 1.0
C      1  0.5567040000000  0.4598390000000  0.4630000000000 1.0
C      1  0.4742760000000  0.4246470000000  0.4986680000000 1.0
C      1  0.4722290000000  0.4414590000000  0.5443420000000 1.0
C      1  0.4604660000000  0.4652390000000  0.4885290000000 1.0
C      1  0.5299500000000  0.4516810000000  0.4539370000000 1.0
C      1  0.4356970000000  0.5111180000000  0.4646710000000 1.0
C      1  0.4228740000000  0.5125800000000  0.5196880000000 1.0
C      1  0.4864920000000  0.4597520000000  0.4292100000000 1.0
C      1  0.4540710000000  0.5543140000000  0.4584440000000 1.0
C      1  0.4988900000000  0.5699340000000  0.5039780000000 1.0
C      1  0.5432440000000  0.5797470000000  0.4861050000000 1.0
C      1  0.5238680000000  0.5047020000000  0.4584880000000 1.0
C      1  0.5231470000000  0.5626020000000  0.5558640000000 1.0
C      1  0.5897340000000  0.5048380000000  0.5415230000000 1.0
C      1  0.5412300000000  0.5120320000000  0.5519260000000 1.0
C      1  0.5264810000000  0.5341390000000  0.4748580000000 1.0
C      1  0.4547060000000  0.5489420000000  0.5307020000000 1.0
C      1  0.4844450000000  0.5231110000000  0.4664940000000 1.0
C      1  0.5178760000000  0.4641740000000  0.5365820000000 1.0
C      1  0.4345720000000  0.5210280000000  0.4362870000000 1.0
C      1  0.5584520000000  0.5385840000000  0.5104690000000 1.0
C      1  0.4948730000000  0.5582530000000  0.5519300000000 1.0
C      1  0.4310220000000  0.5035140000000  0.5475960000000 1.0
C      1  0.4149630000000  0.4920270000000  0.4990770000000 1.0
C      1  0.4996510000000  0.5215150000000  0.5799700000000 1.0
C      1  0.4406250000000  0.5485050000000  0.4342570000000 1.0
C      1  0.5342660000000  0.5027360000000  0.4296720000000 1.0
C      1  0.5253750000000  0.5715580000000  0.4649470000000 1.0
C      1  0.4916780000000  0.5150430000000  0.4941160000000 1.0
C      1  0.4364170000000  0.5375670000000  0.5096860000000 1.0
C      1  0.5333580000000  0.5339590000000  0.4324760000000 1.0
C      1  0.4592810000000  0.4790070000000  0.4351120000000 1.0
C      1  0.5566780000000  0.5383330000000  0.4632970000000 1.0
C      1  0.4807020000000  0.5399920000000  0.5697760000000 1.0
C      1  0.5411790000000  0.4487510000000  0.5473820000000 1.0
C      1  0.4955890000000  0.4745960000000  0.4687470000000 1.0
C      1  0.4579820000000  0.4878710000000  0.4650110000000 1.0
C      1  0.5614380000000  0.4458030000000  0.4895430000000 1.0
C      1  0.5198080000000  0.5032960000000  0.5721060000000 1.0
C      1  0.5307790000000  0.5318350000000  0.5055080000000 1.0
C      1  0.5033250000000  0.4879600000000  0.4937690000000 1.0
C      1  0.4887490000000  0.4655160000000  0.5825790000000 1.0
C      1  0.4096580000000  0.5021650000000  0.4735780000000 1.0
C      1  0.4731160000000  0.4409850000000  0.4509290000000 1.0
C      1  0.4470300000000  0.4526230000000  0.5524030000000 1.0
C      1  0.4988990000000  0.5684890000000  0.4744500000000 1.0
C      1  0.4698520000000  0.5181310000000  0.4048350000000 1.0
C      1  0.4916890000000  0.5189990000000  0.5332430000000 1.0
C      1  0.4940940000000  0.5187540000000  0.4189130000000 1.0
C      1  0.5221760000000  0.5124270000000  0.5266540000000 1.0
C      1  0.5704640000000  0.5115610000000  0.4997290000000 1.0
C      1  0.4662700000000  0.5119560000000  0.5108440000000 1.0
C      1  0.5640980000000  0.5586340000000  0.4870880000000 1.0
END
