TITL C-951348-1603-144 -2.17406991541736e-06 125000 -278.662054846434 0 0 46 (C1) n - 1
REM
REM in /home/bkarasulu/work/CARBON/AIRSS/Generating-Clusters/EDIP-Nigel-Params/with-SteepDescent/Only-C1/SD-CG/HFTN-CG
REM
REM
REM
REM
REM
REM ./C.cell (11c1c37f851c82e70ff6c80c92926a4b)
REM
REM compiler GCC version 9.2.1 20190827 (Red Hat 9.2.1-1)
REM options -cpp -mtune=generic -march=x86-64 -g -O0 -fpre-include=/usr/include/finclude/math-vector-fortran.h
REM seed -1272826981 -2073347866 -2109214988 -1100753667 1852445764 -493881298 -1421996822 -1310462294 1330075329 1217871268 2062593452 366968686 1727097710 -1923760093 1338978255 1293095815 947840864 503570043 -213274058 966018640 2029373402 506602158 -1407554694 -29088843 -1307261198 718490638 -1914124867 184787944 2024207447 1882074276 -1666431271 -165723564 1609245338
REM
CELL 1.54180   50.00000   50.00000   50.00000   90.00000   90.00000   90.00000
LATT -1
SFAC C  
C      1  0.4879000000000  0.4524140000000  0.5488970000000 1.0
C      1  0.5137090000000  0.5041830000000  0.5094380000000 1.0
C      1  0.5048370000000  0.5115750000000  0.5369960000000 1.0
C      1  0.5354610000000  0.4443580000000  0.5359350000000 1.0
C      1  0.4766440000000  0.5050030000000  0.5416610000000 1.0
C      1  0.5256430000000  0.4422370000000  0.4875720000000 1.0
C      1  0.5098370000000  0.5652290000000  0.5082540000000 1.0
C      1  0.4573320000000  0.5548460000000  0.4581260000000 1.0
C      1  0.5500570000000  0.5114400000000  0.4791440000000 1.0
C      1  0.4529080000000  0.5218230000000  0.5398900000000 1.0
C      1  0.4386530000000  0.4961770000000  0.5399960000000 1.0
C      1  0.4474160000000  0.5374260000000  0.5168700000000 1.0
C      1  0.5016640000000  0.5155510000000  0.4855750000000 1.0
C      1  0.5321830000000  0.5582140000000  0.4907230000000 1.0
C      1  0.4479970000000  0.4885710000000  0.4640590000000 1.0
C      1  0.4422070000000  0.5327190000000  0.4657320000000 1.0
C      1  0.5144940000000  0.4615400000000  0.5480700000000 1.0
C      1  0.4969050000000  0.4999980000000  0.4575150000000 1.0
C      1  0.4499000000000  0.4539360000000  0.5200470000000 1.0
C      1  0.5689730000000  0.4593820000000  0.5022430000000 1.0
C      1  0.5448090000000  0.4850890000000  0.4666850000000 1.0
C      1  0.4721790000000  0.4398930000000  0.5293360000000 1.0
C      1  0.4473950000000  0.4953450000000  0.4928420000000 1.0
C      1  0.5236900000000  0.4898910000000  0.5502360000000 1.0
C      1  0.5249690000000  0.5336150000000  0.4739100000000 1.0
C      1  0.4422680000000  0.5233930000000  0.4932090000000 1.0
C      1  0.5264260000000  0.4273940000000  0.5133190000000 1.0
C      1  0.5213690000000  0.4862440000000  0.4515840000000 1.0
C      1  0.4402480000000  0.5109840000000  0.4481570000000 1.0
C      1  0.5502580000000  0.4901210000000  0.5355000000000 1.0
C      1  0.5586650000000  0.4622940000000  0.5287440000000 1.0
C      1  0.4937890000000  0.5212110000000  0.4373150000000 1.0
C      1  0.5337620000000  0.5435560000000  0.5452310000000 1.0
C      1  0.5047620000000  0.5433810000000  0.4514250000000 1.0
C      1  0.5440090000000  0.5091230000000  0.5108640000000 1.0
C      1  0.5459830000000  0.4633380000000  0.4863500000000 1.0
C      1  0.5562960000000  0.5559540000000  0.5053690000000 1.0
C      1  0.4403260000000  0.4797510000000  0.5163910000000 1.0
C      1  0.5094310000000  0.5495270000000  0.5331110000000 1.0
C      1  0.4885620000000  0.5681160000000  0.4905930000000 1.0
C      1  0.4745070000000  0.4787830000000  0.4555900000000 1.0
C      1  0.4815180000000  0.4534090000000  0.4648230000000 1.0
C      1  0.5506190000000  0.5356990000000  0.5239520000000 1.0
C      1  0.4969140000000  0.4469530000000  0.4868140000000 1.0
C      1  0.4839640000000  0.5610940000000  0.4638270000000 1.0
C      1  0.4885650000000  0.4292200000000  0.5080810000000 1.0
END
