TITL C-950530-3293-713 8.16259710428053e-07 125000 -1157.51032159564 0 0 184 (C1) n - 1
REM
REM in /home/bkarasulu/work/CARBON/AIRSS/Generating-Clusters/EDIP-Nigel-Params/with-SteepDescent/Only-C1/SD-CG/HFTN-CG
REM
REM
REM
REM
REM
REM ./C.cell (11c1c37f851c82e70ff6c80c92926a4b)
REM
REM compiler GCC version 9.2.1 20190827 (Red Hat 9.2.1-1)
REM options -cpp -mtune=generic -march=x86-64 -g -O0 -fpre-include=/usr/include/finclude/math-vector-fortran.h
REM seed 236523382 -1779162242 2024309629 -442722924 1896208090 -1614701938 445961534 -1590810180 -17508496 -1784462142 -905623729 -1627593757 208937697 548693490 -683048853 230146609 -1440640641 470290736 -1611705214 1617982995 -1761383606 1313267957 -1535628846 1926361107 -510358256 1130251403 -799363513 1075257892 -656933029 -1422564987 -433628713 290543816 1379399610
REM
CELL 1.54180   50.00000   50.00000   50.00000   90.00000   90.00000   90.00000
LATT -1
SFAC C  
C      1  0.5768220000000  0.4783650000000  0.5201150000000 1.0
C      1  0.4040410000000  0.5176950000000  0.4974040000000 1.0
C      1  0.5774640000000  0.5475660000000  0.4596740000000 1.0
C      1  0.4548220000000  0.5877910000000  0.5550310000000 1.0
C      1  0.5719810000000  0.4675860000000  0.4291570000000 1.0
C      1  0.4523830000000  0.3856890000000  0.5202970000000 1.0
C      1  0.4115400000000  0.4385520000000  0.5471690000000 1.0
C      1  0.4593790000000  0.4783220000000  0.5927610000000 1.0
C      1  0.4207110000000  0.5380000000000  0.4247900000000 1.0
C      1  0.4779390000000  0.5340470000000  0.5522140000000 1.0
C      1  0.5203330000000  0.4029050000000  0.4757000000000 1.0
C      1  0.5164120000000  0.5730670000000  0.5091630000000 1.0
C      1  0.5268240000000  0.5349300000000  0.5815510000000 1.0
C      1  0.4772370000000  0.4655410000000  0.5138360000000 1.0
C      1  0.4216640000000  0.5640690000000  0.4673200000000 1.0
C      1  0.5272300000000  0.5163300000000  0.3868790000000 1.0
C      1  0.4731640000000  0.4598950000000  0.4309220000000 1.0
C      1  0.5144730000000  0.4987490000000  0.4257160000000 1.0
C      1  0.5013310000000  0.3788220000000  0.4992730000000 1.0
C      1  0.5343390000000  0.4603770000000  0.5899200000000 1.0
C      1  0.3941850000000  0.4692710000000  0.4877530000000 1.0
C      1  0.4367210000000  0.4833960000000  0.5078650000000 1.0
C      1  0.5377940000000  0.4839660000000  0.4675540000000 1.0
C      1  0.4112040000000  0.5404110000000  0.4533810000000 1.0
C      1  0.5597180000000  0.4595190000000  0.5745630000000 1.0
C      1  0.4589980000000  0.4240440000000  0.4236170000000 1.0
C      1  0.4730510000000  0.6043280000000  0.5383800000000 1.0
C      1  0.4567330000000  0.6012990000000  0.4721220000000 1.0
C      1  0.4963620000000  0.5530530000000  0.3965180000000 1.0
C      1  0.5650590000000  0.5703470000000  0.5338560000000 1.0
C      1  0.5633150000000  0.5926760000000  0.5134250000000 1.0
C      1  0.4996530000000  0.4417670000000  0.4764210000000 1.0
C      1  0.5915520000000  0.4815360000000  0.5470270000000 1.0
C      1  0.4862940000000  0.4199180000000  0.5211410000000 1.0
C      1  0.5589770000000  0.5002190000000  0.5115460000000 1.0
C      1  0.5314390000000  0.4617000000000  0.4858970000000 1.0
C      1  0.5161740000000  0.4909690000000  0.5048510000000 1.0
C      1  0.4033810000000  0.4649120000000  0.5569160000000 1.0
C      1  0.5343060000000  0.4293220000000  0.4341570000000 1.0
C      1  0.5556370000000  0.5922170000000  0.4569480000000 1.0
C      1  0.5541630000000  0.4480090000000  0.5266980000000 1.0
C      1  0.5547760000000  0.5324310000000  0.4737260000000 1.0
C      1  0.5101620000000  0.6045890000000  0.4686570000000 1.0
C      1  0.5121220000000  0.4935740000000  0.4549190000000 1.0
C      1  0.4803750000000  0.5218530000000  0.5938060000000 1.0
C      1  0.5372200000000  0.5101230000000  0.5894320000000 1.0
C      1  0.4026840000000  0.4525200000000  0.4543190000000 1.0
C      1  0.4318280000000  0.4012610000000  0.5059330000000 1.0
C      1  0.5235830000000  0.5443680000000  0.3973030000000 1.0
C      1  0.4870960000000  0.4583770000000  0.5562960000000 1.0
C      1  0.4927850000000  0.4953530000000  0.6028890000000 1.0
C      1  0.4400870000000  0.5835930000000  0.4544010000000 1.0
C      1  0.5105960000000  0.4391760000000  0.5556150000000 1.0
C      1  0.6137870000000  0.4439710000000  0.5287340000000 1.0
C      1  0.5391540000000  0.5602580000000  0.4147670000000 1.0
C      1  0.4186530000000  0.4450760000000  0.5200920000000 1.0
C      1  0.5843830000000  0.5806620000000  0.4949430000000 1.0
C      1  0.4202460000000  0.4588460000000  0.4313770000000 1.0
C      1  0.4394210000000  0.5002590000000  0.5938090000000 1.0
C      1  0.5320000000000  0.5951350000000  0.5636960000000 1.0
C      1  0.4793490000000  0.5352380000000  0.4647760000000 1.0
C      1  0.5183100000000  0.4870730000000  0.5865560000000 1.0
C      1  0.4323110000000  0.5357190000000  0.5576900000000 1.0
C      1  0.5641220000000  0.4949930000000  0.4235500000000 1.0
C      1  0.4746530000000  0.5114780000000  0.5118630000000 1.0
C      1  0.4512980000000  0.5259680000000  0.5859690000000 1.0
C      1  0.5857490000000  0.5294250000000  0.5471660000000 1.0
C      1  0.5926000000000  0.5579710000000  0.5375440000000 1.0
C      1  0.5571700000000  0.4195340000000  0.5364620000000 1.0
C      1  0.4292830000000  0.5823130000000  0.5409040000000 1.0
C      1  0.5146230000000  0.5232510000000  0.4977450000000 1.0
C      1  0.6045140000000  0.5323870000000  0.4975820000000 1.0
C      1  0.5502730000000  0.5468950000000  0.5212060000000 1.0
C      1  0.5286650000000  0.5922720000000  0.4502280000000 1.0
C      1  0.6004540000000  0.4817510000000  0.4998890000000 1.0
C      1  0.5561670000000  0.4475290000000  0.4973560000000 1.0
C      1  0.5657080000000  0.4126620000000  0.4650390000000 1.0
C      1  0.4909460000000  0.4950360000000  0.4073610000000 1.0
C      1  0.4359670000000  0.3998930000000  0.4773210000000 1.0
C      1  0.4641690000000  0.5232350000000  0.4408470000000 1.0
C      1  0.4978980000000  0.4447370000000  0.5081530000000 1.0
C      1  0.4527220000000  0.4711390000000  0.5316610000000 1.0
C      1  0.5769380000000  0.4386980000000  0.5623730000000 1.0
C      1  0.4906890000000  0.4496960000000  0.6205880000000 1.0
C      1  0.5767210000000  0.5767510000000  0.4667450000000 1.0
C      1  0.4625920000000  0.5001170000000  0.4212580000000 1.0
C      1  0.5842990000000  0.5152150000000  0.4299440000000 1.0
C      1  0.4442470000000  0.6054490000000  0.4988250000000 1.0
C      1  0.4435670000000  0.5068790000000  0.3975050000000 1.0
C      1  0.5361420000000  0.5456930000000  0.4948090000000 1.0
C      1  0.5004800000000  0.5421960000000  0.5889990000000 1.0
C      1  0.5641140000000  0.5083290000000  0.5798120000000 1.0
C      1  0.4608880000000  0.4300770000000  0.5347510000000 1.0
C      1  0.4620010000000  0.5593510000000  0.5091660000000 1.0
C      1  0.4724610000000  0.4284300000000  0.4654220000000 1.0
C      1  0.4772490000000  0.3956990000000  0.5038570000000 1.0
C      1  0.4722730000000  0.4850810000000  0.4740320000000 1.0
C      1  0.5196870000000  0.5753990000000  0.4287900000000 1.0
C      1  0.5378580000000  0.4940100000000  0.4075220000000 1.0
C      1  0.5545320000000  0.5797070000000  0.5587990000000 1.0
C      1  0.4855820000000  0.4884010000000  0.4995120000000 1.0
C      1  0.4139580000000  0.5669600000000  0.4950570000000 1.0
C      1  0.5319160000000  0.4042740000000  0.5290940000000 1.0
C      1  0.4071100000000  0.4893700000000  0.5082740000000 1.0
C      1  0.5853370000000  0.4636850000000  0.4545330000000 1.0
C      1  0.4334450000000  0.4187180000000  0.5599710000000 1.0
C      1  0.4458260000000  0.4460860000000  0.4352480000000 1.0
C      1  0.5256570000000  0.6143030000000  0.5404140000000 1.0
C      1  0.4494070000000  0.3956890000000  0.5474740000000 1.0
C      1  0.4012030000000  0.5445380000000  0.5090750000000 1.0
C      1  0.4850390000000  0.5880300000000  0.4737260000000 1.0
C      1  0.5213370000000  0.4869010000000  0.5354720000000 1.0
C      1  0.5256970000000  0.4560630000000  0.5328930000000 1.0
C      1  0.4899520000000  0.4688620000000  0.4576310000000 1.0
C      1  0.4904640000000  0.5670140000000  0.5790880000000 1.0
C      1  0.4730160000000  0.5030670000000  0.5423390000000 1.0
C      1  0.4978630000000  0.5092910000000  0.3809260000000 1.0
C      1  0.5050670000000  0.5806110000000  0.5573310000000 1.0
C      1  0.4738680000000  0.4190700000000  0.5891740000000 1.0
C      1  0.4180450000000  0.5096360000000  0.4135660000000 1.0
C      1  0.4926530000000  0.5750360000000  0.4163250000000 1.0
C      1  0.5236400000000  0.6162360000000  0.4903240000000 1.0
C      1  0.4651430000000  0.5338010000000  0.4931600000000 1.0
C      1  0.5588820000000  0.5024350000000  0.4804100000000 1.0
C      1  0.4233870000000  0.4906440000000  0.4623260000000 1.0
C      1  0.5721720000000  0.4840410000000  0.5687100000000 1.0
C      1  0.4543370000000  0.5422830000000  0.5356190000000 1.0
C      1  0.5063150000000  0.4132050000000  0.5416090000000 1.0
C      1  0.6033120000000  0.5343790000000  0.4687020000000 1.0
C      1  0.4520050000000  0.4324750000000  0.5780260000000 1.0
C      1  0.4137310000000  0.5594200000000  0.5532260000000 1.0
C      1  0.4606120000000  0.6182990000000  0.5175100000000 1.0
C      1  0.6016210000000  0.5591520000000  0.5095550000000 1.0
C      1  0.5112390000000  0.5620060000000  0.5352390000000 1.0
C      1  0.5293160000000  0.5174110000000  0.5472900000000 1.0
C      1  0.4004430000000  0.4884140000000  0.5382690000000 1.0
C      1  0.5567420000000  0.5216870000000  0.5326750000000 1.0
C      1  0.4968600000000  0.4861280000000  0.5535040000000 1.0
C      1  0.4136070000000  0.5167130000000  0.4706640000000 1.0
C      1  0.5092600000000  0.4284210000000  0.4204260000000 1.0
C      1  0.5765680000000  0.5426450000000  0.4306160000000 1.0
C      1  0.5052420000000  0.5334950000000  0.5339910000000 1.0
C      1  0.4444970000000  0.4756930000000  0.4800940000000 1.0
C      1  0.4846910000000  0.5649790000000  0.4533260000000 1.0
C      1  0.4964390000000  0.4295240000000  0.6023320000000 1.0
C      1  0.6145210000000  0.4545730000000  0.5028690000000 1.0
C      1  0.5047170000000  0.5201350000000  0.4691350000000 1.0
C      1  0.4002350000000  0.4427980000000  0.4974110000000 1.0
C      1  0.4592790000000  0.4589360000000  0.5676520000000 1.0
C      1  0.4160360000000  0.4937190000000  0.5790810000000 1.0
C      1  0.4412210000000  0.4297330000000  0.5110790000000 1.0
C      1  0.5195900000000  0.4355260000000  0.5843940000000 1.0
C      1  0.5088670000000  0.4494490000000  0.3998480000000 1.0
C      1  0.5519830000000  0.4481170000000  0.4188880000000 1.0
C      1  0.4877050000000  0.5757080000000  0.5001730000000 1.0
C      1  0.4638890000000  0.5653650000000  0.5711510000000 1.0
C      1  0.4359410000000  0.5792000000000  0.5105460000000 1.0
C      1  0.5355760000000  0.4637780000000  0.3993910000000 1.0
C      1  0.5279290000000  0.3907790000000  0.5017380000000 1.0
C      1  0.5323060000000  0.6002480000000  0.5126490000000 1.0
C      1  0.4596600000000  0.5707890000000  0.4351290000000 1.0
C      1  0.4505250000000  0.5439290000000  0.4252080000000 1.0
C      1  0.4652490000000  0.4024260000000  0.4770170000000 1.0
C      1  0.4853960000000  0.4663450000000  0.4036960000000 1.0
C      1  0.4850530000000  0.4174940000000  0.4313350000000 1.0
C      1  0.4529510000000  0.5296390000000  0.3835070000000 1.0
C      1  0.6062760000000  0.4450020000000  0.4562070000000 1.0
C      1  0.4809170000000  0.5338260000000  0.3806150000000 1.0
C      1  0.5874760000000  0.4888670000000  0.4713120000000 1.0
C      1  0.4969220000000  0.6171030000000  0.5474550000000 1.0
C      1  0.6133790000000  0.5074660000000  0.5115330000000 1.0
C      1  0.6008350000000  0.4530010000000  0.5514010000000 1.0
C      1  0.4159960000000  0.4329070000000  0.4731440000000 1.0
C      1  0.6043520000000  0.4351840000000  0.4826730000000 1.0
C      1  0.3936740000000  0.5504560000000  0.5355420000000 1.0
C      1  0.4770990000000  0.4736450000000  0.6177150000000 1.0
C      1  0.4145950000000  0.5093390000000  0.5548320000000 1.0
C      1  0.4457920000000  0.4439890000000  0.4795280000000 1.0
C      1  0.5755440000000  0.4262250000000  0.4873920000000 1.0
C      1  0.5399900000000  0.4106420000000  0.4556710000000 1.0
C      1  0.6065940000000  0.5078020000000  0.5406440000000 1.0
C      1  0.6015370000000  0.5090550000000  0.4539260000000 1.0
C      1  0.4279770000000  0.4872130000000  0.4337870000000 1.0
C      1  0.5804660000000  0.5306280000000  0.5756860000000 1.0
END
