TITL C-950524-1808-60 -1.7725352225829e-07 125000 -651.401679342822 0 0 107 (C1) n - 1
REM
REM in /home/bkarasulu/work/CARBON/AIRSS/Generating-Clusters/EDIP-Nigel-Params/with-SteepDescent/Only-C1/SD-CG/HFTN-CG
REM
REM
REM
REM
REM
REM ./C.cell (11c1c37f851c82e70ff6c80c92926a4b)
REM
REM compiler GCC version 9.2.1 20190827 (Red Hat 9.2.1-1)
REM options -cpp -mtune=generic -march=x86-64 -g -O0 -fpre-include=/usr/include/finclude/math-vector-fortran.h
REM seed -652144590 -578424248 79206588 563924078 -1659876632 1121399782 542822204 -1697883711 1477352919 -2017103838 1277627904 -73146615 1205673202 75348185 1783615359 2058291589 556646237 868293624 -1317963615 404360921 487520763 379245932 1423601889 -280754928 -156581879 -1471372225 -1119451382 -488763101 1485614325 1563302024 113186089 1753962046 343436102
REM
CELL 1.54180   50.00000   50.00000   50.00000   90.00000   90.00000   90.00000
LATT -1
SFAC C  
C      1  0.4598580000000  0.5442980000000  0.4502740000000 1.0
C      1  0.4802700000000  0.5219100000000  0.4131060000000 1.0
C      1  0.4344600000000  0.5473840000000  0.5277780000000 1.0
C      1  0.4970260000000  0.4485560000000  0.5553790000000 1.0
C      1  0.4953510000000  0.4532210000000  0.4036810000000 1.0
C      1  0.4795510000000  0.4299560000000  0.5031500000000 1.0
C      1  0.4783740000000  0.5307420000000  0.4727740000000 1.0
C      1  0.5214910000000  0.4135230000000  0.5241450000000 1.0
C      1  0.5867940000000  0.4945200000000  0.4904260000000 1.0
C      1  0.4589250000000  0.5515630000000  0.5957980000000 1.0
C      1  0.5738880000000  0.4572200000000  0.4638540000000 1.0
C      1  0.4592700000000  0.5052460000000  0.4268940000000 1.0
C      1  0.5440430000000  0.5621850000000  0.4476250000000 1.0
C      1  0.5333350000000  0.5414590000000  0.4665200000000 1.0
C      1  0.5423050000000  0.5653110000000  0.5463190000000 1.0
C      1  0.5854480000000  0.5411330000000  0.4982830000000 1.0
C      1  0.5354300000000  0.5219630000000  0.4141790000000 1.0
C      1  0.4585190000000  0.4720940000000  0.5461930000000 1.0
C      1  0.4133390000000  0.4697940000000  0.5238290000000 1.0
C      1  0.4657910000000  0.5840240000000  0.5014300000000 1.0
C      1  0.5362590000000  0.4625130000000  0.5017360000000 1.0
C      1  0.4359770000000  0.4688700000000  0.4360150000000 1.0
C      1  0.5413060000000  0.4944090000000  0.4643640000000 1.0
C      1  0.4290740000000  0.4786980000000  0.5473890000000 1.0
C      1  0.5025980000000  0.5551090000000  0.5167190000000 1.0
C      1  0.4986100000000  0.4769100000000  0.4594650000000 1.0
C      1  0.5413590000000  0.5482020000000  0.4233550000000 1.0
C      1  0.4181700000000  0.5256360000000  0.4873370000000 1.0
C      1  0.4532130000000  0.4811430000000  0.4979680000000 1.0
C      1  0.4566450000000  0.4346690000000  0.5221150000000 1.0
C      1  0.5036120000000  0.4890900000000  0.4879740000000 1.0
C      1  0.5110400000000  0.4331530000000  0.5035600000000 1.0
C      1  0.5617830000000  0.4219680000000  0.4982340000000 1.0
C      1  0.5254770000000  0.5664280000000  0.5009980000000 1.0
C      1  0.4552030000000  0.5719840000000  0.4597690000000 1.0
C      1  0.5058300000000  0.5318610000000  0.4565200000000 1.0
C      1  0.5765090000000  0.4479390000000  0.4919760000000 1.0
C      1  0.5550090000000  0.4990780000000  0.4180930000000 1.0
C      1  0.5228170000000  0.4930890000000  0.5734590000000 1.0
C      1  0.5078360000000  0.5125030000000  0.4127780000000 1.0
C      1  0.4391880000000  0.5233820000000  0.4412390000000 1.0
C      1  0.4729060000000  0.4453680000000  0.4159510000000 1.0
C      1  0.5549350000000  0.5199420000000  0.4663130000000 1.0
C      1  0.4169510000000  0.5252960000000  0.5358860000000 1.0
C      1  0.4590320000000  0.5003580000000  0.4749490000000 1.0
C      1  0.4951180000000  0.5665440000000  0.5653540000000 1.0
C      1  0.4826750000000  0.4811890000000  0.5922230000000 1.0
C      1  0.5088770000000  0.5185560000000  0.5809420000000 1.0
C      1  0.5376560000000  0.4474960000000  0.4712990000000 1.0
C      1  0.5844050000000  0.4845860000000  0.4609260000000 1.0
C      1  0.4672070000000  0.5580230000000  0.5690280000000 1.0
C      1  0.5742140000000  0.4660680000000  0.5740740000000 1.0
C      1  0.4537780000000  0.5157990000000  0.5666220000000 1.0
C      1  0.5106120000000  0.4486620000000  0.4570010000000 1.0
C      1  0.4588060000000  0.5232910000000  0.5946750000000 1.0
C      1  0.4929950000000  0.5769190000000  0.4598270000000 1.0
C      1  0.4797180000000  0.5489270000000  0.4975130000000 1.0
C      1  0.5760790000000  0.5033730000000  0.4388400000000 1.0
C      1  0.5665360000000  0.5180490000000  0.4935400000000 1.0
C      1  0.4748070000000  0.4198180000000  0.4763940000000 1.0
C      1  0.4980480000000  0.4832620000000  0.5174780000000 1.0
C      1  0.5507680000000  0.5393360000000  0.5523850000000 1.0
C      1  0.5700580000000  0.4874160000000  0.5556020000000 1.0
C      1  0.5846350000000  0.4713080000000  0.5367860000000 1.0
C      1  0.4265670000000  0.5071950000000  0.5574880000000 1.0
C      1  0.4714670000000  0.4704840000000  0.5174530000000 1.0
C      1  0.5195650000000  0.4928540000000  0.4441190000000 1.0
C      1  0.4078120000000  0.5120080000000  0.5115100000000 1.0
C      1  0.4532890000000  0.4461500000000  0.4355930000000 1.0
C      1  0.4321690000000  0.4584400000000  0.5034110000000 1.0
C      1  0.4902100000000  0.5072210000000  0.5333000000000 1.0
C      1  0.5321110000000  0.4900310000000  0.4906790000000 1.0
C      1  0.4684480000000  0.4846090000000  0.4500270000000 1.0
C      1  0.4950840000000  0.5768040000000  0.5375650000000 1.0
C      1  0.4200130000000  0.4791060000000  0.4578630000000 1.0
C      1  0.5155930000000  0.4257810000000  0.5518070000000 1.0
C      1  0.5208610000000  0.5783600000000  0.4727730000000 1.0
C      1  0.4675500000000  0.4428610000000  0.5515280000000 1.0
C      1  0.5099400000000  0.5290600000000  0.5324000000000 1.0
C      1  0.4770050000000  0.5483720000000  0.4256800000000 1.0
C      1  0.5376640000000  0.5194770000000  0.5365310000000 1.0
C      1  0.5737870000000  0.5631430000000  0.5109970000000 1.0
C      1  0.5357570000000  0.4760320000000  0.4241790000000 1.0
C      1  0.4352610000000  0.5475630000000  0.4984960000000 1.0
C      1  0.5483900000000  0.5725010000000  0.5186560000000 1.0
C      1  0.4857000000000  0.5099940000000  0.5984950000000 1.0
C      1  0.5407200000000  0.4181080000000  0.4777830000000 1.0
C      1  0.5550130000000  0.4465440000000  0.5744650000000 1.0
C      1  0.4304940000000  0.5077110000000  0.4653630000000 1.0
C      1  0.4674940000000  0.5849030000000  0.5304310000000 1.0
C      1  0.4567100000000  0.4312970000000  0.4587340000000 1.0
C      1  0.4499300000000  0.5660430000000  0.5456450000000 1.0
C      1  0.5031390000000  0.4210100000000  0.4672550000000 1.0
C      1  0.5786410000000  0.4716980000000  0.5089220000000 1.0
C      1  0.4183570000000  0.4594490000000  0.4780730000000 1.0
C      1  0.3937370000000  0.4876560000000  0.5137850000000 1.0
C      1  0.5011900000000  0.5567520000000  0.4395870000000 1.0
C      1  0.5195060000000  0.4648620000000  0.4042780000000 1.0
C      1  0.5510710000000  0.4164650000000  0.5245240000000 1.0
C      1  0.4442320000000  0.5727840000000  0.4862320000000 1.0
C      1  0.5298510000000  0.4681840000000  0.5335510000000 1.0
C      1  0.4741370000000  0.4953130000000  0.5586310000000 1.0
C      1  0.6052460000000  0.5184490000000  0.4986630000000 1.0
C      1  0.5184760000000  0.5472560000000  0.5712660000000 1.0
C      1  0.5407070000000  0.4924770000000  0.5492570000000 1.0
C      1  0.5044950000000  0.4693780000000  0.5770750000000 1.0
C      1  0.5408100000000  0.4432930000000  0.5496230000000 1.0
END
