TITL C-950526-5686-467 4.81861938075315e-06 125000 -981.025164414299 0 0 157 (C1) n - 1
REM
REM in /home/bkarasulu/work/CARBON/AIRSS/Generating-Clusters/EDIP-Nigel-Params/with-SteepDescent/Only-C1/SD-CG/HFTN-CG
REM
REM
REM
REM
REM
REM ./C.cell (11c1c37f851c82e70ff6c80c92926a4b)
REM
REM compiler GCC version 9.2.1 20190827 (Red Hat 9.2.1-1)
REM options -cpp -mtune=generic -march=x86-64 -g -O0 -fpre-include=/usr/include/finclude/math-vector-fortran.h
REM seed 1442759370 481504260 -1161450683 885312935 1290756543 1766888079 1107277005 1619073354 845376932 1379635391 -110665410 831882515 -208024920 1905778387 398031820 996538347 428883354 -1536545602 1521951243 -1458628681 -1425578563 -248939779 -2102322050 1685059268 284082798 -1948277706 -1405158336 1888403202 -1101416993 1495739533 -1394998730 -200572287 1479807512
REM
CELL 1.54180   50.00000   50.00000   50.00000   90.00000   90.00000   90.00000
LATT -1
SFAC C  
C      1  0.5868340000000  0.5005800000000  0.5631330000000 1.0
C      1  0.4856160000000  0.4179240000000  0.4442760000000 1.0
C      1  0.4893600000000  0.5619450000000  0.4122960000000 1.0
C      1  0.5263320000000  0.4244070000000  0.5737420000000 1.0
C      1  0.5435120000000  0.4002390000000  0.4974120000000 1.0
C      1  0.5315030000000  0.5081990000000  0.5499050000000 1.0
C      1  0.5004220000000  0.4614310000000  0.6038220000000 1.0
C      1  0.4875710000000  0.4051550000000  0.5481090000000 1.0
C      1  0.4415420000000  0.4138960000000  0.5628670000000 1.0
C      1  0.4825770000000  0.4114120000000  0.4736080000000 1.0
C      1  0.3990450000000  0.4858560000000  0.4847970000000 1.0
C      1  0.4938080000000  0.5299750000000  0.4907130000000 1.0
C      1  0.5899400000000  0.5098830000000  0.5339240000000 1.0
C      1  0.5709960000000  0.5595970000000  0.5216720000000 1.0
C      1  0.5383030000000  0.5038780000000  0.5031960000000 1.0
C      1  0.4340720000000  0.4406020000000  0.5666050000000 1.0
C      1  0.4731810000000  0.5478010000000  0.5886250000000 1.0
C      1  0.5040250000000  0.4590390000000  0.4520390000000 1.0
C      1  0.4498490000000  0.4857800000000  0.5505280000000 1.0
C      1  0.5326090000000  0.5797150000000  0.5521140000000 1.0
C      1  0.4986470000000  0.4767170000000  0.5375220000000 1.0
C      1  0.5537640000000  0.5250100000000  0.4844130000000 1.0
C      1  0.4601900000000  0.5020450000000  0.5748540000000 1.0
C      1  0.4968210000000  0.5277910000000  0.5917510000000 1.0
C      1  0.4289960000000  0.5116560000000  0.4311290000000 1.0
C      1  0.4264670000000  0.5098920000000  0.4602960000000 1.0
C      1  0.4334230000000  0.5421460000000  0.5576900000000 1.0
C      1  0.4564140000000  0.5019110000000  0.5279550000000 1.0
C      1  0.5881900000000  0.5040880000000  0.4484790000000 1.0
C      1  0.5992130000000  0.5084110000000  0.4750570000000 1.0
C      1  0.5987130000000  0.4385310000000  0.5196080000000 1.0
C      1  0.5874150000000  0.5343370000000  0.5181180000000 1.0
C      1  0.5395330000000  0.5364740000000  0.4038850000000 1.0
C      1  0.5156830000000  0.5251420000000  0.4395940000000 1.0
C      1  0.5616470000000  0.4604570000000  0.5711660000000 1.0
C      1  0.5629240000000  0.5098040000000  0.5813310000000 1.0
C      1  0.4492700000000  0.5308580000000  0.5804430000000 1.0
C      1  0.5210380000000  0.4643350000000  0.4748050000000 1.0
C      1  0.4419140000000  0.5614100000000  0.4292250000000 1.0
C      1  0.5390270000000  0.5583820000000  0.4227210000000 1.0
C      1  0.4844390000000  0.5849110000000  0.5030440000000 1.0
C      1  0.4992480000000  0.4244430000000  0.5685500000000 1.0
C      1  0.5436700000000  0.5307240000000  0.5665220000000 1.0
C      1  0.4578000000000  0.4056170000000  0.5417050000000 1.0
C      1  0.5222350000000  0.4452510000000  0.4993920000000 1.0
C      1  0.4518050000000  0.4769820000000  0.4459700000000 1.0
C      1  0.5709160000000  0.5725410000000  0.4921070000000 1.0
C      1  0.4520990000000  0.5238440000000  0.4701930000000 1.0
C      1  0.4434980000000  0.4473060000000  0.4452600000000 1.0
C      1  0.5300910000000  0.3990970000000  0.4728690000000 1.0
C      1  0.5838860000000  0.4753520000000  0.4389030000000 1.0
C      1  0.5256620000000  0.5888900000000  0.4688020000000 1.0
C      1  0.4572590000000  0.4820660000000  0.5969200000000 1.0
C      1  0.4778600000000  0.4835740000000  0.4910270000000 1.0
C      1  0.5820410000000  0.4185790000000  0.5292540000000 1.0
C      1  0.4850290000000  0.4438900000000  0.5847710000000 1.0
C      1  0.4479440000000  0.4825810000000  0.4851330000000 1.0
C      1  0.4834820000000  0.5589090000000  0.4561760000000 1.0
C      1  0.4565540000000  0.5414280000000  0.4939100000000 1.0
C      1  0.4347020000000  0.4859980000000  0.4240440000000 1.0
C      1  0.4048800000000  0.5235030000000  0.5214630000000 1.0
C      1  0.5700330000000  0.4371800000000  0.4807100000000 1.0
C      1  0.4480480000000  0.5550500000000  0.5334400000000 1.0
C      1  0.4689920000000  0.5313760000000  0.4483330000000 1.0
C      1  0.4472110000000  0.5853470000000  0.4754190000000 1.0
C      1  0.4697980000000  0.5669170000000  0.4824130000000 1.0
C      1  0.5346670000000  0.4179520000000  0.4523050000000 1.0
C      1  0.4725930000000  0.5912640000000  0.5569120000000 1.0
C      1  0.4620510000000  0.6014660000000  0.5141610000000 1.0
C      1  0.4464800000000  0.4373540000000  0.4729580000000 1.0
C      1  0.5225460000000  0.4938760000000  0.4780110000000 1.0
C      1  0.4161320000000  0.5485060000000  0.4770390000000 1.0
C      1  0.4079020000000  0.4779890000000  0.5395300000000 1.0
C      1  0.5503300000000  0.4285470000000  0.5018780000000 1.0
C      1  0.5603330000000  0.4322670000000  0.4532170000000 1.0
C      1  0.5030720000000  0.4035290000000  0.5224270000000 1.0
C      1  0.5193790000000  0.6003740000000  0.5348070000000 1.0
C      1  0.5976920000000  0.4412140000000  0.4901350000000 1.0
C      1  0.5610130000000  0.5179420000000  0.4100440000000 1.0
C      1  0.5891350000000  0.4694980000000  0.5618460000000 1.0
C      1  0.5083970000000  0.5930210000000  0.4429490000000 1.0
C      1  0.3951330000000  0.5323590000000  0.4656000000000 1.0
C      1  0.5510010000000  0.5712770000000  0.4691320000000 1.0
C      1  0.4781480000000  0.5451850000000  0.5317480000000 1.0
C      1  0.5212910000000  0.5437740000000  0.4870750000000 1.0
C      1  0.6040060000000  0.4852130000000  0.4909850000000 1.0
C      1  0.5227800000000  0.5428190000000  0.5844510000000 1.0
C      1  0.4949060000000  0.5038620000000  0.4766910000000 1.0
C      1  0.4275820000000  0.4385370000000  0.5165310000000 1.0
C      1  0.4803630000000  0.4875610000000  0.4079990000000 1.0
C      1  0.4903870000000  0.5360130000000  0.3981590000000 1.0
C      1  0.3884900000000  0.5048990000000  0.4664520000000 1.0
C      1  0.5081300000000  0.4931930000000  0.5597590000000 1.0
C      1  0.5142920000000  0.5688780000000  0.5734480000000 1.0
C      1  0.4376840000000  0.5961730000000  0.5006780000000 1.0
C      1  0.4400120000000  0.5014620000000  0.5057030000000 1.0
C      1  0.5502530000000  0.4328830000000  0.5633740000000 1.0
C      1  0.4309620000000  0.4545510000000  0.4902600000000 1.0
C      1  0.4144280000000  0.4964780000000  0.5602740000000 1.0
C      1  0.4690480000000  0.5163710000000  0.4025090000000 1.0
C      1  0.4228160000000  0.4526210000000  0.5412530000000 1.0
C      1  0.4882950000000  0.5104360000000  0.5698920000000 1.0
C      1  0.5472500000000  0.4791040000000  0.5181620000000 1.0
C      1  0.5230580000000  0.4630760000000  0.5229560000000 1.0
C      1  0.5412950000000  0.4563260000000  0.4086770000000 1.0
C      1  0.4844990000000  0.4503210000000  0.4072610000000 1.0
C      1  0.4506160000000  0.5304130000000  0.4238930000000 1.0
C      1  0.5395770000000  0.4861810000000  0.4067560000000 1.0
C      1  0.4131710000000  0.4513570000000  0.4469270000000 1.0
C      1  0.4965160000000  0.4269790000000  0.5040640000000 1.0
C      1  0.4787900000000  0.5938250000000  0.4419940000000 1.0
C      1  0.4738120000000  0.4429310000000  0.5188400000000 1.0
C      1  0.4934510000000  0.6065430000000  0.5451740000000 1.0
C      1  0.4576790000000  0.4555380000000  0.5808130000000 1.0
C      1  0.4899020000000  0.5099410000000  0.4481280000000 1.0
C      1  0.5725560000000  0.5274570000000  0.4364810000000 1.0
C      1  0.4738990000000  0.4598860000000  0.5455180000000 1.0
C      1  0.4849370000000  0.5676540000000  0.5692610000000 1.0
C      1  0.4951060000000  0.5689590000000  0.5262860000000 1.0
C      1  0.4991740000000  0.5074400000000  0.6145380000000 1.0
C      1  0.5846480000000  0.5305580000000  0.4884910000000 1.0
C      1  0.5301010000000  0.3937830000000  0.5223200000000 1.0
C      1  0.4811970000000  0.4822590000000  0.6154140000000 1.0
C      1  0.5487440000000  0.4906750000000  0.4347870000000 1.0
C      1  0.4567560000000  0.4137150000000  0.4861590000000 1.0
C      1  0.5586550000000  0.5548670000000  0.4446080000000 1.0
C      1  0.4664580000000  0.4342480000000  0.4268590000000 1.0
C      1  0.4291670000000  0.5690520000000  0.4584300000000 1.0
C      1  0.5558290000000  0.4172870000000  0.5388940000000 1.0
C      1  0.5659700000000  0.4511700000000  0.4309720000000 1.0
C      1  0.5361330000000  0.5088350000000  0.4541050000000 1.0
C      1  0.3983310000000  0.4936190000000  0.5145700000000 1.0
C      1  0.4657980000000  0.5777700000000  0.4209140000000 1.0
C      1  0.6140790000000  0.4616920000000  0.4795790000000 1.0
C      1  0.4496270000000  0.5864730000000  0.5372600000000 1.0
C      1  0.4116080000000  0.5235140000000  0.5502430000000 1.0
C      1  0.5145210000000  0.5750120000000  0.4206140000000 1.0
C      1  0.4063940000000  0.4587860000000  0.4743560000000 1.0
C      1  0.5541960000000  0.4885430000000  0.5448560000000 1.0
C      1  0.5237980000000  0.5198380000000  0.5241900000000 1.0
C      1  0.5973520000000  0.4639850000000  0.5339650000000 1.0
C      1  0.4205990000000  0.5461150000000  0.5073050000000 1.0
C      1  0.5445540000000  0.5558270000000  0.5368000000000 1.0
C      1  0.6026150000000  0.4880280000000  0.5195800000000 1.0
C      1  0.5151380000000  0.5226240000000  0.4013860000000 1.0
C      1  0.5494940000000  0.4831580000000  0.5883190000000 1.0
C      1  0.5137090000000  0.5967520000000  0.4966370000000 1.0
C      1  0.5919070000000  0.5573970000000  0.4784680000000 1.0
C      1  0.5136690000000  0.5523130000000  0.4580970000000 1.0
C      1  0.5228310000000  0.5622290000000  0.5127630000000 1.0
C      1  0.4817590000000  0.4819520000000  0.4379000000000 1.0
C      1  0.4528250000000  0.4222590000000  0.5162670000000 1.0
C      1  0.4947790000000  0.5228200000000  0.5186880000000 1.0
C      1  0.5224650000000  0.4825870000000  0.6001660000000 1.0
C      1  0.5138960000000  0.4409420000000  0.4113810000000 1.0
C      1  0.5110630000000  0.4325710000000  0.4399970000000 1.0
C      1  0.4827430000000  0.4953970000000  0.5189810000000 1.0
END
