TITL C-951335-1172-390 7.16882124535642e-07 125000 -458.052168769706 0 0 74 (C1) n - 1
REM
REM in /home/bkarasulu/work/CARBON/AIRSS/Generating-Clusters/EDIP-Nigel-Params/with-SteepDescent/Only-C1/SD-CG/HFTN-CG
REM
REM
REM
REM
REM
REM ./C.cell (11c1c37f851c82e70ff6c80c92926a4b)
REM
REM compiler GCC version 9.2.1 20190827 (Red Hat 9.2.1-1)
REM options -cpp -mtune=generic -march=x86-64 -g -O0 -fpre-include=/usr/include/finclude/math-vector-fortran.h
REM seed -911909850 -1950774198 -315295907 1664313011 -2100665759 860956905 1727678059 40380947 173900326 487342519 -1748879588 1062351921 817593235 -1967211123 -652308214 1667893558 910080948 -481704184 -161863776 558834227 1647140528 -1204276224 837727850 1303745500 -728005698 -1197793064 -1411495807 -549306935 -1083645043 412807091 718478136 1562745154 815004047
REM
CELL 1.54180   50.00000   50.00000   50.00000   90.00000   90.00000   90.00000
LATT -1
SFAC C  
C      1  0.5325630000000  0.5186810000000  0.4222660000000 1.0
C      1  0.5603370000000  0.5469700000000  0.5001110000000 1.0
C      1  0.4392120000000  0.5310270000000  0.5444780000000 1.0
C      1  0.5037470000000  0.5417720000000  0.4542890000000 1.0
C      1  0.5432120000000  0.4398420000000  0.5091500000000 1.0
C      1  0.4611960000000  0.4503180000000  0.5037230000000 1.0
C      1  0.4819880000000  0.5592350000000  0.4709290000000 1.0
C      1  0.5015420000000  0.4679940000000  0.5228920000000 1.0
C      1  0.4922760000000  0.4491240000000  0.4670420000000 1.0
C      1  0.4508960000000  0.4850080000000  0.5570840000000 1.0
C      1  0.5248400000000  0.5611120000000  0.5351810000000 1.0
C      1  0.4242970000000  0.5401730000000  0.4993880000000 1.0
C      1  0.4914470000000  0.4336100000000  0.5380910000000 1.0
C      1  0.5570780000000  0.4858390000000  0.4516030000000 1.0
C      1  0.5104510000000  0.5783110000000  0.5141360000000 1.0
C      1  0.5123230000000  0.4549140000000  0.5779230000000 1.0
C      1  0.4211110000000  0.4947080000000  0.5158450000000 1.0
C      1  0.5054370000000  0.5222370000000  0.4769830000000 1.0
C      1  0.4499650000000  0.5248700000000  0.4521880000000 1.0
C      1  0.5030740000000  0.5245220000000  0.4284720000000 1.0
C      1  0.4769220000000  0.4785160000000  0.5659250000000 1.0
C      1  0.4815290000000  0.4303210000000  0.5113050000000 1.0
C      1  0.5155850000000  0.4389870000000  0.5529560000000 1.0
C      1  0.4369600000000  0.4496990000000  0.5204580000000 1.0
C      1  0.5786360000000  0.4980190000000  0.4816620000000 1.0
C      1  0.4940540000000  0.5124110000000  0.5351340000000 1.0
C      1  0.5464070000000  0.4655760000000  0.4951700000000 1.0
C      1  0.5471810000000  0.5183380000000  0.5366340000000 1.0
C      1  0.5392310000000  0.5140570000000  0.5650980000000 1.0
C      1  0.4999000000000  0.4672140000000  0.4055920000000 1.0
C      1  0.4303500000000  0.4961620000000  0.4682480000000 1.0
C      1  0.4869800000000  0.5346810000000  0.5542970000000 1.0
C      1  0.4999620000000  0.4859220000000  0.5486800000000 1.0
C      1  0.5443110000000  0.4622870000000  0.4651740000000 1.0
C      1  0.4651070000000  0.4998250000000  0.4503670000000 1.0
C      1  0.4851180000000  0.4593230000000  0.5846750000000 1.0
C      1  0.4327030000000  0.5595520000000  0.4809820000000 1.0
C      1  0.5408940000000  0.4892350000000  0.4253870000000 1.0
C      1  0.5215790000000  0.5145980000000  0.5192930000000 1.0
C      1  0.4299720000000  0.4669980000000  0.4765010000000 1.0
C      1  0.5725210000000  0.4781930000000  0.5029450000000 1.0
C      1  0.5271940000000  0.5362700000000  0.5765960000000 1.0
C      1  0.5300950000000  0.5855260000000  0.4947640000000 1.0
C      1  0.4832170000000  0.5024540000000  0.4268490000000 1.0
C      1  0.5383040000000  0.4478790000000  0.5368650000000 1.0
C      1  0.4608680000000  0.5442850000000  0.5555570000000 1.0
C      1  0.4549380000000  0.5480340000000  0.4682750000000 1.0
C      1  0.5167140000000  0.5377670000000  0.4984820000000 1.0
C      1  0.4697780000000  0.5037220000000  0.5183440000000 1.0
C      1  0.4446740000000  0.5029360000000  0.5348070000000 1.0
C      1  0.4805390000000  0.4857990000000  0.4042120000000 1.0
C      1  0.5373410000000  0.5587550000000  0.4850020000000 1.0
C      1  0.4202830000000  0.4670580000000  0.5052850000000 1.0
C      1  0.5529590000000  0.5480190000000  0.5294080000000 1.0
C      1  0.5669720000000  0.4899850000000  0.5299030000000 1.0
C      1  0.4541980000000  0.4491160000000  0.4742040000000 1.0
C      1  0.5262880000000  0.4215430000000  0.4966240000000 1.0
C      1  0.5006140000000  0.4304000000000  0.4898470000000 1.0
C      1  0.5225110000000  0.4850480000000  0.5043660000000 1.0
C      1  0.4214920000000  0.5119450000000  0.4923330000000 1.0
C      1  0.4855950000000  0.4793900000000  0.4759230000000 1.0
C      1  0.5102260000000  0.4939350000000  0.4785860000000 1.0
C      1  0.5188040000000  0.4695540000000  0.4261790000000 1.0
C      1  0.5102340000000  0.5517060000000  0.5602510000000 1.0
C      1  0.4236660000000  0.5457600000000  0.5266610000000 1.0
C      1  0.5482670000000  0.5343290000000  0.4431370000000 1.0
C      1  0.4770810000000  0.4767670000000  0.5057350000000 1.0
C      1  0.4889310000000  0.5634330000000  0.5000000000000 1.0
C      1  0.5495390000000  0.4726050000000  0.5469080000000 1.0
C      1  0.5466370000000  0.5127600000000  0.4644610000000 1.0
C      1  0.5192560000000  0.4535730000000  0.4508050000000 1.0
C      1  0.5286170000000  0.4850070000000  0.5649330000000 1.0
C      1  0.5313770000000  0.5552570000000  0.4550060000000 1.0
C      1  0.5598920000000  0.5191980000000  0.4914310000000 1.0
END
