TITL C-950529-3362-86 -4.8559725340175e-07 125000 -148.963770390341 0 0 26 (C1) n - 1
REM
REM in /home/bkarasulu/work/CARBON/AIRSS/Generating-Clusters/EDIP-Nigel-Params/with-SteepDescent/Only-C1/SD-CG/HFTN-CG
REM
REM
REM
REM
REM
REM ./C.cell (11c1c37f851c82e70ff6c80c92926a4b)
REM
REM compiler GCC version 9.2.1 20190827 (Red Hat 9.2.1-1)
REM options -cpp -mtune=generic -march=x86-64 -g -O0 -fpre-include=/usr/include/finclude/math-vector-fortran.h
REM seed 1853575864 966794743 -1632578536 -1129243427 -466655925 -1832632386 2005575071 460257766 1759384610 -1724234142 17577319 2023423260 542310841 -1817920524 406068122 1625960349 1770334751 -1270974214 1607585888 816944130 -962485995 -2133262374 -1192398709 1924709305 -91267040 -1261456541 197214582 377664464 1547412639 1121871403 1578603680 509980573 -233280012
REM
CELL 1.54180   50.00000   50.00000   50.00000   90.00000   90.00000   90.00000
LATT -1
SFAC C  
C      1  0.5426210000000  0.4784680000000  0.5297300000000 1.0
C      1  0.4833670000000  0.4886210000000  0.4808350000000 1.0
C      1  0.5385200000000  0.5522890000000  0.5076260000000 1.0
C      1  0.4878160000000  0.4743680000000  0.4567550000000 1.0
C      1  0.5397080000000  0.5285910000000  0.5269760000000 1.0
C      1  0.4662840000000  0.4632680000000  0.4432410000000 1.0
C      1  0.5392390000000  0.4738610000000  0.4555480000000 1.0
C      1  0.5395480000000  0.5021270000000  0.5143350000000 1.0
C      1  0.5127220000000  0.5363010000000  0.5398890000000 1.0
C      1  0.4574150000000  0.4929200000000  0.4939160000000 1.0
C      1  0.4761750000000  0.5001510000000  0.5396720000000 1.0
C      1  0.4956870000000  0.4560720000000  0.5366750000000 1.0
C      1  0.5137980000000  0.4705380000000  0.4486550000000 1.0
C      1  0.5215390000000  0.4619900000000  0.5350130000000 1.0
C      1  0.4435270000000  0.4688440000000  0.4563460000000 1.0
C      1  0.5125410000000  0.5635290000000  0.5250100000000 1.0
C      1  0.4633610000000  0.5210870000000  0.4873030000000 1.0
C      1  0.5203820000000  0.5489320000000  0.4845710000000 1.0
C      1  0.4580250000000  0.4855810000000  0.5236510000000 1.0
C      1  0.5610870000000  0.4924380000000  0.4985810000000 1.0
C      1  0.4908800000000  0.5208220000000  0.5272590000000 1.0
C      1  0.5568210000000  0.4819620000000  0.4737250000000 1.0
C      1  0.4959680000000  0.5581860000000  0.4986060000000 1.0
C      1  0.4775430000000  0.5363990000000  0.5069430000000 1.0
C      1  0.4356960000000  0.4816370000000  0.4786000000000 1.0
C      1  0.4697290000000  0.4610180000000  0.5305390000000 1.0
END
