TITL C-951335-1172-684 4.74358331996417e-06 125000 -1032.12627226953 0 0 166 (C1) n - 1
REM
REM in /home/bkarasulu/work/CARBON/AIRSS/Generating-Clusters/EDIP-Nigel-Params/with-SteepDescent/Only-C1/SD-CG/HFTN-CG
REM
REM
REM
REM
REM
REM ./C.cell (11c1c37f851c82e70ff6c80c92926a4b)
REM
REM compiler GCC version 9.2.1 20190827 (Red Hat 9.2.1-1)
REM options -cpp -mtune=generic -march=x86-64 -g -O0 -fpre-include=/usr/include/finclude/math-vector-fortran.h
REM seed 675251315 310105245 -184209513 -795527283 -574250332 306010791 1813439875 -858567210 1498570824 -1002628560 209368671 1904942181 570155143 -581725572 934444469 1439931141 -1166735308 1184766537 1281115096 -1293417860 -1835183508 1842219177 -1018454974 -1028321346 -1048962692 -2098279017 1318273447 1280401192 976828694 493811849 -69084137 732910308 -263924572
REM
CELL 1.54180   50.00000   50.00000   50.00000   90.00000   90.00000   90.00000
LATT -1
SFAC C  
C      1  0.4347520000000  0.4752070000000  0.4295490000000 1.0
C      1  0.4202840000000  0.4383590000000  0.4638770000000 1.0
C      1  0.5216660000000  0.5867910000000  0.5239440000000 1.0
C      1  0.5379400000000  0.4534930000000  0.4988680000000 1.0
C      1  0.6225840000000  0.5136820000000  0.5078580000000 1.0
C      1  0.5316340000000  0.5211640000000  0.4123820000000 1.0
C      1  0.5397500000000  0.4632810000000  0.5290360000000 1.0
C      1  0.5672740000000  0.4290940000000  0.4663460000000 1.0
C      1  0.4395390000000  0.5266690000000  0.4639990000000 1.0
C      1  0.4972410000000  0.3938200000000  0.4984000000000 1.0
C      1  0.5688490000000  0.5694580000000  0.4982160000000 1.0
C      1  0.5124400000000  0.3929640000000  0.5466230000000 1.0
C      1  0.5574780000000  0.4990070000000  0.4765350000000 1.0
C      1  0.5592250000000  0.4296970000000  0.4950090000000 1.0
C      1  0.4530100000000  0.5153320000000  0.5951610000000 1.0
C      1  0.5171350000000  0.5468240000000  0.4077620000000 1.0
C      1  0.3988460000000  0.5279130000000  0.5010640000000 1.0
C      1  0.4920350000000  0.3858830000000  0.5261610000000 1.0
C      1  0.4689180000000  0.5232120000000  0.5698010000000 1.0
C      1  0.4703930000000  0.4226600000000  0.4613120000000 1.0
C      1  0.5483690000000  0.4174780000000  0.4481160000000 1.0
C      1  0.4691360000000  0.5865060000000  0.5478180000000 1.0
C      1  0.5343250000000  0.5568630000000  0.5225600000000 1.0
C      1  0.4864330000000  0.4116920000000  0.4376680000000 1.0
C      1  0.5610970000000  0.5246490000000  0.5426360000000 1.0
C      1  0.4868020000000  0.5119740000000  0.4338510000000 1.0
C      1  0.5568290000000  0.5788610000000  0.4306520000000 1.0
C      1  0.4932660000000  0.5417330000000  0.4784370000000 1.0
C      1  0.4015830000000  0.5006440000000  0.5197200000000 1.0
C      1  0.4479140000000  0.5665250000000  0.4363920000000 1.0
C      1  0.4867300000000  0.5461450000000  0.4148530000000 1.0
C      1  0.4741840000000  0.5697060000000  0.4288480000000 1.0
C      1  0.5649370000000  0.5554720000000  0.4469000000000 1.0
C      1  0.5093400000000  0.4262440000000  0.5261830000000 1.0
C      1  0.5080240000000  0.5364910000000  0.5516010000000 1.0
C      1  0.4697560000000  0.4988680000000  0.4805480000000 1.0
C      1  0.4398190000000  0.5561560000000  0.4607240000000 1.0
C      1  0.4935870000000  0.5386440000000  0.5777270000000 1.0
C      1  0.4956480000000  0.4479680000000  0.3965200000000 1.0
C      1  0.4566960000000  0.6083770000000  0.5332030000000 1.0
C      1  0.4029500000000  0.4741560000000  0.5655510000000 1.0
C      1  0.5118960000000  0.4495130000000  0.5458820000000 1.0
C      1  0.4774810000000  0.4695440000000  0.4021530000000 1.0
C      1  0.4259600000000  0.5347880000000  0.5448010000000 1.0
C      1  0.5400580000000  0.5297030000000  0.5914430000000 1.0
C      1  0.5828050000000  0.4353130000000  0.5127000000000 1.0
C      1  0.4439710000000  0.4797150000000  0.5339340000000 1.0
C      1  0.5109570000000  0.5062770000000  0.4541810000000 1.0
C      1  0.4665630000000  0.3985660000000  0.5335350000000 1.0
C      1  0.4112490000000  0.5591640000000  0.5451940000000 1.0
C      1  0.5946640000000  0.5164000000000  0.4495400000000 1.0
C      1  0.6149940000000  0.5595070000000  0.5087250000000 1.0
C      1  0.5193500000000  0.5486160000000  0.4656500000000 1.0
C      1  0.4723230000000  0.4041330000000  0.4858210000000 1.0
C      1  0.4205480000000  0.4476080000000  0.4929190000000 1.0
C      1  0.5144210000000  0.5092910000000  0.5122260000000 1.0
C      1  0.5269510000000  0.4009950000000  0.4586340000000 1.0
C      1  0.5178390000000  0.5898010000000  0.5551700000000 1.0
C      1  0.4843980000000  0.5131750000000  0.3829860000000 1.0
C      1  0.4055330000000  0.5126960000000  0.4285340000000 1.0
C      1  0.4488530000000  0.5633390000000  0.5901730000000 1.0
C      1  0.5852250000000  0.4866340000000  0.4453990000000 1.0
C      1  0.5310380000000  0.4475180000000  0.4113730000000 1.0
C      1  0.5799580000000  0.5590380000000  0.4717440000000 1.0
C      1  0.6054810000000  0.4479490000000  0.5027890000000 1.0
C      1  0.4154230000000  0.4644690000000  0.4501780000000 1.0
C      1  0.5096950000000  0.4434450000000  0.5007180000000 1.0
C      1  0.5103760000000  0.5236970000000  0.5985360000000 1.0
C      1  0.5482820000000  0.5572870000000  0.5847830000000 1.0
C      1  0.5297040000000  0.4936530000000  0.5597100000000 1.0
C      1  0.4914850000000  0.4656490000000  0.5084270000000 1.0
C      1  0.4295120000000  0.5023240000000  0.4193670000000 1.0
C      1  0.4740090000000  0.6096690000000  0.5079330000000 1.0
C      1  0.5700940000000  0.4757040000000  0.5500080000000 1.0
C      1  0.4914640000000  0.4962620000000  0.4061200000000 1.0
C      1  0.4510080000000  0.5676910000000  0.5600510000000 1.0
C      1  0.5935030000000  0.4938300000000  0.5535260000000 1.0
C      1  0.5590460000000  0.5147700000000  0.4180290000000 1.0
C      1  0.4089860000000  0.5560240000000  0.4977800000000 1.0
C      1  0.5789940000000  0.4333170000000  0.5416000000000 1.0
C      1  0.4501530000000  0.5165120000000  0.4983510000000 1.0
C      1  0.4650070000000  0.4845010000000  0.5898460000000 1.0
C      1  0.4695610000000  0.5351490000000  0.5183460000000 1.0
C      1  0.4429990000000  0.4507200000000  0.5359540000000 1.0
C      1  0.5474620000000  0.4270160000000  0.4221370000000 1.0
C      1  0.5345410000000  0.4750870000000  0.4243240000000 1.0
C      1  0.5525550000000  0.6012850000000  0.4484620000000 1.0
C      1  0.5492650000000  0.4578770000000  0.5893190000000 1.0
C      1  0.5519010000000  0.4271080000000  0.5500650000000 1.0
C      1  0.5354430000000  0.4099030000000  0.5319970000000 1.0
C      1  0.4540710000000  0.4099070000000  0.5087230000000 1.0
C      1  0.4275370000000  0.4765350000000  0.4861270000000 1.0
C      1  0.4415540000000  0.4363370000000  0.5110150000000 1.0
C      1  0.3871650000000  0.4772360000000  0.5044770000000 1.0
C      1  0.5793280000000  0.5167790000000  0.5644380000000 1.0
C      1  0.4313140000000  0.4941840000000  0.5113890000000 1.0
C      1  0.4935830000000  0.5181440000000  0.5321900000000 1.0
C      1  0.5042780000000  0.4859330000000  0.5704340000000 1.0
C      1  0.5004940000000  0.4955300000000  0.5974160000000 1.0
C      1  0.5379840000000  0.5440010000000  0.5496710000000 1.0
C      1  0.4503870000000  0.4566170000000  0.5845790000000 1.0
C      1  0.4347780000000  0.5374450000000  0.5942440000000 1.0
C      1  0.5161970000000  0.5720010000000  0.4471740000000 1.0
C      1  0.5461670000000  0.4042970000000  0.5044210000000 1.0
C      1  0.6187780000000  0.5370190000000  0.4922370000000 1.0
C      1  0.4615830000000  0.4622430000000  0.4257170000000 1.0
C      1  0.4710050000000  0.4696380000000  0.4888270000000 1.0
C      1  0.4894750000000  0.5836950000000  0.4485880000000 1.0
C      1  0.5557950000000  0.5277710000000  0.4908950000000 1.0
C      1  0.5616700000000  0.5083430000000  0.5875270000000 1.0
C      1  0.4813230000000  0.5662320000000  0.5853240000000 1.0
C      1  0.4475930000000  0.6042120000000  0.4958240000000 1.0
C      1  0.4296790000000  0.5976660000000  0.5183340000000 1.0
C      1  0.4181900000000  0.5707880000000  0.5205540000000 1.0
C      1  0.5338170000000  0.4924000000000  0.5300790000000 1.0
C      1  0.5958870000000  0.5341700000000  0.4738180000000 1.0
C      1  0.5206100000000  0.4951090000000  0.4068440000000 1.0
C      1  0.4218360000000  0.4615750000000  0.5820940000000 1.0
C      1  0.4849220000000  0.4639810000000  0.5376190000000 1.0
C      1  0.4604370000000  0.4426960000000  0.5587060000000 1.0
C      1  0.4905770000000  0.5887600000000  0.5660900000000 1.0
C      1  0.4425470000000  0.4244620000000  0.4548230000000 1.0
C      1  0.5956320000000  0.5047800000000  0.5109960000000 1.0
C      1  0.5114100000000  0.4352510000000  0.5735240000000 1.0
C      1  0.4695890000000  0.4137050000000  0.5592390000000 1.0
C      1  0.4168440000000  0.5664440000000  0.4729850000000 1.0
C      1  0.4955040000000  0.5883510000000  0.5033710000000 1.0
C      1  0.5053200000000  0.3921280000000  0.4434050000000 1.0
C      1  0.4542230000000  0.5404910000000  0.5472240000000 1.0
C      1  0.4612320000000  0.5031620000000  0.4500270000000 1.0
C      1  0.4818060000000  0.4705700000000  0.4462520000000 1.0
C      1  0.5849200000000  0.4504840000000  0.4586970000000 1.0
C      1  0.3963090000000  0.4851990000000  0.4766320000000 1.0
C      1  0.5058450000000  0.6015160000000  0.4782360000000 1.0
C      1  0.3948180000000  0.4501860000000  0.5066120000000 1.0
C      1  0.4402890000000  0.4913050000000  0.5606760000000 1.0
C      1  0.5502370000000  0.5900150000000  0.5102160000000 1.0
C      1  0.5246140000000  0.3951610000000  0.4867700000000 1.0
C      1  0.5406280000000  0.4343260000000  0.5765360000000 1.0
C      1  0.5381680000000  0.4753990000000  0.4769740000000 1.0
C      1  0.5292450000000  0.5352280000000  0.5019360000000 1.0
C      1  0.4203990000000  0.5155810000000  0.5651270000000 1.0
C      1  0.4973490000000  0.4288480000000  0.4173250000000 1.0
C      1  0.5526990000000  0.4823400000000  0.5739140000000 1.0
C      1  0.4978900000000  0.4089750000000  0.5687850000000 1.0
C      1  0.4461550000000  0.5197110000000  0.4052820000000 1.0
C      1  0.4110690000000  0.5228800000000  0.4541710000000 1.0
C      1  0.4808210000000  0.4511590000000  0.4680170000000 1.0
C      1  0.4970940000000  0.5119820000000  0.4814780000000 1.0
C      1  0.5195740000000  0.4769450000000  0.4521870000000 1.0
C      1  0.3936560000000  0.5146480000000  0.4753390000000 1.0
C      1  0.5760170000000  0.5321100000000  0.4333030000000 1.0
C      1  0.5633130000000  0.4867350000000  0.4249510000000 1.0
C      1  0.5367200000000  0.5796680000000  0.5733140000000 1.0
C      1  0.5758890000000  0.5283300000000  0.5162170000000 1.0
C      1  0.4826980000000  0.4929050000000  0.5508080000000 1.0
C      1  0.5879320000000  0.5569430000000  0.5171950000000 1.0
C      1  0.4836390000000  0.5580240000000  0.5009280000000 1.0
C      1  0.3979830000000  0.4990960000000  0.5517800000000 1.0
C      1  0.5384760000000  0.5245740000000  0.4556290000000 1.0
C      1  0.5966450000000  0.4635660000000  0.4812820000000 1.0
C      1  0.5287030000000  0.5724440000000  0.4189430000000 1.0
C      1  0.5903160000000  0.4551240000000  0.5563120000000 1.0
C      1  0.5303060000000  0.5917090000000  0.4637240000000 1.0
C      1  0.5874350000000  0.4918140000000  0.4847400000000 1.0
C      1  0.4686280000000  0.5325970000000  0.3952630000000 1.0
END
