TITL C-950532-2784-475 -3.39441344260682e-07 125000 -334.211978611411 0 0 54 (C1) n - 1
REM
REM in /home/bkarasulu/work/CARBON/AIRSS/Generating-Clusters/EDIP-Nigel-Params/with-SteepDescent/Only-C1/SD-CG/HFTN-CG
REM
REM
REM
REM
REM
REM ./C.cell (11c1c37f851c82e70ff6c80c92926a4b)
REM
REM compiler GCC version 9.2.1 20190827 (Red Hat 9.2.1-1)
REM options -cpp -mtune=generic -march=x86-64 -g -O0 -fpre-include=/usr/include/finclude/math-vector-fortran.h
REM seed -125677151 -1771120399 1413351140 -677502499 1583083377 228621149 -992595139 1314982571 1105222579 1196446205 1542831328 1756505857 12724267 -326163414 -1447174196 291880547 574957656 -272761998 -873762065 448088680 1322339563 -148757454 -1185008933 355811902 -624825129 -1176841850 1816080315 -8544380 951964909 1528281333 -1539638259 175906 1859432944
REM
CELL 1.54180   50.00000   50.00000   50.00000   90.00000   90.00000   90.00000
LATT -1
SFAC C  
C      1  0.5154910000000  0.4821430000000  0.4511050000000 1.0
C      1  0.4645020000000  0.5512230000000  0.5225200000000 1.0
C      1  0.4336150000000  0.4856250000000  0.5236930000000 1.0
C      1  0.4941580000000  0.4804410000000  0.5213350000000 1.0
C      1  0.4937850000000  0.5519090000000  0.5282400000000 1.0
C      1  0.5582060000000  0.5637240000000  0.4921080000000 1.0
C      1  0.5314150000000  0.4957660000000  0.5603610000000 1.0
C      1  0.5596000000000  0.4805470000000  0.4732080000000 1.0
C      1  0.4770510000000  0.4953670000000  0.5010590000000 1.0
C      1  0.4168550000000  0.4715910000000  0.5059600000000 1.0
C      1  0.4560410000000  0.4447860000000  0.5267830000000 1.0
C      1  0.4963210000000  0.4407940000000  0.4679330000000 1.0
C      1  0.5376220000000  0.4997130000000  0.4620330000000 1.0
C      1  0.5451720000000  0.5303890000000  0.4569070000000 1.0
C      1  0.4307420000000  0.4685380000000  0.4830730000000 1.0
C      1  0.4778830000000  0.4832710000000  0.5480790000000 1.0
C      1  0.5230830000000  0.5492150000000  0.4519000000000 1.0
C      1  0.4552980000000  0.5258140000000  0.5350220000000 1.0
C      1  0.5251890000000  0.4376270000000  0.5239750000000 1.0
C      1  0.5131710000000  0.5631390000000  0.5087030000000 1.0
C      1  0.4764370000000  0.5137000000000  0.5519120000000 1.0
C      1  0.5415860000000  0.5586030000000  0.5147320000000 1.0
C      1  0.5253380000000  0.5077650000000  0.4902500000000 1.0
C      1  0.4499210000000  0.5161620000000  0.4581590000000 1.0
C      1  0.4911480000000  0.4971620000000  0.4457310000000 1.0
C      1  0.4720550000000  0.5368620000000  0.4505270000000 1.0
C      1  0.5690390000000  0.4920450000000  0.4994070000000 1.0
C      1  0.5277150000000  0.5214240000000  0.5494940000000 1.0
C      1  0.5159970000000  0.4602290000000  0.4703790000000 1.0
C      1  0.5043040000000  0.5434350000000  0.4308730000000 1.0
C      1  0.4580060000000  0.5491260000000  0.4933460000000 1.0
C      1  0.4408590000000  0.5244990000000  0.4872270000000 1.0
C      1  0.4833870000000  0.5423790000000  0.4784620000000 1.0
C      1  0.4711120000000  0.4428820000000  0.4797180000000 1.0
C      1  0.5535340000000  0.5184950000000  0.5011590000000 1.0
C      1  0.5441110000000  0.4548150000000  0.4792230000000 1.0
C      1  0.4505530000000  0.5075110000000  0.5117320000000 1.0
C      1  0.5274090000000  0.4485880000000  0.5497920000000 1.0
C      1  0.4939630000000  0.5175960000000  0.4255720000000 1.0
C      1  0.4750400000000  0.4354770000000  0.5084240000000 1.0
C      1  0.4586450000000  0.4704690000000  0.4777820000000 1.0
C      1  0.5042900000000  0.5639490000000  0.4804850000000 1.0
C      1  0.5477170000000  0.5360710000000  0.5338690000000 1.0
C      1  0.4953290000000  0.5163410000000  0.4893380000000 1.0
C      1  0.4636530000000  0.4892170000000  0.4544600000000 1.0
C      1  0.5193260000000  0.4707890000000  0.5646150000000 1.0
C      1  0.5004530000000  0.5291850000000  0.5449100000000 1.0
C      1  0.5615620000000  0.5382500000000  0.4806310000000 1.0
C      1  0.4920530000000  0.4710110000000  0.5700000000000 1.0
C      1  0.5016610000000  0.4508550000000  0.5100740000000 1.0
C      1  0.5528980000000  0.4751980000000  0.5178240000000 1.0
C      1  0.4516450000000  0.4690330000000  0.5401940000000 1.0
C      1  0.5243810000000  0.4826390000000  0.5070910000000 1.0
C      1  0.5496730000000  0.4466130000000  0.5086120000000 1.0
END
