TITL C-951333-8791-338 -4.05991258931637e-06 125000 -539.991030821263 0 0 88 (C1) n - 1
REM
REM in /home/bkarasulu/work/CARBON/AIRSS/Generating-Clusters/EDIP-Nigel-Params/with-SteepDescent/Only-C1/SD-CG/HFTN-CG
REM
REM
REM
REM
REM
REM ./C.cell (11c1c37f851c82e70ff6c80c92926a4b)
REM
REM compiler GCC version 9.2.1 20190827 (Red Hat 9.2.1-1)
REM options -cpp -mtune=generic -march=x86-64 -g -O0 -fpre-include=/usr/include/finclude/math-vector-fortran.h
REM seed -397889666 -1353884533 2105466787 -1005468933 27312174 1361667820 -377427908 -994576482 1636480917 -1089451563 2026211396 -1417788946 -1160160021 158690653 896682011 -749480097 -405587869 467454747 2000033883 -521004796 228227487 -1683736959 -720131888 -1410616081 -1730347578 321360626 -238060474 -696331017 -1189976930 1483835250 -2140672596 -1191771952 1014211917
REM
CELL 1.54180   50.00000   50.00000   50.00000   90.00000   90.00000   90.00000
LATT -1
SFAC C  
C      1  0.4701680000000  0.4998780000000  0.4267420000000 1.0
C      1  0.4226830000000  0.5226540000000  0.5236560000000 1.0
C      1  0.4557750000000  0.4623930000000  0.5695070000000 1.0
C      1  0.4814110000000  0.5213310000000  0.5204930000000 1.0
C      1  0.4835220000000  0.5835200000000  0.4713220000000 1.0
C      1  0.5289390000000  0.4368370000000  0.4992760000000 1.0
C      1  0.4972490000000  0.4991240000000  0.5694700000000 1.0
C      1  0.5800840000000  0.4868130000000  0.4939900000000 1.0
C      1  0.4212990000000  0.4840060000000  0.4923540000000 1.0
C      1  0.4852520000000  0.4168080000000  0.4983200000000 1.0
C      1  0.5177180000000  0.5781590000000  0.5122850000000 1.0
C      1  0.5142950000000  0.4605330000000  0.4428800000000 1.0
C      1  0.4583250000000  0.4526940000000  0.5132420000000 1.0
C      1  0.4388280000000  0.5401090000000  0.5395580000000 1.0
C      1  0.5603790000000  0.4754880000000  0.5553480000000 1.0
C      1  0.5175110000000  0.4719820000000  0.4719510000000 1.0
C      1  0.5273750000000  0.5671380000000  0.4860650000000 1.0
C      1  0.5309160000000  0.4890450000000  0.4285850000000 1.0
C      1  0.4766360000000  0.4781550000000  0.4579870000000 1.0
C      1  0.5364830000000  0.4366490000000  0.5285670000000 1.0
C      1  0.5557340000000  0.4457820000000  0.4859630000000 1.0
C      1  0.5157590000000  0.5156790000000  0.5846810000000 1.0
C      1  0.5309530000000  0.5628370000000  0.5340090000000 1.0
C      1  0.5626670000000  0.4425040000000  0.4369420000000 1.0
C      1  0.4927660000000  0.4382690000000  0.4472550000000 1.0
C      1  0.5404820000000  0.5010390000000  0.5860720000000 1.0
C      1  0.5158330000000  0.5217620000000  0.4669030000000 1.0
C      1  0.5324230000000  0.4968830000000  0.4744010000000 1.0
C      1  0.5579370000000  0.4591940000000  0.4594930000000 1.0
C      1  0.5319970000000  0.5370310000000  0.4350340000000 1.0
C      1  0.5159900000000  0.5427090000000  0.5784550000000 1.0
C      1  0.4696330000000  0.5088410000000  0.5642290000000 1.0
C      1  0.5111230000000  0.5581190000000  0.5555830000000 1.0
C      1  0.4655230000000  0.4781900000000  0.5259010000000 1.0
C      1  0.5700870000000  0.5360890000000  0.5025680000000 1.0
C      1  0.4708950000000  0.4403970000000  0.5600960000000 1.0
C      1  0.4835060000000  0.5605640000000  0.5454980000000 1.0
C      1  0.4615950000000  0.4294620000000  0.5336730000000 1.0
C      1  0.4357640000000  0.5070660000000  0.5029640000000 1.0
C      1  0.4560020000000  0.4847960000000  0.5527100000000 1.0
C      1  0.5168500000000  0.5387470000000  0.4916370000000 1.0
C      1  0.3970450000000  0.5285260000000  0.5206330000000 1.0
C      1  0.5002590000000  0.4455280000000  0.5609630000000 1.0
C      1  0.5352270000000  0.4404570000000  0.4346080000000 1.0
C      1  0.5086730000000  0.4599330000000  0.4980820000000 1.0
C      1  0.5296930000000  0.5233220000000  0.5141290000000 1.0
C      1  0.4807090000000  0.4458390000000  0.4937610000000 1.0
C      1  0.5573640000000  0.5462580000000  0.5293650000000 1.0
C      1  0.4330550000000  0.4563450000000  0.4946860000000 1.0
C      1  0.5192680000000  0.5144950000000  0.4197860000000 1.0
C      1  0.4783790000000  0.4084530000000  0.5242460000000 1.0
C      1  0.4649150000000  0.5002250000000  0.5070600000000 1.0
C      1  0.4679000000000  0.5822520000000  0.4948820000000 1.0
C      1  0.4857360000000  0.5170410000000  0.4620800000000 1.0
C      1  0.4359370000000  0.5427150000000  0.4767720000000 1.0
C      1  0.4711450000000  0.4500600000000  0.4648380000000 1.0
C      1  0.4807660000000  0.4946250000000  0.4820830000000 1.0
C      1  0.4326760000000  0.4828370000000  0.4564060000000 1.0
C      1  0.4675240000000  0.5337730000000  0.5450010000000 1.0
C      1  0.5652350000000  0.5288620000000  0.5505180000000 1.0
C      1  0.4577470000000  0.5521200000000  0.4354660000000 1.0
C      1  0.4879210000000  0.5697660000000  0.5157040000000 1.0
C      1  0.5691720000000  0.4629010000000  0.5054300000000 1.0
C      1  0.4462830000000  0.5059640000000  0.4430730000000 1.0
C      1  0.5082540000000  0.5094470000000  0.5276080000000 1.0
C      1  0.4264660000000  0.5561790000000  0.5565370000000 1.0
C      1  0.5096380000000  0.5568850000000  0.4410710000000 1.0
C      1  0.5607450000000  0.5394520000000  0.4760560000000 1.0
C      1  0.5070400000000  0.4171150000000  0.4596650000000 1.0
C      1  0.4731690000000  0.5431220000000  0.4751250000000 1.0
C      1  0.4395200000000  0.5347190000000  0.4483870000000 1.0
C      1  0.5109620000000  0.4736690000000  0.5581740000000 1.0
C      1  0.4846400000000  0.5467780000000  0.4290680000000 1.0
C      1  0.5450010000000  0.4994010000000  0.5027600000000 1.0
C      1  0.5563740000000  0.5272690000000  0.4508830000000 1.0
C      1  0.5124510000000  0.4133470000000  0.4872450000000 1.0
C      1  0.4435560000000  0.5680200000000  0.4883550000000 1.0
C      1  0.4886970000000  0.5431230000000  0.5011080000000 1.0
C      1  0.5512020000000  0.4965400000000  0.4507270000000 1.0
C      1  0.4897480000000  0.5199360000000  0.4185590000000 1.0
C      1  0.5097900000000  0.5762210000000  0.4632670000000 1.0
C      1  0.5375220000000  0.4752390000000  0.5731230000000 1.0
C      1  0.5505750000000  0.4645170000000  0.5288450000000 1.0
C      1  0.4404010000000  0.4547490000000  0.4654330000000 1.0
C      1  0.5695890000000  0.5034560000000  0.5610470000000 1.0
C      1  0.5147520000000  0.4800540000000  0.5261760000000 1.0
C      1  0.5816230000000  0.5106410000000  0.5085120000000 1.0
C      1  0.5172890000000  0.4285490000000  0.5470320000000 1.0
END
