TITL C-950534-5965-392 -0.000606860334146818 125000 -1228.9921637813 0 0 197 (C1) n - 1
REM
REM in /home/bkarasulu/work/CARBON/AIRSS/Generating-Clusters/EDIP-Nigel-Params/with-SteepDescent/Only-C1/SD-CG/HFTN-CG
REM
REM
REM
REM
REM
REM ./C.cell (11c1c37f851c82e70ff6c80c92926a4b)
REM
REM compiler GCC version 9.2.1 20190827 (Red Hat 9.2.1-1)
REM options -cpp -mtune=generic -march=x86-64 -g -O0 -fpre-include=/usr/include/finclude/math-vector-fortran.h
REM seed -1549529724 1692868862 1114042786 -1899118988 678954160 -1700540599 1423292952 1603017914 1335791973 1253933832 1527886541 -1772434567 -1429977360 1070586433 -1157426650 2105566657 -1896659413 -2019249221 1525085533 1920205377 1694360319 1182202908 -40422846 -686814648 1404660375 1796937808 479800792 320134497 -2069775595 1067765531 392740237 1314716612 218147851
REM
CELL 1.54180   50.00000   50.00000   50.00000   90.00000   90.00000   90.00000
LATT -1
SFAC C  
C      1  0.3919030000000  0.4690720000000  0.5234730000000 1.0
C      1  0.5625070000000  0.5810410000000  0.4548090000000 1.0
C      1  0.4524830000000  0.3884960000000  0.4995070000000 1.0
C      1  0.3792050000000  0.5099220000000  0.4610790000000 1.0
C      1  0.4409500000000  0.4418560000000  0.4242240000000 1.0
C      1  0.4292530000000  0.3959760000000  0.5301590000000 1.0
C      1  0.5504190000000  0.4586600000000  0.5001430000000 1.0
C      1  0.4744530000000  0.4829470000000  0.4395540000000 1.0
C      1  0.5629690000000  0.4988760000000  0.4667220000000 1.0
C      1  0.5586330000000  0.4960110000000  0.5959680000000 1.0
C      1  0.3831530000000  0.4901410000000  0.5046900000000 1.0
C      1  0.4572400000000  0.5835760000000  0.4449170000000 1.0
C      1  0.4843870000000  0.4459740000000  0.5852750000000 1.0
C      1  0.5985520000000  0.5394470000000  0.4786410000000 1.0
C      1  0.4922620000000  0.5259860000000  0.5316900000000 1.0
C      1  0.5608450000000  0.4360360000000  0.4490630000000 1.0
C      1  0.5814610000000  0.4275870000000  0.4985250000000 1.0
C      1  0.4792190000000  0.5792280000000  0.4645420000000 1.0
C      1  0.4642800000000  0.4579880000000  0.5364630000000 1.0
C      1  0.4523200000000  0.5405710000000  0.4159640000000 1.0
C      1  0.3931040000000  0.4648380000000  0.4640780000000 1.0
C      1  0.5605190000000  0.5622360000000  0.5015650000000 1.0
C      1  0.4713740000000  0.4843960000000  0.3819920000000 1.0
C      1  0.4208990000000  0.5435590000000  0.5707470000000 1.0
C      1  0.4800320000000  0.5801730000000  0.5436030000000 1.0
C      1  0.4762610000000  0.5362640000000  0.4587760000000 1.0
C      1  0.3960550000000  0.5036650000000  0.5580400000000 1.0
C      1  0.5922740000000  0.5502530000000  0.5520770000000 1.0
C      1  0.4183690000000  0.4684060000000  0.5910150000000 1.0
C      1  0.4755740000000  0.3972530000000  0.4553170000000 1.0
C      1  0.5177800000000  0.4984810000000  0.5670300000000 1.0
C      1  0.4442050000000  0.5018410000000  0.5786960000000 1.0
C      1  0.5040030000000  0.3883220000000  0.5576410000000 1.0
C      1  0.5709410000000  0.5041070000000  0.5702820000000 1.0
C      1  0.4290980000000  0.5349170000000  0.4555210000000 1.0
C      1  0.5242220000000  0.5894920000000  0.4126680000000 1.0
C      1  0.5624170000000  0.4075130000000  0.4878960000000 1.0
C      1  0.6045800000000  0.4355670000000  0.4849880000000 1.0
C      1  0.5235420000000  0.4543280000000  0.5663290000000 1.0
C      1  0.5575200000000  0.4075190000000  0.4593470000000 1.0
C      1  0.5380370000000  0.4278210000000  0.5689500000000 1.0
C      1  0.5330560000000  0.4467860000000  0.4418750000000 1.0
C      1  0.4333760000000  0.4441390000000  0.4701910000000 1.0
C      1  0.6155000000000  0.4917910000000  0.4800170000000 1.0
C      1  0.5187070000000  0.4306810000000  0.4625200000000 1.0
C      1  0.5521170000000  0.5458520000000  0.5889480000000 1.0
C      1  0.5707780000000  0.5093920000000  0.4998320000000 1.0
C      1  0.5534710000000  0.5735110000000  0.5770610000000 1.0
C      1  0.5048520000000  0.6167960000000  0.5441290000000 1.0
C      1  0.5269790000000  0.5324520000000  0.6009320000000 1.0
C      1  0.4684900000000  0.4587670000000  0.3890180000000 1.0
C      1  0.4198280000000  0.4624910000000  0.5635130000000 1.0
C      1  0.4686070000000  0.5097790000000  0.4979200000000 1.0
C      1  0.4871620000000  0.5068480000000  0.3867110000000 1.0
C      1  0.5855490000000  0.4628750000000  0.4190800000000 1.0
C      1  0.6130880000000  0.4870970000000  0.4522630000000 1.0
C      1  0.5728320000000  0.5313700000000  0.4599570000000 1.0
C      1  0.4481970000000  0.4000070000000  0.4492180000000 1.0
C      1  0.4892760000000  0.4431170000000  0.5265030000000 1.0
C      1  0.5123850000000  0.5255040000000  0.5524490000000 1.0
C      1  0.4946610000000  0.5004400000000  0.4324850000000 1.0
C      1  0.5141960000000  0.4736720000000  0.6119760000000 1.0
C      1  0.5374960000000  0.5435270000000  0.4048040000000 1.0
C      1  0.5736620000000  0.5733630000000  0.5539620000000 1.0
C      1  0.4413770000000  0.4435590000000  0.5544710000000 1.0
C      1  0.5606540000000  0.5037540000000  0.4013020000000 1.0
C      1  0.4306700000000  0.5821750000000  0.4548440000000 1.0
C      1  0.4694740000000  0.4785070000000  0.4669030000000 1.0
C      1  0.5801060000000  0.5855620000000  0.5052430000000 1.0
C      1  0.3949810000000  0.5040010000000  0.4362760000000 1.0
C      1  0.4630650000000  0.4751690000000  0.6137350000000 1.0
C      1  0.4903280000000  0.4827740000000  0.5722930000000 1.0
C      1  0.4010930000000  0.5306940000000  0.5541030000000 1.0
C      1  0.5423830000000  0.4020840000000  0.5273680000000 1.0
C      1  0.4478770000000  0.4659340000000  0.5137330000000 1.0
C      1  0.4883210000000  0.5683490000000  0.5969990000000 1.0
C      1  0.4090170000000  0.4819940000000  0.5439310000000 1.0
C      1  0.5292670000000  0.5620240000000  0.5207290000000 1.0
C      1  0.5658490000000  0.4660630000000  0.4735720000000 1.0
C      1  0.5286250000000  0.5209100000000  0.4924550000000 1.0
C      1  0.5904200000000  0.4869910000000  0.4343660000000 1.0
C      1  0.4587050000000  0.4174970000000  0.5068780000000 1.0
C      1  0.5010700000000  0.3999340000000  0.5002350000000 1.0
C      1  0.4627530000000  0.5581320000000  0.4997900000000 1.0
C      1  0.5048010000000  0.5853020000000  0.5220530000000 1.0
C      1  0.5248050000000  0.3847970000000  0.5396400000000 1.0
C      1  0.6078330000000  0.5814070000000  0.4997720000000 1.0
C      1  0.4801090000000  0.5367800000000  0.4875170000000 1.0
C      1  0.5905450000000  0.5838180000000  0.4575120000000 1.0
C      1  0.4582100000000  0.6089450000000  0.4989570000000 1.0
C      1  0.5329850000000  0.5468610000000  0.5490780000000 1.0
C      1  0.5357840000000  0.4813600000000  0.5182690000000 1.0
C      1  0.5616470000000  0.5320110000000  0.5628810000000 1.0
C      1  0.5415350000000  0.6202990000000  0.5047370000000 1.0
C      1  0.3961520000000  0.5568440000000  0.4825800000000 1.0
C      1  0.4912580000000  0.4300750000000  0.4232150000000 1.0
C      1  0.5607970000000  0.4666540000000  0.5981950000000 1.0
C      1  0.4239030000000  0.4253060000000  0.5326340000000 1.0
C      1  0.3800490000000  0.5192260000000  0.5094890000000 1.0
C      1  0.4639880000000  0.5338940000000  0.5412380000000 1.0
C      1  0.5284070000000  0.4018880000000  0.4565840000000 1.0
C      1  0.4798030000000  0.3861250000000  0.4837470000000 1.0
C      1  0.4882430000000  0.4601230000000  0.6110020000000 1.0
C      1  0.4152470000000  0.5590280000000  0.4597240000000 1.0
C      1  0.4050120000000  0.5597370000000  0.5111750000000 1.0
C      1  0.4256860000000  0.5348340000000  0.4058690000000 1.0
C      1  0.4024880000000  0.4757750000000  0.4376450000000 1.0
C      1  0.4528990000000  0.5623440000000  0.5830090000000 1.0
C      1  0.4746090000000  0.4848980000000  0.5458260000000 1.0
C      1  0.4253040000000  0.4662910000000  0.4222440000000 1.0
C      1  0.5923970000000  0.4907090000000  0.5107720000000 1.0
C      1  0.5087760000000  0.4829960000000  0.5055000000000 1.0
C      1  0.5339520000000  0.4081780000000  0.5002860000000 1.0
C      1  0.4400630000000  0.5145150000000  0.5060230000000 1.0
C      1  0.5192860000000  0.3898130000000  0.4330340000000 1.0
C      1  0.5337710000000  0.5138390000000  0.4050330000000 1.0
C      1  0.4418130000000  0.4566180000000  0.6018720000000 1.0
C      1  0.5263640000000  0.4391760000000  0.4926620000000 1.0
C      1  0.4825460000000  0.6199380000000  0.4946060000000 1.0
C      1  0.3959820000000  0.5369320000000  0.5265730000000 1.0
C      1  0.4690420000000  0.5575090000000  0.5584840000000 1.0
C      1  0.5528110000000  0.5584060000000  0.4714390000000 1.0
C      1  0.5181740000000  0.5955430000000  0.4396700000000 1.0
C      1  0.5004540000000  0.4544070000000  0.5013470000000 1.0
C      1  0.4060060000000  0.4443350000000  0.4816730000000 1.0
C      1  0.4526220000000  0.5398250000000  0.6047480000000 1.0
C      1  0.5414920000000  0.6029270000000  0.4573910000000 1.0
C      1  0.5055220000000  0.5732880000000  0.4547510000000 1.0
C      1  0.4596800000000  0.5700550000000  0.4186950000000 1.0
C      1  0.4932930000000  0.3993050000000  0.4295970000000 1.0
C      1  0.4365020000000  0.4250600000000  0.4475950000000 1.0
C      1  0.4473700000000  0.5832790000000  0.5008030000000 1.0
C      1  0.4264120000000  0.5767760000000  0.5190120000000 1.0
C      1  0.4897760000000  0.5577800000000  0.3990450000000 1.0
C      1  0.4537390000000  0.4437510000000  0.4927370000000 1.0
C      1  0.5824000000000  0.5091150000000  0.4182390000000 1.0
C      1  0.4659730000000  0.4396950000000  0.4089780000000 1.0
C      1  0.6181380000000  0.5178040000000  0.5192680000000 1.0
C      1  0.5533880000000  0.4240270000000  0.5420220000000 1.0
C      1  0.5791730000000  0.5346790000000  0.4309110000000 1.0
C      1  0.6006820000000  0.5400150000000  0.5262530000000 1.0
C      1  0.6070330000000  0.5685300000000  0.4746420000000 1.0
C      1  0.5270860000000  0.5818350000000  0.5661880000000 1.0
C      1  0.5951950000000  0.4553530000000  0.4662430000000 1.0
C      1  0.4971100000000  0.4212760000000  0.5899820000000 1.0
C      1  0.4414080000000  0.4715440000000  0.4569890000000 1.0
C      1  0.5333470000000  0.4552470000000  0.5962980000000 1.0
C      1  0.5303150000000  0.6064040000000  0.5499190000000 1.0
C      1  0.4552630000000  0.4395270000000  0.5817790000000 1.0
C      1  0.5750780000000  0.4575690000000  0.5755890000000 1.0
C      1  0.5740320000000  0.4400100000000  0.5250470000000 1.0
C      1  0.4891970000000  0.4334430000000  0.4571740000000 1.0
C      1  0.4543020000000  0.3834370000000  0.5377400000000 1.0
C      1  0.5622450000000  0.4604510000000  0.4028440000000 1.0
C      1  0.5454040000000  0.5086790000000  0.5134240000000 1.0
C      1  0.4871690000000  0.4990790000000  0.5204920000000 1.0
C      1  0.5166920000000  0.4068920000000  0.5772700000000 1.0
C      1  0.5351270000000  0.4569790000000  0.3953870000000 1.0
C      1  0.4843760000000  0.4148010000000  0.5209610000000 1.0
C      1  0.5714510000000  0.5931580000000  0.5317630000000 1.0
C      1  0.4309650000000  0.5253620000000  0.5907150000000 1.0
C      1  0.4535980000000  0.5291490000000  0.4434350000000 1.0
C      1  0.4762160000000  0.5319580000000  0.3983600000000 1.0
C      1  0.5034660000000  0.5889780000000  0.5839790000000 1.0
C      1  0.5362580000000  0.4769800000000  0.5502670000000 1.0
C      1  0.4781860000000  0.3988190000000  0.5453990000000 1.0
C      1  0.5235120000000  0.4759950000000  0.3782940000000 1.0
C      1  0.4340490000000  0.4924660000000  0.5267020000000 1.0
C      1  0.3767000000000  0.4848120000000  0.4769080000000 1.0
C      1  0.3803490000000  0.5312440000000  0.4824820000000 1.0
C      1  0.4518650000000  0.5046040000000  0.5499270000000 1.0
C      1  0.5160100000000  0.5026440000000  0.3833290000000 1.0
C      1  0.4038570000000  0.4433150000000  0.5126960000000 1.0
C      1  0.5230340000000  0.5612390000000  0.4747190000000 1.0
C      1  0.6192970000000  0.5183280000000  0.4897300000000 1.0
C      1  0.4044270000000  0.5217070000000  0.4164990000000 1.0
C      1  0.5188460000000  0.4446970000000  0.4166230000000 1.0
C      1  0.4775000000000  0.5234670000000  0.6060100000000 1.0
C      1  0.5807160000000  0.5387500000000  0.5040270000000 1.0
C      1  0.5622640000000  0.5505650000000  0.4151980000000 1.0
C      1  0.4990740000000  0.5418410000000  0.5993570000000 1.0
C      1  0.4449820000000  0.5425020000000  0.5180270000000 1.0
C      1  0.4874630000000  0.6020190000000  0.5617810000000 1.0
C      1  0.5452180000000  0.6030290000000  0.5265160000000 1.0
C      1  0.4790010000000  0.4529360000000  0.4791270000000 1.0
C      1  0.5890390000000  0.4419480000000  0.4385590000000 1.0
C      1  0.5294660000000  0.5026170000000  0.5956860000000 1.0
C      1  0.5138630000000  0.4989830000000  0.4794000000000 1.0
C      1  0.5289980000000  0.6041980000000  0.4852320000000 1.0
C      1  0.4994060000000  0.5963870000000  0.4918350000000 1.0
C      1  0.5336350000000  0.4951810000000  0.4570320000000 1.0
C      1  0.5221760000000  0.5050280000000  0.4319150000000 1.0
C      1  0.5811400000000  0.4697340000000  0.5302050000000 1.0
C      1  0.4698590000000  0.4965940000000  0.5933540000000 1.0
C      1  0.5669090000000  0.4777420000000  0.5556540000000 1.0
C      1  0.5123350000000  0.5446400000000  0.4969060000000 1.0
C      1  0.5171920000000  0.5637050000000  0.4042120000000 1.0
END
