TITL C-951336-9012-334 -2.11936727140603e-06 125000 -354.460244405527 0 0 58 (C1) n - 1
REM
REM in /home/bkarasulu/work/CARBON/AIRSS/Generating-Clusters/EDIP-Nigel-Params/with-SteepDescent/Only-C1/SD-CG/HFTN-CG
REM
REM
REM
REM
REM
REM ./C.cell (11c1c37f851c82e70ff6c80c92926a4b)
REM
REM compiler GCC version 9.2.1 20190827 (Red Hat 9.2.1-1)
REM options -cpp -mtune=generic -march=x86-64 -g -O0 -fpre-include=/usr/include/finclude/math-vector-fortran.h
REM seed 2007687786 -1274659528 -443278191 -1005602162 -2083008544 1477249706 1295877265 1313416034 -2103476762 -256525602 -987528963 -574590769 -382928315 -617527088 67821113 1374030147 1949440664 439883830 1637551423 1938316226 -2038679059 547471801 -1467954644 -605039916 1095078596 68957353 -1425912399 1231340926 218858016 1316040713 691819129 -817231281 1199398473
REM
CELL 1.54180   50.00000   50.00000   50.00000   90.00000   90.00000   90.00000
LATT -1
SFAC C  
C      1  0.5534570000000  0.5301910000000  0.5278130000000 1.0
C      1  0.5204800000000  0.4959540000000  0.5156400000000 1.0
C      1  0.4955860000000  0.5308130000000  0.5715810000000 1.0
C      1  0.4979090000000  0.4326980000000  0.5078730000000 1.0
C      1  0.5383870000000  0.4852330000000  0.4677930000000 1.0
C      1  0.5226450000000  0.4412870000000  0.5207850000000 1.0
C      1  0.5034140000000  0.5343270000000  0.5417960000000 1.0
C      1  0.4152020000000  0.4872170000000  0.4994480000000 1.0
C      1  0.4828010000000  0.4509530000000  0.4286750000000 1.0
C      1  0.4617930000000  0.4969830000000  0.4327190000000 1.0
C      1  0.4758830000000  0.5491900000000  0.5054350000000 1.0
C      1  0.5164100000000  0.5372920000000  0.4435290000000 1.0
C      1  0.5031230000000  0.4243010000000  0.4808000000000 1.0
C      1  0.5083900000000  0.5045320000000  0.5794750000000 1.0
C      1  0.4515880000000  0.5467380000000  0.4881290000000 1.0
C      1  0.5197640000000  0.5657750000000  0.5090840000000 1.0
C      1  0.5342880000000  0.5022330000000  0.5635460000000 1.0
C      1  0.4743260000000  0.5199540000000  0.4612660000000 1.0
C      1  0.5423710000000  0.5003040000000  0.4948990000000 1.0
C      1  0.4745450000000  0.5665040000000  0.5307210000000 1.0
C      1  0.4577830000000  0.5433820000000  0.4611030000000 1.0
C      1  0.5082240000000  0.5323160000000  0.4724780000000 1.0
C      1  0.4663900000000  0.5293110000000  0.5666910000000 1.0
C      1  0.5014970000000  0.5214630000000  0.4268230000000 1.0
C      1  0.5588930000000  0.5331500000000  0.4635350000000 1.0
C      1  0.4688530000000  0.4547000000000  0.4533340000000 1.0
C      1  0.4953970000000  0.5032710000000  0.5035220000000 1.0
C      1  0.5385650000000  0.5286590000000  0.4841580000000 1.0
C      1  0.5054720000000  0.5644380000000  0.5356790000000 1.0
C      1  0.5500860000000  0.4329260000000  0.4792370000000 1.0
C      1  0.4306250000000  0.5314790000000  0.4979570000000 1.0
C      1  0.4773820000000  0.4815220000000  0.4950100000000 1.0
C      1  0.5168630000000  0.4649110000000  0.4593000000000 1.0
C      1  0.4893030000000  0.4600870000000  0.4747620000000 1.0
C      1  0.4868350000000  0.4861230000000  0.5705280000000 1.0
C      1  0.5642510000000  0.4831330000000  0.5353960000000 1.0
C      1  0.4485180000000  0.4813950000000  0.5435550000000 1.0
C      1  0.5653780000000  0.5038910000000  0.5161270000000 1.0
C      1  0.4596730000000  0.5516240000000  0.5500300000000 1.0
C      1  0.5282240000000  0.5167290000000  0.5376800000000 1.0
C      1  0.5454720000000  0.4364930000000  0.5055820000000 1.0
C      1  0.4700110000000  0.4642350000000  0.5351250000000 1.0
C      1  0.4898660000000  0.4963840000000  0.4275020000000 1.0
C      1  0.4576940000000  0.4960990000000  0.4769280000000 1.0
C      1  0.5435560000000  0.4758000000000  0.5533710000000 1.0
C      1  0.4327620000000  0.5049400000000  0.4907040000000 1.0
C      1  0.5039550000000  0.4700370000000  0.4313150000000 1.0
C      1  0.4514570000000  0.4786520000000  0.4528800000000 1.0
C      1  0.4995910000000  0.5568670000000  0.4884500000000 1.0
C      1  0.5442770000000  0.5480270000000  0.5059610000000 1.0
C      1  0.4836250000000  0.5238430000000  0.5199240000000 1.0
C      1  0.5197710000000  0.4646210000000  0.5385040000000 1.0
C      1  0.4729630000000  0.4470940000000  0.5126150000000 1.0
C      1  0.5445630000000  0.5289870000000  0.4392960000000 1.0
C      1  0.5254840000000  0.4360670000000  0.4657850000000 1.0
C      1  0.4933720000000  0.4649440000000  0.5519880000000 1.0
C      1  0.5483050000000  0.5003150000000  0.4452600000000 1.0
C      1  0.4627030000000  0.4996030000000  0.5608970000000 1.0
END
