TITL C-950532-2784-728 2.11575086230038e-07 125000 -171.3026683376 0 0 29 (C1) n - 1
REM
REM in /home/bkarasulu/work/CARBON/AIRSS/Generating-Clusters/EDIP-Nigel-Params/with-SteepDescent/Only-C1/SD-CG/HFTN-CG
REM
REM
REM
REM
REM
REM ./C.cell (11c1c37f851c82e70ff6c80c92926a4b)
REM
REM compiler GCC version 9.2.1 20190827 (Red Hat 9.2.1-1)
REM options -cpp -mtune=generic -march=x86-64 -g -O0 -fpre-include=/usr/include/finclude/math-vector-fortran.h
REM seed 1090882327 -26978926 -69143855 -409289913 1404061078 -423029326 -1468117323 -1364408259 730477578 478041594 1063190940 -987423085 1845611623 -539716118 -2082698094 -1476740330 1638228577 1511568037 317265532 135510742 -1723581258 -804450813 190207037 -1939522399 -285114607 934251212 105173775 -2127458304 -1582074415 575232359 -287287078 2092892039 -1112265350
REM
CELL 1.54180   50.00000   50.00000   50.00000   90.00000   90.00000   90.00000
LATT -1
SFAC C  
C      1  0.4815730000000  0.5067690000000  0.5466830000000 1.0
C      1  0.4732590000000  0.4876750000000  0.5276470000000 1.0
C      1  0.5259260000000  0.4681200000000  0.5395830000000 1.0
C      1  0.5414180000000  0.4921180000000  0.4712640000000 1.0
C      1  0.5446950000000  0.4949380000000  0.5009740000000 1.0
C      1  0.5185970000000  0.4543970000000  0.4920200000000 1.0
C      1  0.4972770000000  0.5269280000000  0.5322330000000 1.0
C      1  0.5277970000000  0.5248510000000  0.5359330000000 1.0
C      1  0.5105070000000  0.4677740000000  0.4436100000000 1.0
C      1  0.4521740000000  0.4959600000000  0.5087340000000 1.0
C      1  0.4939920000000  0.5017740000000  0.4524190000000 1.0
C      1  0.5396730000000  0.5236420000000  0.5080430000000 1.0
C      1  0.4718630000000  0.5639610000000  0.5159410000000 1.0
C      1  0.5181290000000  0.5298280000000  0.4878820000000 1.0
C      1  0.4681060000000  0.5272640000000  0.4913670000000 1.0
C      1  0.4549940000000  0.4870520000000  0.4798990000000 1.0
C      1  0.4927960000000  0.4883120000000  0.5043040000000 1.0
C      1  0.4727160000000  0.4635270000000  0.4736120000000 1.0
C      1  0.4868060000000  0.5534330000000  0.5354870000000 1.0
C      1  0.5206930000000  0.4831130000000  0.5623850000000 1.0
C      1  0.4905070000000  0.4495300000000  0.4908730000000 1.0
C      1  0.5221130000000  0.4769780000000  0.5114450000000 1.0
C      1  0.4828490000000  0.4651520000000  0.4468270000000 1.0
C      1  0.4945940000000  0.5195960000000  0.5029560000000 1.0
C      1  0.4670700000000  0.5114520000000  0.4645010000000 1.0
C      1  0.5374060000000  0.5026170000000  0.5519230000000 1.0
C      1  0.5298370000000  0.4647830000000  0.4654210000000 1.0
C      1  0.5206560000000  0.5129660000000  0.4635740000000 1.0
C      1  0.4619760000000  0.5554880000000  0.4924580000000 1.0
END
