TITL C-951343-2256-107 -3.10179970988579e-06 125000 -349.79778400265 0 0 58 (C1) n - 1
REM
REM in /home/bkarasulu/work/CARBON/AIRSS/Generating-Clusters/EDIP-Nigel-Params/with-SteepDescent/Only-C1/SD-CG/HFTN-CG
REM
REM
REM
REM
REM
REM ./C.cell (11c1c37f851c82e70ff6c80c92926a4b)
REM
REM compiler GCC version 9.2.1 20190827 (Red Hat 9.2.1-1)
REM options -cpp -mtune=generic -march=x86-64 -g -O0 -fpre-include=/usr/include/finclude/math-vector-fortran.h
REM seed 1012438524 -873525302 1969574570 236751100 -845160628 -597906199 930316229 127553587 -739768255 2142232446 1699918019 -1249683961 1991133213 47555449 2092981646 -230559353 1599593714 1365197281 945605668 -1919458591 -1837875371 808193805 2142763955 1160581340 -2106325798 -849529334 -1818065347 2017383652 2100477734 -466676860 -162857665 878175492 1937482440
REM
CELL 1.54180   50.00000   50.00000   50.00000   90.00000   90.00000   90.00000
LATT -1
SFAC C  
C      1  0.5252020000000  0.5186610000000  0.4872130000000 1.0
C      1  0.4477070000000  0.4473940000000  0.5495850000000 1.0
C      1  0.5642230000000  0.5315070000000  0.5132930000000 1.0
C      1  0.4420790000000  0.5563480000000  0.4755370000000 1.0
C      1  0.5197640000000  0.4362950000000  0.4984650000000 1.0
C      1  0.4854690000000  0.5108210000000  0.5711340000000 1.0
C      1  0.4823920000000  0.4241560000000  0.5268080000000 1.0
C      1  0.5425510000000  0.4858760000000  0.4400030000000 1.0
C      1  0.5671890000000  0.4890990000000  0.4907640000000 1.0
C      1  0.4492160000000  0.4635180000000  0.4850990000000 1.0
C      1  0.4748690000000  0.4417140000000  0.5465500000000 1.0
C      1  0.4362470000000  0.4697610000000  0.5371940000000 1.0
C      1  0.5599790000000  0.4845720000000  0.4629110000000 1.0
C      1  0.4943850000000  0.5213950000000  0.4833450000000 1.0
C      1  0.4581320000000  0.5485750000000  0.4536610000000 1.0
C      1  0.4457100000000  0.5119200000000  0.4962500000000 1.0
C      1  0.5296500000000  0.4989850000000  0.5111930000000 1.0
C      1  0.4901990000000  0.4301910000000  0.5008630000000 1.0
C      1  0.4673760000000  0.5288730000000  0.5578500000000 1.0
C      1  0.4618320000000  0.5001830000000  0.5173380000000 1.0
C      1  0.5315920000000  0.4558900000000  0.5175470000000 1.0
C      1  0.4703310000000  0.4443000000000  0.4854330000000 1.0
C      1  0.5223360000000  0.5621650000000  0.5118000000000 1.0
C      1  0.4465400000000  0.5280400000000  0.4379960000000 1.0
C      1  0.5395930000000  0.5179600000000  0.4605900000000 1.0
C      1  0.5068780000000  0.5454460000000  0.5323040000000 1.0
C      1  0.4869700000000  0.5444570000000  0.4619990000000 1.0
C      1  0.5118760000000  0.4540570000000  0.4587470000000 1.0
C      1  0.5373300000000  0.5675800000000  0.4623840000000 1.0
C      1  0.4728030000000  0.4852970000000  0.5651190000000 1.0
C      1  0.5409880000000  0.5427360000000  0.4971760000000 1.0
C      1  0.5111380000000  0.5057640000000  0.5565080000000 1.0
C      1  0.5262240000000  0.5298160000000  0.5494340000000 1.0
C      1  0.5475980000000  0.5145370000000  0.5318730000000 1.0
C      1  0.5323980000000  0.5442040000000  0.4470570000000 1.0
C      1  0.4859740000000  0.5179920000000  0.5140580000000 1.0
C      1  0.4539150000000  0.4917240000000  0.4741150000000 1.0
C      1  0.5581280000000  0.4715740000000  0.5148030000000 1.0
C      1  0.5041910000000  0.4958460000000  0.5275840000000 1.0
C      1  0.4918040000000  0.4658570000000  0.5495360000000 1.0
C      1  0.5792440000000  0.5136610000000  0.4976860000000 1.0
C      1  0.5596720000000  0.4875590000000  0.5411530000000 1.0
C      1  0.5052230000000  0.5446780000000  0.4404190000000 1.0
C      1  0.5420710000000  0.4743880000000  0.5591850000000 1.0
C      1  0.4849010000000  0.4955890000000  0.4698420000000 1.0
C      1  0.5298040000000  0.4364950000000  0.4715770000000 1.0
C      1  0.4516010000000  0.5407830000000  0.4967270000000 1.0
C      1  0.4606550000000  0.5534480000000  0.5199670000000 1.0
C      1  0.5222420000000  0.4594200000000  0.5453010000000 1.0
C      1  0.5202540000000  0.4679680000000  0.4342700000000 1.0
C      1  0.5008800000000  0.4730430000000  0.4763640000000 1.0
C      1  0.4821140000000  0.4978380000000  0.4400030000000 1.0
C      1  0.4349260000000  0.4657850000000  0.5092670000000 1.0
C      1  0.4778090000000  0.5503930000000  0.5417250000000 1.0
C      1  0.4510250000000  0.4956310000000  0.5454460000000 1.0
C      1  0.5253080000000  0.5768700000000  0.4860610000000 1.0
C      1  0.4524830000000  0.5010480000000  0.4400320000000 1.0
C      1  0.4970080000000  0.4803190000000  0.4238520000000 1.0
END
