TITL C-950534-5965-585 -2.59573499553164e-06 125000 -1244.88008443886 0 0 198 (C1) n - 1
REM
REM in /home/bkarasulu/work/CARBON/AIRSS/Generating-Clusters/EDIP-Nigel-Params/with-SteepDescent/Only-C1/SD-CG/HFTN-CG
REM
REM
REM
REM
REM
REM ./C.cell (11c1c37f851c82e70ff6c80c92926a4b)
REM
REM compiler GCC version 9.2.1 20190827 (Red Hat 9.2.1-1)
REM options -cpp -mtune=generic -march=x86-64 -g -O0 -fpre-include=/usr/include/finclude/math-vector-fortran.h
REM seed -2126598347 1400216309 -989875914 -2051220889 -1969560812 593659463 416422367 -447997746 1844733414 -659045616 1708187352 1256946930 1451316297 -1929687711 -903417502 331490070 -1810499174 1957699596 1032916503 -979674758 -1181519913 -1922407545 -1780480300 -1342889744 -54844030 -894590505 -551226760 -1150405527 -1796879280 418966436 -1765111144 1908833373 2052600905
REM
CELL 1.54180   50.00000   50.00000   50.00000   90.00000   90.00000   90.00000
LATT -1
SFAC C  
C      1  0.5402510000000  0.5146910000000  0.5153560000000 1.0
C      1  0.5251530000000  0.4976670000000  0.4735270000000 1.0
C      1  0.4413800000000  0.4827110000000  0.5924610000000 1.0
C      1  0.4434600000000  0.5142200000000  0.4976710000000 1.0
C      1  0.4768880000000  0.4573640000000  0.4047700000000 1.0
C      1  0.4660850000000  0.6098480000000  0.4927860000000 1.0
C      1  0.4995170000000  0.5503770000000  0.5168180000000 1.0
C      1  0.4611360000000  0.4635650000000  0.6049350000000 1.0
C      1  0.4793550000000  0.4921850000000  0.4845640000000 1.0
C      1  0.5701430000000  0.5902010000000  0.5502840000000 1.0
C      1  0.5638410000000  0.4299220000000  0.5235850000000 1.0
C      1  0.5702440000000  0.4314600000000  0.4451770000000 1.0
C      1  0.5458590000000  0.4819040000000  0.6197640000000 1.0
C      1  0.4791550000000  0.4552580000000  0.5354430000000 1.0
C      1  0.4754320000000  0.5109740000000  0.6151370000000 1.0
C      1  0.4082030000000  0.4867470000000  0.5575500000000 1.0
C      1  0.4627930000000  0.5279000000000  0.4049500000000 1.0
C      1  0.4922450000000  0.5285190000000  0.5692030000000 1.0
C      1  0.5363530000000  0.5475250000000  0.5484930000000 1.0
C      1  0.5267800000000  0.5909080000000  0.5679130000000 1.0
C      1  0.4567990000000  0.5570690000000  0.4018850000000 1.0
C      1  0.5393870000000  0.4191230000000  0.5392410000000 1.0
C      1  0.5373630000000  0.4663140000000  0.3841000000000 1.0
C      1  0.5160460000000  0.4730070000000  0.5673130000000 1.0
C      1  0.4464390000000  0.6001960000000  0.4744070000000 1.0
C      1  0.3984410000000  0.4794070000000  0.5310460000000 1.0
C      1  0.4026020000000  0.5408060000000  0.4516160000000 1.0
C      1  0.5165020000000  0.4842610000000  0.6178700000000 1.0
C      1  0.5720370000000  0.5878490000000  0.4895200000000 1.0
C      1  0.3893300000000  0.5013440000000  0.5139920000000 1.0
C      1  0.5855930000000  0.5119070000000  0.4945860000000 1.0
C      1  0.5202040000000  0.5181510000000  0.4929280000000 1.0
C      1  0.5653240000000  0.5003180000000  0.6018150000000 1.0
C      1  0.5322910000000  0.4534380000000  0.4534940000000 1.0
C      1  0.5225220000000  0.5634240000000  0.5275590000000 1.0
C      1  0.4459780000000  0.5750530000000  0.4331930000000 1.0
C      1  0.4564830000000  0.5590170000000  0.5098740000000 1.0
C      1  0.4869490000000  0.4281930000000  0.5478520000000 1.0
C      1  0.4532650000000  0.4195110000000  0.4305950000000 1.0
C      1  0.4922970000000  0.5144060000000  0.5046670000000 1.0
C      1  0.4973040000000  0.5894440000000  0.5598890000000 1.0
C      1  0.4090820000000  0.5610070000000  0.5549230000000 1.0
C      1  0.4831510000000  0.5643730000000  0.4988970000000 1.0
C      1  0.5271640000000  0.4572220000000  0.4097990000000 1.0
C      1  0.5003740000000  0.4145100000000  0.4238730000000 1.0
C      1  0.5890620000000  0.4443680000000  0.5358880000000 1.0
C      1  0.6224300000000  0.5070000000000  0.5215390000000 1.0
C      1  0.5659470000000  0.5618620000000  0.4541390000000 1.0
C      1  0.4557830000000  0.4062580000000  0.5023120000000 1.0
C      1  0.4602320000000  0.4913710000000  0.3777600000000 1.0
C      1  0.4042520000000  0.4474440000000  0.4919250000000 1.0
C      1  0.4255110000000  0.4364660000000  0.5351080000000 1.0
C      1  0.4843170000000  0.5238660000000  0.4269960000000 1.0
C      1  0.6248040000000  0.5042810000000  0.4729510000000 1.0
C      1  0.5934640000000  0.4935940000000  0.4343620000000 1.0
C      1  0.4936380000000  0.4602630000000  0.3814120000000 1.0
C      1  0.5213340000000  0.5859820000000  0.4495020000000 1.0
C      1  0.3879580000000  0.5150350000000  0.4594180000000 1.0
C      1  0.4436820000000  0.4140150000000  0.5277950000000 1.0
C      1  0.4022340000000  0.5347280000000  0.5494240000000 1.0
C      1  0.4411070000000  0.5815440000000  0.5244810000000 1.0
C      1  0.4714190000000  0.5401570000000  0.6109430000000 1.0
C      1  0.5581810000000  0.5018940000000  0.5716010000000 1.0
C      1  0.4337160000000  0.5737390000000  0.5530660000000 1.0
C      1  0.4531060000000  0.5622180000000  0.5712630000000 1.0
C      1  0.3852580000000  0.5497670000000  0.5067410000000 1.0
C      1  0.4698420000000  0.5112360000000  0.4523140000000 1.0
C      1  0.5546030000000  0.4577820000000  0.6055430000000 1.0
C      1  0.4053920000000  0.4813560000000  0.4223590000000 1.0
C      1  0.4924660000000  0.5503950000000  0.5899180000000 1.0
C      1  0.4706080000000  0.4374630000000  0.5928930000000 1.0
C      1  0.5461990000000  0.4887320000000  0.5247700000000 1.0
C      1  0.5228020000000  0.5997470000000  0.4758460000000 1.0
C      1  0.4912800000000  0.5538790000000  0.4725660000000 1.0
C      1  0.5209800000000  0.5553690000000  0.5980950000000 1.0
C      1  0.4121690000000  0.5634500000000  0.4685280000000 1.0
C      1  0.4000380000000  0.5696670000000  0.4939980000000 1.0
C      1  0.4858000000000  0.4763620000000  0.5784910000000 1.0
C      1  0.4130460000000  0.5136780000000  0.5660330000000 1.0
C      1  0.5064830000000  0.6098750000000  0.5176980000000 1.0
C      1  0.5154370000000  0.4610980000000  0.5041990000000 1.0
C      1  0.4899820000000  0.4733910000000  0.4281010000000 1.0
C      1  0.4402210000000  0.4068670000000  0.4782800000000 1.0
C      1  0.4631780000000  0.4685700000000  0.4965500000000 1.0
C      1  0.5170610000000  0.5093840000000  0.6000870000000 1.0
C      1  0.5032960000000  0.5010790000000  0.4183200000000 1.0
C      1  0.5764530000000  0.4651200000000  0.5885230000000 1.0
C      1  0.5130990000000  0.4794340000000  0.3743830000000 1.0
C      1  0.3884370000000  0.4987820000000  0.4360630000000 1.0
C      1  0.5419300000000  0.4223280000000  0.5682240000000 1.0
C      1  0.5811140000000  0.5692700000000  0.5357940000000 1.0
C      1  0.4593950000000  0.6060350000000  0.5220430000000 1.0
C      1  0.4965580000000  0.5002130000000  0.6320650000000 1.0
C      1  0.5436240000000  0.4660810000000  0.5087150000000 1.0
C      1  0.4672280000000  0.5016480000000  0.5448980000000 1.0
C      1  0.4953460000000  0.5019300000000  0.5317970000000 1.0
C      1  0.4350830000000  0.5137840000000  0.5860340000000 1.0
C      1  0.4885270000000  0.4337300000000  0.4707980000000 1.0
C      1  0.4439470000000  0.5420930000000  0.4909730000000 1.0
C      1  0.4317090000000  0.4440300000000  0.5618710000000 1.0
C      1  0.4162380000000  0.5857150000000  0.5101860000000 1.0
C      1  0.5269810000000  0.4278410000000  0.4169060000000 1.0
C      1  0.5053410000000  0.4772220000000  0.4795640000000 1.0
C      1  0.5765270000000  0.5113320000000  0.4641710000000 1.0
C      1  0.4433800000000  0.5258260000000  0.4558460000000 1.0
C      1  0.4959750000000  0.4339440000000  0.5760830000000 1.0
C      1  0.5315320000000  0.5051210000000  0.4306700000000 1.0
C      1  0.5626180000000  0.4686280000000  0.4857650000000 1.0
C      1  0.5531670000000  0.4899230000000  0.4658350000000 1.0
C      1  0.4504110000000  0.4727280000000  0.3968070000000 1.0
C      1  0.4724440000000  0.5865500000000  0.4309400000000 1.0
C      1  0.6101680000000  0.4961310000000  0.5445490000000 1.0
C      1  0.5793030000000  0.4442200000000  0.4721250000000 1.0
C      1  0.4796130000000  0.5738880000000  0.5768200000000 1.0
C      1  0.4201310000000  0.4793580000000  0.4576070000000 1.0
C      1  0.5958740000000  0.5383570000000  0.5763380000000 1.0
C      1  0.3872170000000  0.4964010000000  0.4848200000000 1.0
C      1  0.5448520000000  0.6014840000000  0.5472280000000 1.0
C      1  0.5413150000000  0.4732170000000  0.4325520000000 1.0
C      1  0.5203670000000  0.3834710000000  0.4968640000000 1.0
C      1  0.5705440000000  0.5501470000000  0.5901790000000 1.0
C      1  0.6149090000000  0.5167740000000  0.4963960000000 1.0
C      1  0.4471370000000  0.4721910000000  0.5214770000000 1.0
C      1  0.5443140000000  0.5938520000000  0.4951980000000 1.0
C      1  0.4457750000000  0.4619320000000  0.4526640000000 1.0
C      1  0.4290540000000  0.5046430000000  0.4726350000000 1.0
C      1  0.4858930000000  0.6059870000000  0.5376760000000 1.0
C      1  0.5153530000000  0.5202190000000  0.5518460000000 1.0
C      1  0.5788900000000  0.5371710000000  0.4465830000000 1.0
C      1  0.5304830000000  0.5925800000000  0.5221730000000 1.0
C      1  0.5407210000000  0.4277730000000  0.4438740000000 1.0
C      1  0.5059990000000  0.5058930000000  0.3879760000000 1.0
C      1  0.5772290000000  0.5224330000000  0.5568670000000 1.0
C      1  0.5398610000000  0.5630900000000  0.4388150000000 1.0
C      1  0.5299620000000  0.5362270000000  0.4495520000000 1.0
C      1  0.4767080000000  0.3858050000000  0.5023310000000 1.0
C      1  0.5398210000000  0.5636890000000  0.5762860000000 1.0
C      1  0.4221230000000  0.4303470000000  0.4744250000000 1.0
C      1  0.5691950000000  0.5328180000000  0.4206600000000 1.0
C      1  0.6108860000000  0.4855830000000  0.4564130000000 1.0
C      1  0.4326410000000  0.4883990000000  0.4159110000000 1.0
C      1  0.4468860000000  0.5414920000000  0.5926730000000 1.0
C      1  0.5260330000000  0.5503580000000  0.4080200000000 1.0
C      1  0.4081890000000  0.4539260000000  0.5197250000000 1.0
C      1  0.5847690000000  0.4818180000000  0.5037670000000 1.0
C      1  0.5360470000000  0.4514380000000  0.5813340000000 1.0
C      1  0.5089140000000  0.4305450000000  0.4996760000000 1.0
C      1  0.5177910000000  0.5413900000000  0.4752950000000 1.0
C      1  0.5758860000000  0.4899940000000  0.4110850000000 1.0
C      1  0.4533090000000  0.4022990000000  0.4535060000000 1.0
C      1  0.4666990000000  0.4823990000000  0.4434610000000 1.0
C      1  0.5280840000000  0.4070270000000  0.4602480000000 1.0
C      1  0.6103340000000  0.4645000000000  0.4977340000000 1.0
C      1  0.5091810000000  0.4159720000000  0.5288850000000 1.0
C      1  0.4952860000000  0.3823390000000  0.4774280000000 1.0
C      1  0.5035990000000  0.4715890000000  0.5305580000000 1.0
C      1  0.4763860000000  0.5139250000000  0.3814920000000 1.0
C      1  0.5605550000000  0.5297890000000  0.6090560000000 1.0
C      1  0.4450650000000  0.5019540000000  0.5238690000000 1.0
C      1  0.6054390000000  0.4385030000000  0.5114940000000 1.0
C      1  0.4980540000000  0.4069470000000  0.4559110000000 1.0
C      1  0.5677320000000  0.4759890000000  0.5633030000000 1.0
C      1  0.5651500000000  0.5293860000000  0.5106510000000 1.0
C      1  0.4988040000000  0.5519690000000  0.4219400000000 1.0
C      1  0.5802230000000  0.5842630000000  0.4631570000000 1.0
C      1  0.4647920000000  0.4725230000000  0.5561430000000 1.0
C      1  0.5786670000000  0.4434600000000  0.4213080000000 1.0
C      1  0.4191760000000  0.5365350000000  0.4275270000000 1.0
C      1  0.4761840000000  0.4283170000000  0.4149270000000 1.0
C      1  0.5178310000000  0.4174710000000  0.5839390000000 1.0
C      1  0.4361790000000  0.5171860000000  0.4134900000000 1.0
C      1  0.4118660000000  0.4303750000000  0.4470560000000 1.0
C      1  0.4950390000000  0.5721260000000  0.4481840000000 1.0
C      1  0.3889730000000  0.5285490000000  0.5243940000000 1.0
C      1  0.5659610000000  0.5430680000000  0.5376680000000 1.0
C      1  0.4245580000000  0.4691840000000  0.5731190000000 1.0
C      1  0.4500100000000  0.4255840000000  0.5744220000000 1.0
C      1  0.4964540000000  0.6058190000000  0.4905490000000 1.0
C      1  0.6125280000000  0.5130250000000  0.5687500000000 1.0
C      1  0.4777890000000  0.5060420000000  0.5837120000000 1.0
C      1  0.5317030000000  0.5325350000000  0.6118490000000 1.0
C      1  0.4808560000000  0.5715750000000  0.4061500000000 1.0
C      1  0.5534880000000  0.5121130000000  0.4090690000000 1.0
C      1  0.5816690000000  0.4254600000000  0.4967000000000 1.0
C      1  0.5862390000000  0.4753320000000  0.5394980000000 1.0
C      1  0.5019500000000  0.3877120000000  0.5207550000000 1.0
C      1  0.5874050000000  0.5774520000000  0.5100930000000 1.0
C      1  0.4619650000000  0.4109530000000  0.5509500000000 1.0
C      1  0.5706410000000  0.4628930000000  0.4028270000000 1.0
C      1  0.5275960000000  0.5010730000000  0.5716150000000 1.0
C      1  0.6065950000000  0.4593430000000  0.4690800000000 1.0
C      1  0.3960640000000  0.4694090000000  0.4743210000000 1.0
C      1  0.5032260000000  0.4576940000000  0.4565440000000 1.0
C      1  0.4326990000000  0.5817740000000  0.4579520000000 1.0
C      1  0.4580890000000  0.4463440000000  0.4772570000000 1.0
C      1  0.4343230000000  0.4410560000000  0.4333790000000 1.0
C      1  0.5309930000000  0.5257500000000  0.3912430000000 1.0
C      1  0.5311550000000  0.4105360000000  0.4889330000000 1.0
END
