TITL C-951334-9093-56 -1.23245853895079e-06 125000 -545.137069788909 0 0 88 (C1) n - 1
REM
REM in /home/bkarasulu/work/CARBON/AIRSS/Generating-Clusters/EDIP-Nigel-Params/with-SteepDescent/Only-C1/SD-CG/HFTN-CG
REM
REM
REM
REM
REM
REM ./C.cell (11c1c37f851c82e70ff6c80c92926a4b)
REM
REM compiler GCC version 9.2.1 20190827 (Red Hat 9.2.1-1)
REM options -cpp -mtune=generic -march=x86-64 -g -O0 -fpre-include=/usr/include/finclude/math-vector-fortran.h
REM seed 97597793 442670860 -2135560351 85269556 -1270423969 -1228404440 -504857683 -184824686 758683073 -483325965 281490454 1490231926 -68550201 -2122836439 -2085846210 449907234 -1910258989 -1013174186 -965495087 276130560 977185992 -1347280380 -1938557608 -714177125 168705409 -615683572 -657192876 528200824 2014735305 1278699354 -325496436 1245334733 -213352364
REM
CELL 1.54180   50.00000   50.00000   50.00000   90.00000   90.00000   90.00000
LATT -1
SFAC C  
C      1  0.5201030000000  0.4740750000000  0.4320580000000 1.0
C      1  0.5329230000000  0.5057370000000  0.5764750000000 1.0
C      1  0.5408850000000  0.4819530000000  0.5617790000000 1.0
C      1  0.5155990000000  0.4713530000000  0.5276220000000 1.0
C      1  0.5620580000000  0.4846580000000  0.5419290000000 1.0
C      1  0.4716630000000  0.5690550000000  0.4579360000000 1.0
C      1  0.4503290000000  0.5176470000000  0.5636100000000 1.0
C      1  0.5050550000000  0.5498130000000  0.5314000000000 1.0
C      1  0.5257320000000  0.4361450000000  0.5440650000000 1.0
C      1  0.5086270000000  0.5350410000000  0.4857760000000 1.0
C      1  0.5320140000000  0.5133800000000  0.4989630000000 1.0
C      1  0.4646040000000  0.5763790000000  0.5330350000000 1.0
C      1  0.5265640000000  0.4129710000000  0.4882280000000 1.0
C      1  0.4477090000000  0.4223910000000  0.5451490000000 1.0
C      1  0.4215870000000  0.5141060000000  0.4749650000000 1.0
C      1  0.4681900000000  0.5228760000000  0.5127560000000 1.0
C      1  0.4697020000000  0.4836870000000  0.4543250000000 1.0
C      1  0.5651390000000  0.4930150000000  0.4383510000000 1.0
C      1  0.5753250000000  0.5161410000000  0.5058010000000 1.0
C      1  0.4631110000000  0.4903450000000  0.5638450000000 1.0
C      1  0.4996810000000  0.4866690000000  0.4155310000000 1.0
C      1  0.5714760000000  0.5348160000000  0.4624030000000 1.0
C      1  0.5750360000000  0.5058510000000  0.4608500000000 1.0
C      1  0.4256100000000  0.5202620000000  0.4246600000000 1.0
C      1  0.4366020000000  0.5444820000000  0.4322190000000 1.0
C      1  0.4878620000000  0.5451570000000  0.5065050000000 1.0
C      1  0.5543420000000  0.5614150000000  0.5358950000000 1.0
C      1  0.5647540000000  0.4630280000000  0.5229270000000 1.0
C      1  0.4994150000000  0.4601130000000  0.5769330000000 1.0
C      1  0.4376680000000  0.4682990000000  0.5311620000000 1.0
C      1  0.4385830000000  0.4392890000000  0.5246240000000 1.0
C      1  0.5467920000000  0.4405290000000  0.5234700000000 1.0
C      1  0.5233710000000  0.5232970000000  0.5295300000000 1.0
C      1  0.4853800000000  0.5423530000000  0.4215690000000 1.0
C      1  0.5709420000000  0.4951500000000  0.4873520000000 1.0
C      1  0.5303770000000  0.5363890000000  0.4453050000000 1.0
C      1  0.5266750000000  0.4563780000000  0.5667890000000 1.0
C      1  0.5600410000000  0.4483910000000  0.4791470000000 1.0
C      1  0.4118670000000  0.5199750000000  0.4487440000000 1.0
C      1  0.5069820000000  0.4999840000000  0.5407520000000 1.0
C      1  0.4941810000000  0.4157690000000  0.5345200000000 1.0
C      1  0.4738560000000  0.5718860000000  0.5064510000000 1.0
C      1  0.5252840000000  0.5723150000000  0.5297810000000 1.0
C      1  0.5008940000000  0.4227600000000  0.4846320000000 1.0
C      1  0.4230540000000  0.5358800000000  0.4937670000000 1.0
C      1  0.5433940000000  0.4880110000000  0.4223500000000 1.0
C      1  0.4805780000000  0.4969290000000  0.5167810000000 1.0
C      1  0.4811670000000  0.5594300000000  0.5489110000000 1.0
C      1  0.4756690000000  0.4919970000000  0.4286830000000 1.0
C      1  0.4717530000000  0.4564800000000  0.4618730000000 1.0
C      1  0.4656550000000  0.4765170000000  0.5368640000000 1.0
C      1  0.4278080000000  0.4652140000000  0.4776890000000 1.0
C      1  0.4506320000000  0.4492190000000  0.4794430000000 1.0
C      1  0.5388700000000  0.5788970000000  0.5046450000000 1.0
C      1  0.5001460000000  0.5106830000000  0.4700080000000 1.0
C      1  0.4316380000000  0.5607100000000  0.4850980000000 1.0
C      1  0.5663290000000  0.5393510000000  0.4913290000000 1.0
C      1  0.4228020000000  0.4914800000000  0.5179290000000 1.0
C      1  0.4880590000000  0.4873800000000  0.5786720000000 1.0
C      1  0.4678950000000  0.5398700000000  0.5638350000000 1.0
C      1  0.5486470000000  0.4274710000000  0.4974930000000 1.0
C      1  0.5202970000000  0.4815820000000  0.4968920000000 1.0
C      1  0.4906120000000  0.4872430000000  0.4870150000000 1.0
C      1  0.5051520000000  0.5098730000000  0.5778980000000 1.0
C      1  0.5182300000000  0.4492280000000  0.4465790000000 1.0
C      1  0.4176100000000  0.4886220000000  0.4884630000000 1.0
C      1  0.5690510000000  0.5120200000000  0.5338380000000 1.0
C      1  0.4595790000000  0.4398410000000  0.5049240000000 1.0
C      1  0.5478550000000  0.5289190000000  0.5727410000000 1.0
C      1  0.5125780000000  0.5347490000000  0.4200430000000 1.0
C      1  0.4813010000000  0.4390110000000  0.5728040000000 1.0
C      1  0.5309290000000  0.5054350000000  0.4605530000000 1.0
C      1  0.4990990000000  0.5736430000000  0.4591480000000 1.0
C      1  0.4563080000000  0.5737000000000  0.4826240000000 1.0
C      1  0.5183890000000  0.5549010000000  0.4660740000000 1.0
C      1  0.4828420000000  0.4223080000000  0.5073920000000 1.0
C      1  0.5575580000000  0.5457510000000  0.4404190000000 1.0
C      1  0.5495710000000  0.5315940000000  0.5441120000000 1.0
C      1  0.4889500000000  0.4537980000000  0.5347260000000 1.0
C      1  0.5747490000000  0.4679080000000  0.4958400000000 1.0
C      1  0.4972740000000  0.4434120000000  0.4650020000000 1.0
C      1  0.4287430000000  0.5194450000000  0.5440560000000 1.0
C      1  0.4640930000000  0.5497790000000  0.4380390000000 1.0
C      1  0.5644540000000  0.5642910000000  0.5058610000000 1.0
C      1  0.4384170000000  0.5236510000000  0.5163680000000 1.0
C      1  0.5379230000000  0.4703260000000  0.4717540000000 1.0
C      1  0.5162720000000  0.5096050000000  0.4061240000000 1.0
C      1  0.4734740000000  0.4185220000000  0.5555220000000 1.0
END
