TITL C-950536-5891-361 -1.32681465873278e-06 125000 -438.889010413574 0 0 72 (C1) n - 1
REM
REM in /home/bkarasulu/work/CARBON/AIRSS/Generating-Clusters/EDIP-Nigel-Params/with-SteepDescent/Only-C1/SD-CG/HFTN-CG
REM
REM
REM
REM
REM
REM ./C.cell (11c1c37f851c82e70ff6c80c92926a4b)
REM
REM compiler GCC version 9.2.1 20190827 (Red Hat 9.2.1-1)
REM options -cpp -mtune=generic -march=x86-64 -g -O0 -fpre-include=/usr/include/finclude/math-vector-fortran.h
REM seed 78072484 -1270876316 -2043456649 -355125341 -1740697147 -2052638658 1562944545 1337629509 971703586 -1607897225 -820343459 1923229035 98431135 -79453706 685560610 -412680823 -532120221 -1950170548 -945662791 442080900 -175116017 979798780 -1019983803 522671028 1888052697 -1758248144 -2011140979 1264508676 653722442 -1746277848 1400107646 754367093 233291500
REM
CELL 1.54180   50.00000   50.00000   50.00000   90.00000   90.00000   90.00000
LATT -1
SFAC C  
C      1  0.5042000000000  0.4263450000000  0.4824200000000 1.0
C      1  0.5446690000000  0.5391410000000  0.5099540000000 1.0
C      1  0.5183560000000  0.4674680000000  0.5025690000000 1.0
C      1  0.4676400000000  0.5449950000000  0.4648780000000 1.0
C      1  0.5089240000000  0.4943210000000  0.4123450000000 1.0
C      1  0.5236770000000  0.4714190000000  0.4539510000000 1.0
C      1  0.5299830000000  0.5275820000000  0.5654090000000 1.0
C      1  0.4816430000000  0.5609200000000  0.5129190000000 1.0
C      1  0.4762860000000  0.5055250000000  0.5724090000000 1.0
C      1  0.5194420000000  0.5137050000000  0.5869390000000 1.0
C      1  0.4644830000000  0.5305580000000  0.5653220000000 1.0
C      1  0.5704700000000  0.4578470000000  0.4885880000000 1.0
C      1  0.4453070000000  0.5052400000000  0.4775600000000 1.0
C      1  0.5022950000000  0.5782650000000  0.4602280000000 1.0
C      1  0.5175470000000  0.5259540000000  0.5056460000000 1.0
C      1  0.4400720000000  0.4379190000000  0.5022550000000 1.0
C      1  0.4398210000000  0.4846040000000  0.5173030000000 1.0
C      1  0.5513250000000  0.5172980000000  0.4675620000000 1.0
C      1  0.4390810000000  0.4770820000000  0.4714740000000 1.0
C      1  0.4833100000000  0.4603130000000  0.5158040000000 1.0
C      1  0.5220270000000  0.5715040000000  0.5376680000000 1.0
C      1  0.4634700000000  0.4735680000000  0.4346400000000 1.0
C      1  0.4928220000000  0.4673180000000  0.4583260000000 1.0
C      1  0.4642060000000  0.4818680000000  0.5818050000000 1.0
C      1  0.4951170000000  0.5030760000000  0.5929530000000 1.0
C      1  0.5366960000000  0.4436760000000  0.4545920000000 1.0
C      1  0.4917660000000  0.4492040000000  0.5572260000000 1.0
C      1  0.5521730000000  0.4412940000000  0.5403900000000 1.0
C      1  0.4874580000000  0.4515580000000  0.4847480000000 1.0
C      1  0.4386310000000  0.4658400000000  0.4459940000000 1.0
C      1  0.5107760000000  0.4275440000000  0.4528790000000 1.0
C      1  0.4456780000000  0.4527330000000  0.5477310000000 1.0
C      1  0.4680970000000  0.5035940000000  0.4354450000000 1.0
C      1  0.5543790000000  0.4978730000000  0.4248010000000 1.0
C      1  0.5321570000000  0.5399020000000  0.4294750000000 1.0
C      1  0.5514000000000  0.5215540000000  0.4392000000000 1.0
C      1  0.5663630000000  0.4650270000000  0.5383970000000 1.0
C      1  0.4292990000000  0.4757420000000  0.5430300000000 1.0
C      1  0.4325870000000  0.4642340000000  0.4962880000000 1.0
C      1  0.4391260000000  0.5429810000000  0.5094870000000 1.0
C      1  0.5428870000000  0.5665700000000  0.5195310000000 1.0
C      1  0.5116920000000  0.5477380000000  0.5520180000000 1.0
C      1  0.5588780000000  0.4867910000000  0.5543370000000 1.0
C      1  0.5075920000000  0.5795580000000  0.5093650000000 1.0
C      1  0.5754480000000  0.4692890000000  0.5124650000000 1.0
C      1  0.4910300000000  0.5325860000000  0.5159680000000 1.0
C      1  0.5518680000000  0.5136320000000  0.5512190000000 1.0
C      1  0.4588160000000  0.4410960000000  0.5234280000000 1.0
C      1  0.5042520000000  0.5382300000000  0.4322600000000 1.0
C      1  0.4923030000000  0.5133910000000  0.4237910000000 1.0
C      1  0.5613290000000  0.5246380000000  0.5277780000000 1.0
C      1  0.5205650000000  0.5790300000000  0.4809500000000 1.0
C      1  0.4894600000000  0.5561330000000  0.4495990000000 1.0
C      1  0.5274660000000  0.4384960000000  0.4989210000000 1.0
C      1  0.5512440000000  0.4391940000000  0.4806090000000 1.0
C      1  0.4676820000000  0.5662560000000  0.5395120000000 1.0
C      1  0.4444380000000  0.5484000000000  0.5381020000000 1.0
C      1  0.5090170000000  0.5066610000000  0.4851160000000 1.0
C      1  0.4546720000000  0.5208990000000  0.4550710000000 1.0
C      1  0.4668420000000  0.4569340000000  0.5674940000000 1.0
C      1  0.4595570000000  0.5570580000000  0.4912860000000 1.0
C      1  0.4780520000000  0.5080960000000  0.4985210000000 1.0
C      1  0.5301830000000  0.4842530000000  0.4273500000000 1.0
C      1  0.5305730000000  0.4294590000000  0.5275230000000 1.0
C      1  0.4305030000000  0.5161080000000  0.5016100000000 1.0
C      1  0.4893090000000  0.4447290000000  0.4392400000000 1.0
C      1  0.5305330000000  0.4872220000000  0.4793340000000 1.0
C      1  0.4700740000000  0.4868500000000  0.5175390000000 1.0
C      1  0.4832680000000  0.5527040000000  0.5608270000000 1.0
C      1  0.5448660000000  0.5660570000000  0.4743360000000 1.0
C      1  0.5070740000000  0.4340320000000  0.5413960000000 1.0
C      1  0.5557710000000  0.5413200000000  0.4828930000000 1.0
END
