TITL C-950524-1808-543 -2.64390345306364e-06 125000 -897.966676277096 0 0 145 (C1) n - 1
REM
REM in /home/bkarasulu/work/CARBON/AIRSS/Generating-Clusters/EDIP-Nigel-Params/with-SteepDescent/Only-C1/SD-CG/HFTN-CG
REM
REM
REM
REM
REM
REM ./C.cell (11c1c37f851c82e70ff6c80c92926a4b)
REM
REM compiler GCC version 9.2.1 20190827 (Red Hat 9.2.1-1)
REM options -cpp -mtune=generic -march=x86-64 -g -O0 -fpre-include=/usr/include/finclude/math-vector-fortran.h
REM seed 642879164 -1041916266 -25764769 -595819911 -710589720 -686948366 -1180025845 -254335473 1805347145 278052744 -962888776 -1359109814 -766465525 446768668 1408527010 1518631756 -1743919022 -1453308788 -1113297812 1424149652 160610357 1896162460 940710466 2027234018 -1612449432 1422335770 -574016626 1568111084 -1780593542 -902917023 -192847515 1519473356 151485825
REM
CELL 1.54180   50.00000   50.00000   50.00000   90.00000   90.00000   90.00000
LATT -1
SFAC C  
C      1  0.5694380000000  0.4806710000000  0.5700030000000 1.0
C      1  0.5910350000000  0.5277810000000  0.5025780000000 1.0
C      1  0.5354150000000  0.4651300000000  0.5992230000000 1.0
C      1  0.5370230000000  0.4422770000000  0.4251330000000 1.0
C      1  0.4740150000000  0.5642290000000  0.4739990000000 1.0
C      1  0.5906440000000  0.4898790000000  0.5273230000000 1.0
C      1  0.5246340000000  0.5853760000000  0.5594990000000 1.0
C      1  0.4791940000000  0.4440530000000  0.4667590000000 1.0
C      1  0.4369430000000  0.4527320000000  0.5159340000000 1.0
C      1  0.5228450000000  0.4240830000000  0.4901770000000 1.0
C      1  0.4836250000000  0.5471850000000  0.4103930000000 1.0
C      1  0.5006760000000  0.4979740000000  0.4968780000000 1.0
C      1  0.4267090000000  0.4603900000000  0.4414890000000 1.0
C      1  0.4607110000000  0.5262260000000  0.5048890000000 1.0
C      1  0.5468870000000  0.5318820000000  0.5018310000000 1.0
C      1  0.5927620000000  0.4717090000000  0.4534060000000 1.0
C      1  0.4619920000000  0.4352640000000  0.5546870000000 1.0
C      1  0.4000580000000  0.4768590000000  0.4809840000000 1.0
C      1  0.4456440000000  0.4846270000000  0.4795220000000 1.0
C      1  0.5180990000000  0.5342120000000  0.5476790000000 1.0
C      1  0.4546370000000  0.4716360000000  0.4342160000000 1.0
C      1  0.4245170000000  0.5221060000000  0.4176360000000 1.0
C      1  0.5277540000000  0.4864240000000  0.5004200000000 1.0
C      1  0.4985370000000  0.5973180000000  0.5192690000000 1.0
C      1  0.4632390000000  0.5600630000000  0.4255090000000 1.0
C      1  0.4658990000000  0.3993080000000  0.4650950000000 1.0
C      1  0.5962670000000  0.5015780000000  0.4577890000000 1.0
C      1  0.4555170000000  0.5226470000000  0.4478730000000 1.0
C      1  0.5452400000000  0.4635870000000  0.5718350000000 1.0
C      1  0.5381680000000  0.4367340000000  0.5126590000000 1.0
C      1  0.4148360000000  0.5231750000000  0.4900580000000 1.0
C      1  0.4843970000000  0.5687540000000  0.5875060000000 1.0
C      1  0.4555570000000  0.4271530000000  0.4743830000000 1.0
C      1  0.5476680000000  0.5952930000000  0.5124960000000 1.0
C      1  0.5115560000000  0.5531870000000  0.4135090000000 1.0
C      1  0.5132280000000  0.4886340000000  0.4495310000000 1.0
C      1  0.5053070000000  0.3908950000000  0.5244310000000 1.0
C      1  0.4367490000000  0.5478920000000  0.4250900000000 1.0
C      1  0.4325020000000  0.5140320000000  0.5621940000000 1.0
C      1  0.5684750000000  0.4225070000000  0.5491360000000 1.0
C      1  0.4964560000000  0.5276500000000  0.5036520000000 1.0
C      1  0.4834690000000  0.4519320000000  0.5972990000000 1.0
C      1  0.3983130000000  0.5008340000000  0.4994170000000 1.0
C      1  0.5419190000000  0.5641570000000  0.5718140000000 1.0
C      1  0.5049490000000  0.5093390000000  0.3979170000000 1.0
C      1  0.5543020000000  0.4566380000000  0.4664000000000 1.0
C      1  0.4981780000000  0.5881300000000  0.5717790000000 1.0
C      1  0.5464190000000  0.5250940000000  0.5310810000000 1.0
C      1  0.5885220000000  0.4748540000000  0.5504800000000 1.0
C      1  0.4643210000000  0.4612110000000  0.4062950000000 1.0
C      1  0.4516300000000  0.5475740000000  0.4839740000000 1.0
C      1  0.4745870000000  0.5791170000000  0.4473860000000 1.0
C      1  0.4309290000000  0.5643470000000  0.4959150000000 1.0
C      1  0.4560770000000  0.4306490000000  0.5039770000000 1.0
C      1  0.5644360000000  0.4662160000000  0.4373920000000 1.0
C      1  0.6039260000000  0.5061470000000  0.4863790000000 1.0
C      1  0.4963750000000  0.4573370000000  0.5136090000000 1.0
C      1  0.5630180000000  0.5384790000000  0.4369650000000 1.0
C      1  0.4053000000000  0.4807800000000  0.4491030000000 1.0
C      1  0.5244490000000  0.5737610000000  0.4303720000000 1.0
C      1  0.4972180000000  0.5438030000000  0.5911010000000 1.0
C      1  0.5052080000000  0.4406800000000  0.5822680000000 1.0
C      1  0.4462050000000  0.4094120000000  0.5214740000000 1.0
C      1  0.4849480000000  0.5172410000000  0.5957530000000 1.0
C      1  0.4731420000000  0.4978870000000  0.5561410000000 1.0
C      1  0.4409830000000  0.5753000000000  0.5457700000000 1.0
C      1  0.5107050000000  0.3958360000000  0.4962000000000 1.0
C      1  0.5964800000000  0.5562050000000  0.4978600000000 1.0
C      1  0.4724590000000  0.5272560000000  0.5479580000000 1.0
C      1  0.4535350000000  0.4799500000000  0.3876320000000 1.0
C      1  0.5256370000000  0.5292180000000  0.4048570000000 1.0
C      1  0.5343210000000  0.4792130000000  0.4709840000000 1.0
C      1  0.4572470000000  0.4955240000000  0.5039860000000 1.0
C      1  0.4545140000000  0.4995850000000  0.5801310000000 1.0
C      1  0.4136200000000  0.5088610000000  0.4426610000000 1.0
C      1  0.5487950000000  0.4341960000000  0.5654330000000 1.0
C      1  0.5541860000000  0.4949780000000  0.4346630000000 1.0
C      1  0.5057590000000  0.4110570000000  0.5458700000000 1.0
C      1  0.5423210000000  0.4292260000000  0.4668280000000 1.0
C      1  0.5425670000000  0.5933780000000  0.4833750000000 1.0
C      1  0.4258100000000  0.4624570000000  0.4866830000000 1.0
C      1  0.4973100000000  0.4405540000000  0.4900400000000 1.0
C      1  0.5254110000000  0.5037140000000  0.5412300000000 1.0
C      1  0.5616600000000  0.5089560000000  0.5730420000000 1.0
C      1  0.5892280000000  0.4615040000000  0.4810560000000 1.0
C      1  0.5046910000000  0.5902080000000  0.4462070000000 1.0
C      1  0.4874870000000  0.3900700000000  0.4808770000000 1.0
C      1  0.4087610000000  0.5483000000000  0.5015980000000 1.0
C      1  0.4983580000000  0.6074960000000  0.4931770000000 1.0
C      1  0.4767360000000  0.4582360000000  0.5371360000000 1.0
C      1  0.4014510000000  0.4948510000000  0.5268110000000 1.0
C      1  0.4936200000000  0.4640160000000  0.4086430000000 1.0
C      1  0.4637590000000  0.5005260000000  0.4274460000000 1.0
C      1  0.5245330000000  0.4624420000000  0.5207980000000 1.0
C      1  0.5845420000000  0.5682980000000  0.4757530000000 1.0
C      1  0.4428240000000  0.5813430000000  0.5169070000000 1.0
C      1  0.5730670000000  0.5900420000000  0.5223430000000 1.0
C      1  0.5912530000000  0.5187370000000  0.5307540000000 1.0
C      1  0.4932620000000  0.5400410000000  0.5322440000000 1.0
C      1  0.4675890000000  0.3930250000000  0.5325910000000 1.0
C      1  0.4169170000000  0.4922440000000  0.5500030000000 1.0
C      1  0.4973000000000  0.4909770000000  0.4215030000000 1.0
C      1  0.4296380000000  0.4413750000000  0.4650740000000 1.0
C      1  0.4780470000000  0.4098410000000  0.5536480000000 1.0
C      1  0.5612600000000  0.4262610000000  0.5236490000000 1.0
C      1  0.4350370000000  0.4278840000000  0.5425340000000 1.0
C      1  0.4795030000000  0.5751820000000  0.5236420000000 1.0
C      1  0.4691410000000  0.4731960000000  0.4625590000000 1.0
C      1  0.4942230000000  0.4710130000000  0.5601090000000 1.0
C      1  0.4589060000000  0.4484760000000  0.5823730000000 1.0
C      1  0.5214130000000  0.5421330000000  0.4925110000000 1.0
C      1  0.5233560000000  0.5408520000000  0.5768580000000 1.0
C      1  0.5551540000000  0.5092640000000  0.4845060000000 1.0
C      1  0.4479280000000  0.5334540000000  0.5339030000000 1.0
C      1  0.5601210000000  0.5780120000000  0.4660420000000 1.0
C      1  0.4188340000000  0.4689010000000  0.5650920000000 1.0
C      1  0.5442000000000  0.5593650000000  0.4487970000000 1.0
C      1  0.5223070000000  0.5449800000000  0.4641800000000 1.0
C      1  0.5248280000000  0.5917790000000  0.5303980000000 1.0
C      1  0.4788870000000  0.5238550000000  0.3928180000000 1.0
C      1  0.5232480000000  0.4748820000000  0.5499000000000 1.0
C      1  0.4805810000000  0.5222040000000  0.4622620000000 1.0
C      1  0.4698020000000  0.5711310000000  0.5519990000000 1.0
C      1  0.5218980000000  0.4228270000000  0.5670200000000 1.0
C      1  0.4901740000000  0.4285260000000  0.4425540000000 1.0
C      1  0.4322790000000  0.5114380000000  0.4666930000000 1.0
C      1  0.5354010000000  0.5156090000000  0.5872610000000 1.0
C      1  0.4532610000000  0.4787300000000  0.5288130000000 1.0
C      1  0.5994570000000  0.4808670000000  0.5005700000000 1.0
C      1  0.5421450000000  0.4195780000000  0.4406670000000 1.0
C      1  0.5933380000000  0.5724590000000  0.5202490000000 1.0
C      1  0.4757500000000  0.4040270000000  0.4388000000000 1.0
C      1  0.5663210000000  0.5562480000000  0.5592320000000 1.0
C      1  0.5155320000000  0.5987570000000  0.4731410000000 1.0
C      1  0.4539990000000  0.5067970000000  0.3995530000000 1.0
C      1  0.4913730000000  0.4951230000000  0.4679210000000 1.0
C      1  0.4274340000000  0.5502070000000  0.5499320000000 1.0
C      1  0.5099130000000  0.5016530000000  0.5960060000000 1.0
C      1  0.5695770000000  0.5285140000000  0.5502540000000 1.0
C      1  0.5111220000000  0.4759560000000  0.6074290000000 1.0
C      1  0.4946330000000  0.5467590000000  0.4531860000000 1.0
C      1  0.4410880000000  0.4718450000000  0.5824470000000 1.0
C      1  0.5075360000000  0.4410630000000  0.4211930000000 1.0
C      1  0.5514850000000  0.5196790000000  0.4159530000000 1.0
C      1  0.5684740000000  0.5127490000000  0.4562610000000 1.0
END
