TITL C-951343-2256-196 -7.91389043723412e-07 125000 -949.884881525105 0 0 151 (C1) n - 1
REM
REM in /home/bkarasulu/work/CARBON/AIRSS/Generating-Clusters/EDIP-Nigel-Params/with-SteepDescent/Only-C1/SD-CG/HFTN-CG
REM
REM
REM
REM
REM
REM ./C.cell (11c1c37f851c82e70ff6c80c92926a4b)
REM
REM compiler GCC version 9.2.1 20190827 (Red Hat 9.2.1-1)
REM options -cpp -mtune=generic -march=x86-64 -g -O0 -fpre-include=/usr/include/finclude/math-vector-fortran.h
REM seed -53715664 -1814121950 -1495894273 -353316008 -1143558668 -369985756 753460859 -2040677370 1752714899 -1079441336 -1583150505 561090264 -1899544508 -1094004020 788683307 1172980007 1062567428 -1095783211 -1237849972 -1607481624 -515666991 -2123069417 -228055748 2089915928 -1875611324 -123415030 450938276 -670667445 383943502 1763175059 -1721146939 -1840333727 1950167888
REM
CELL 1.54180   50.00000   50.00000   50.00000   90.00000   90.00000   90.00000
LATT -1
SFAC C  
C      1  0.5272010000000  0.4596250000000  0.5687010000000 1.0
C      1  0.5170760000000  0.4906060000000  0.5093220000000 1.0
C      1  0.5712320000000  0.5513300000000  0.4310080000000 1.0
C      1  0.4571080000000  0.4967630000000  0.5918720000000 1.0
C      1  0.5234930000000  0.5124360000000  0.3898210000000 1.0
C      1  0.4541430000000  0.4777570000000  0.3923260000000 1.0
C      1  0.4127900000000  0.5059760000000  0.5154200000000 1.0
C      1  0.4889090000000  0.4525890000000  0.5981140000000 1.0
C      1  0.4081970000000  0.5179960000000  0.4660510000000 1.0
C      1  0.5223040000000  0.5323870000000  0.4894100000000 1.0
C      1  0.5013370000000  0.5569990000000  0.5273880000000 1.0
C      1  0.4452150000000  0.5884050000000  0.5238180000000 1.0
C      1  0.5514400000000  0.4923360000000  0.4757270000000 1.0
C      1  0.5268760000000  0.5660150000000  0.4285690000000 1.0
C      1  0.5564520000000  0.4910570000000  0.5762510000000 1.0
C      1  0.5315870000000  0.4235540000000  0.5312960000000 1.0
C      1  0.5231210000000  0.5744490000000  0.4576600000000 1.0
C      1  0.4201960000000  0.5548710000000  0.4949940000000 1.0
C      1  0.5111990000000  0.4405730000000  0.4285830000000 1.0
C      1  0.4635460000000  0.5754920000000  0.5669150000000 1.0
C      1  0.5062230000000  0.5546680000000  0.4751330000000 1.0
C      1  0.4732770000000  0.5367440000000  0.4319060000000 1.0
C      1  0.5126760000000  0.4764880000000  0.5453510000000 1.0
C      1  0.4200070000000  0.4547220000000  0.5356660000000 1.0
C      1  0.5796760000000  0.4788350000000  0.4528550000000 1.0
C      1  0.4028540000000  0.4561240000000  0.4946300000000 1.0
C      1  0.6001850000000  0.4654710000000  0.4967310000000 1.0
C      1  0.4278900000000  0.5650590000000  0.5212750000000 1.0
C      1  0.5428080000000  0.4193760000000  0.4710900000000 1.0
C      1  0.5092520000000  0.6115090000000  0.4868710000000 1.0
C      1  0.5560220000000  0.4270550000000  0.4245050000000 1.0
C      1  0.5536600000000  0.5552520000000  0.5756250000000 1.0
C      1  0.4856810000000  0.6105360000000  0.5034530000000 1.0
C      1  0.4665620000000  0.4824050000000  0.4387810000000 1.0
C      1  0.4144450000000  0.4863610000000  0.4302480000000 1.0
C      1  0.5081090000000  0.5882530000000  0.5500190000000 1.0
C      1  0.5117770000000  0.4114080000000  0.4332660000000 1.0
C      1  0.4051980000000  0.5279270000000  0.4938920000000 1.0
C      1  0.5633160000000  0.4979390000000  0.4123860000000 1.0
C      1  0.4111100000000  0.4292300000000  0.4985410000000 1.0
C      1  0.4592500000000  0.5799680000000  0.4314030000000 1.0
C      1  0.5656720000000  0.4923570000000  0.5016700000000 1.0
C      1  0.6018750000000  0.4703640000000  0.5246390000000 1.0
C      1  0.5264420000000  0.5894780000000  0.5007810000000 1.0
C      1  0.5051290000000  0.5002290000000  0.4074880000000 1.0
C      1  0.4953910000000  0.5021770000000  0.5885770000000 1.0
C      1  0.4527660000000  0.5166500000000  0.4868260000000 1.0
C      1  0.5213990000000  0.4943750000000  0.4329660000000 1.0
C      1  0.4777360000000  0.4208560000000  0.5387200000000 1.0
C      1  0.5048800000000  0.5509400000000  0.5870570000000 1.0
C      1  0.5404810000000  0.5089670000000  0.5940520000000 1.0
C      1  0.5004130000000  0.4025710000000  0.5027390000000 1.0
C      1  0.4800280000000  0.5140730000000  0.4771290000000 1.0
C      1  0.4658690000000  0.4439080000000  0.4622940000000 1.0
C      1  0.5424590000000  0.3959740000000  0.4899530000000 1.0
C      1  0.5911910000000  0.5105090000000  0.5024520000000 1.0
C      1  0.4998630000000  0.5719740000000  0.5006390000000 1.0
C      1  0.4443650000000  0.4685590000000  0.5023600000000 1.0
C      1  0.5034420000000  0.5993430000000  0.4595730000000 1.0
C      1  0.4695020000000  0.4578170000000  0.4887110000000 1.0
C      1  0.4348850000000  0.4496600000000  0.4559910000000 1.0
C      1  0.5677970000000  0.4464970000000  0.5614480000000 1.0
C      1  0.5175800000000  0.3830790000000  0.4922240000000 1.0
C      1  0.5822160000000  0.4606680000000  0.4754800000000 1.0
C      1  0.4625870000000  0.5947300000000  0.5020280000000 1.0
C      1  0.5445100000000  0.5414140000000  0.4244850000000 1.0
C      1  0.4371880000000  0.5185980000000  0.4620800000000 1.0
C      1  0.5657410000000  0.5485290000000  0.4797330000000 1.0
C      1  0.4727070000000  0.5925810000000  0.4550040000000 1.0
C      1  0.4775550000000  0.5158390000000  0.5461700000000 1.0
C      1  0.5177760000000  0.4933000000000  0.6060350000000 1.0
C      1  0.5719590000000  0.4296750000000  0.5056820000000 1.0
C      1  0.4261270000000  0.4568250000000  0.5653580000000 1.0
C      1  0.4042450000000  0.4892760000000  0.4586070000000 1.0
C      1  0.4791640000000  0.5149300000000  0.4111850000000 1.0
C      1  0.4138340000000  0.5204320000000  0.5428740000000 1.0
C      1  0.5478680000000  0.5212070000000  0.4012110000000 1.0
C      1  0.5298100000000  0.5459470000000  0.5351490000000 1.0
C      1  0.5178480000000  0.4368290000000  0.4809560000000 1.0
C      1  0.4912960000000  0.4037900000000  0.4511260000000 1.0
C      1  0.4860580000000  0.5317310000000  0.5227630000000 1.0
C      1  0.5477660000000  0.5751260000000  0.4782460000000 1.0
C      1  0.5014960000000  0.4497730000000  0.4554710000000 1.0
C      1  0.5784120000000  0.5365210000000  0.4531240000000 1.0
C      1  0.5254690000000  0.5242740000000  0.5551480000000 1.0
C      1  0.5040460000000  0.5701780000000  0.4136470000000 1.0
C      1  0.4295210000000  0.4599530000000  0.4286590000000 1.0
C      1  0.4724080000000  0.4068260000000  0.4949840000000 1.0
C      1  0.4634290000000  0.5280720000000  0.5730910000000 1.0
C      1  0.4562330000000  0.4656390000000  0.4179740000000 1.0
C      1  0.5592620000000  0.4570000000000  0.5131080000000 1.0
C      1  0.5084660000000  0.4788650000000  0.4578960000000 1.0
C      1  0.5319100000000  0.5362960000000  0.5807400000000 1.0
C      1  0.4678090000000  0.4690940000000  0.5855460000000 1.0
C      1  0.4291600000000  0.4309630000000  0.5198880000000 1.0
C      1  0.5742360000000  0.4664610000000  0.5385440000000 1.0
C      1  0.4926670000000  0.5705070000000  0.5674270000000 1.0
C      1  0.4428930000000  0.5339600000000  0.4369070000000 1.0
C      1  0.5548960000000  0.5896320000000  0.5418810000000 1.0
C      1  0.4555570000000  0.4533460000000  0.5641850000000 1.0
C      1  0.4857000000000  0.5375290000000  0.4601050000000 1.0
C      1  0.5624370000000  0.4642300000000  0.5839250000000 1.0
C      1  0.4425220000000  0.4992300000000  0.5093200000000 1.0
C      1  0.4903860000000  0.4626450000000  0.5305950000000 1.0
C      1  0.5832000000000  0.5398980000000  0.5050830000000 1.0
C      1  0.5405020000000  0.5330640000000  0.5124490000000 1.0
C      1  0.4540320000000  0.5948740000000  0.5493450000000 1.0
C      1  0.5548880000000  0.5611470000000  0.5469920000000 1.0
C      1  0.4994440000000  0.5153670000000  0.5008320000000 1.0
C      1  0.4538090000000  0.5053850000000  0.3986940000000 1.0
C      1  0.4533090000000  0.5896080000000  0.4762600000000 1.0
C      1  0.4620440000000  0.4670920000000  0.5367690000000 1.0
C      1  0.5962430000000  0.5369950000000  0.5532160000000 1.0
C      1  0.5258590000000  0.4796290000000  0.4822280000000 1.0
C      1  0.4697760000000  0.4138870000000  0.4663310000000 1.0
C      1  0.5932480000000  0.5094590000000  0.5498180000000 1.0
C      1  0.4913810000000  0.4453880000000  0.5052960000000 1.0
C      1  0.4309490000000  0.5144500000000  0.4156710000000 1.0
C      1  0.4461710000000  0.5519090000000  0.5674950000000 1.0
C      1  0.6068490000000  0.4995510000000  0.5258660000000 1.0
C      1  0.4321130000000  0.5022440000000  0.5564650000000 1.0
C      1  0.5298080000000  0.5941590000000  0.5311690000000 1.0
C      1  0.4823760000000  0.4895340000000  0.4609760000000 1.0
C      1  0.5313850000000  0.5211930000000  0.4428920000000 1.0
C      1  0.4265680000000  0.5476030000000  0.5446980000000 1.0
C      1  0.5405690000000  0.4330460000000  0.5586660000000 1.0
C      1  0.5695330000000  0.4339810000000  0.4767120000000 1.0
C      1  0.4350070000000  0.5635220000000  0.4415680000000 1.0
C      1  0.4320470000000  0.5703060000000  0.4711420000000 1.0
C      1  0.5450290000000  0.4780740000000  0.4252770000000 1.0
C      1  0.4551070000000  0.4965670000000  0.5374000000000 1.0
C      1  0.4775590000000  0.5623030000000  0.4169260000000 1.0
C      1  0.4691100000000  0.4267670000000  0.5658860000000 1.0
C      1  0.5041930000000  0.4093950000000  0.5306490000000 1.0
C      1  0.4022590000000  0.4734230000000  0.5192930000000 1.0
C      1  0.4214440000000  0.4689050000000  0.4754630000000 1.0
C      1  0.5416720000000  0.5200100000000  0.4696630000000 1.0
C      1  0.5163900000000  0.4639650000000  0.5978970000000 1.0
C      1  0.4236960000000  0.4836360000000  0.5771370000000 1.0
C      1  0.4574410000000  0.4202690000000  0.5172790000000 1.0
C      1  0.5445270000000  0.5044440000000  0.5203760000000 1.0
C      1  0.5661460000000  0.4956160000000  0.5481520000000 1.0
C      1  0.5531790000000  0.4081570000000  0.5151510000000 1.0
C      1  0.5406250000000  0.4104410000000  0.4420320000000 1.0
C      1  0.5792040000000  0.5073120000000  0.4450560000000 1.0
C      1  0.5796370000000  0.5487870000000  0.5343130000000 1.0
C      1  0.4851460000000  0.5307300000000  0.5946990000000 1.0
C      1  0.5286290000000  0.4491360000000  0.5139860000000 1.0
C      1  0.4881850000000  0.4266700000000  0.5865890000000 1.0
C      1  0.5385830000000  0.4491590000000  0.4206120000000 1.0
C      1  0.5033990000000  0.5036160000000  0.5580360000000 1.0
END
