TITL C-950535-5962-428 2.01620919668987e-06 125000 -294.578583561569 0 0 49 (C1) n - 1
REM
REM in /home/bkarasulu/work/CARBON/AIRSS/Generating-Clusters/EDIP-Nigel-Params/with-SteepDescent/Only-C1/SD-CG/HFTN-CG
REM
REM
REM
REM
REM
REM ./C.cell (11c1c37f851c82e70ff6c80c92926a4b)
REM
REM compiler GCC version 9.2.1 20190827 (Red Hat 9.2.1-1)
REM options -cpp -mtune=generic -march=x86-64 -g -O0 -fpre-include=/usr/include/finclude/math-vector-fortran.h
REM seed 977241812 1488039756 -964013435 -1414445802 717235073 2111218758 -646412988 -17643854 -737085230 -2049528597 1561790302 593477692 55701582 1910039113 1042654263 -1462315733 731211037 -906408187 -1567446306 -1096363759 -867662885 894574319 -916501971 -1004181047 337961488 -1562629442 -245892547 -1156440417 120784592 1741688041 -1817669337 1598430005 205373015
REM
CELL 1.54180   50.00000   50.00000   50.00000   90.00000   90.00000   90.00000
LATT -1
SFAC C  
C      1  0.4648260000000  0.4705390000000  0.5467760000000 1.0
C      1  0.5510760000000  0.4741500000000  0.5446760000000 1.0
C      1  0.5062730000000  0.5009800000000  0.4799720000000 1.0
C      1  0.4820160000000  0.5015040000000  0.5268610000000 1.0
C      1  0.4944990000000  0.4786880000000  0.5421040000000 1.0
C      1  0.4336920000000  0.5005630000000  0.4860430000000 1.0
C      1  0.5421060000000  0.4949150000000  0.4558260000000 1.0
C      1  0.5073160000000  0.5338850000000  0.4801660000000 1.0
C      1  0.5637200000000  0.5162040000000  0.5371810000000 1.0
C      1  0.5152610000000  0.4423160000000  0.4479950000000 1.0
C      1  0.5632030000000  0.4824760000000  0.4990310000000 1.0
C      1  0.4625920000000  0.5426910000000  0.4941930000000 1.0
C      1  0.5215520000000  0.5324620000000  0.5419410000000 1.0
C      1  0.5376410000000  0.4534330000000  0.5295470000000 1.0
C      1  0.5063950000000  0.4578790000000  0.5232390000000 1.0
C      1  0.5095950000000  0.4422540000000  0.4752290000000 1.0
C      1  0.5069540000000  0.5710440000000  0.5094470000000 1.0
C      1  0.5703740000000  0.4888180000000  0.5278460000000 1.0
C      1  0.4581070000000  0.4495170000000  0.5264810000000 1.0
C      1  0.5179010000000  0.4657560000000  0.4919290000000 1.0
C      1  0.5502550000000  0.5023410000000  0.4817780000000 1.0
C      1  0.4664150000000  0.5431480000000  0.4646730000000 1.0
C      1  0.4775490000000  0.5087390000000  0.4394610000000 1.0
C      1  0.4455600000000  0.4922170000000  0.5451690000000 1.0
C      1  0.4934650000000  0.5460110000000  0.4577370000000 1.0
C      1  0.4258800000000  0.4738000000000  0.4918940000000 1.0
C      1  0.5379690000000  0.5100330000000  0.5496070000000 1.0
C      1  0.4828490000000  0.4399780000000  0.5133510000000 1.0
C      1  0.4948250000000  0.4900350000000  0.4529860000000 1.0
C      1  0.5457990000000  0.4588650000000  0.5012490000000 1.0
C      1  0.5361570000000  0.5542100000000  0.5275610000000 1.0
C      1  0.5555030000000  0.5302340000000  0.4883800000000 1.0
C      1  0.4511610000000  0.5386040000000  0.5476730000000 1.0
C      1  0.4641160000000  0.4766910000000  0.4855770000000 1.0
C      1  0.5342180000000  0.5478200000000  0.4785950000000 1.0
C      1  0.4934560000000  0.5302780000000  0.5324320000000 1.0
C      1  0.4917790000000  0.5455650000000  0.5052780000000 1.0
C      1  0.4415870000000  0.5171890000000  0.5328310000000 1.0
C      1  0.4555550000000  0.5224110000000  0.4487870000000 1.0
C      1  0.5309860000000  0.5720770000000  0.4942350000000 1.0
C      1  0.4359310000000  0.4555810000000  0.5102640000000 1.0
C      1  0.5604170000000  0.5386270000000  0.5170030000000 1.0
C      1  0.4844120000000  0.4937550000000  0.4983320000000 1.0
C      1  0.4761230000000  0.4666970000000  0.4602930000000 1.0
C      1  0.4770040000000  0.5442120000000  0.5514600000000 1.0
C      1  0.5241540000000  0.4595330000000  0.4292620000000 1.0
C      1  0.4825380000000  0.4376670000000  0.4839140000000 1.0
C      1  0.4479650000000  0.5183000000000  0.5042170000000 1.0
C      1  0.5212760000000  0.4853090000000  0.4395190000000 1.0
END
