TITL C-950529-3362-340 1.2016098687324 125000 -71.2737115318283 0 0 14 (C1) n - 1
REM
REM in /home/bkarasulu/work/CARBON/AIRSS/Generating-Clusters/EDIP-Nigel-Params/with-SteepDescent/Only-C1/SD-CG/HFTN-CG
REM
REM
REM
REM
REM
REM ./C.cell (11c1c37f851c82e70ff6c80c92926a4b)
REM
REM compiler GCC version 9.2.1 20190827 (Red Hat 9.2.1-1)
REM options -cpp -mtune=generic -march=x86-64 -g -O0 -fpre-include=/usr/include/finclude/math-vector-fortran.h
REM seed -197868430 750437603 -1168329229 -128292712 1771377290 118646311 73604760 -516079317 936110032 -646835699 1924761671 276896250 824832896 -1463082456 -1405995643 -2053731849 379344364 1141100421 572837377 1137626880 -1439497588 -1775476872 -726145738 406115873 -40333306 -282707794 -865870004 60326612 -2036609582 231716283 1966965541 24787398 1478821221
REM
CELL 1.54180   50.00000   50.00000   50.00000   90.00000   90.00000   90.00000
LATT -1
SFAC C  
C      1  0.4987590000000  0.5110790000000  0.4740810000000 1.0
C      1  0.4637240000000  0.5468450000000  0.4179140000000 1.0
C      1  0.5315260000000  0.4194770000000  0.5594030000000 1.0
C      1  0.4403270000000  0.5419360000000  0.4303350000000 1.0
C      1  0.4716850000000  0.5090250000000  0.4832540000000 1.0
C      1  0.5436540000000  0.5215500000000  0.4831870000000 1.0
C      1  0.5200640000000  0.5149750000000  0.4931900000000 1.0
C      1  0.5199960000000  0.4983270000000  0.5150100000000 1.0
C      1  0.5247650000000  0.4441370000000  0.5607410000000 1.0
C      1  0.5186450000000  0.4853110000000  0.5380270000000 1.0
C      1  0.5100830000000  0.4819270000000  0.5836610000000 1.0
C      1  0.4761710000000  0.5286440000000  0.4627920000000 1.0
C      1  0.4628570000000  0.5261790000000  0.4373270000000 1.0
C      1  0.5177420000000  0.4705880000000  0.5610770000000 1.0
END
