TITL C-951337-3020-435 -4.09425931772269e-07 125000 -978.438074649948 0 0 157 (C1) n - 1
REM
REM in /home/bkarasulu/work/CARBON/AIRSS/Generating-Clusters/EDIP-Nigel-Params/with-SteepDescent/Only-C1/SD-CG/HFTN-CG
REM
REM
REM
REM
REM
REM ./C.cell (11c1c37f851c82e70ff6c80c92926a4b)
REM
REM compiler GCC version 9.2.1 20190827 (Red Hat 9.2.1-1)
REM options -cpp -mtune=generic -march=x86-64 -g -O0 -fpre-include=/usr/include/finclude/math-vector-fortran.h
REM seed -1792977366 -282828658 163488400 1694695155 -102826083 918779459 617421319 533389216 -746185332 2042703231 1904568089 162680157 -395366325 -706022111 1971993986 413678578 1391971221 -1822713002 2013484583 -898368847 -612850268 98293030 -1987867835 -1965192532 92376840 -1100825855 -909491281 1355322119 -1294285710 -1286702841 -1959249928 680652175 -1509238409
REM
CELL 1.54180   50.00000   50.00000   50.00000   90.00000   90.00000   90.00000
LATT -1
SFAC C  
C      1  0.5961140000000  0.4897920000000  0.5748880000000 1.0
C      1  0.4730280000000  0.5157410000000  0.4013300000000 1.0
C      1  0.5886540000000  0.5016440000000  0.4452310000000 1.0
C      1  0.4599420000000  0.3977520000000  0.4799620000000 1.0
C      1  0.5039730000000  0.5115300000000  0.4406120000000 1.0
C      1  0.5537640000000  0.4081550000000  0.4437370000000 1.0
C      1  0.5383160000000  0.5922250000000  0.4556820000000 1.0
C      1  0.5147670000000  0.4675290000000  0.4390630000000 1.0
C      1  0.5158760000000  0.5298910000000  0.4179140000000 1.0
C      1  0.5568440000000  0.4886040000000  0.4727430000000 1.0
C      1  0.5755740000000  0.5001640000000  0.4961200000000 1.0
C      1  0.5889720000000  0.4396100000000  0.4881110000000 1.0
C      1  0.4050170000000  0.4935680000000  0.5181140000000 1.0
C      1  0.5043030000000  0.4924220000000  0.4834030000000 1.0
C      1  0.5319770000000  0.4402170000000  0.5345470000000 1.0
C      1  0.4493920000000  0.4580200000000  0.4811790000000 1.0
C      1  0.4691660000000  0.5376130000000  0.6076420000000 1.0
C      1  0.5302660000000  0.5123400000000  0.4001620000000 1.0
C      1  0.5219090000000  0.6006010000000  0.5200230000000 1.0
C      1  0.5364470000000  0.3974170000000  0.4917970000000 1.0
C      1  0.4277900000000  0.4657870000000  0.5436690000000 1.0
C      1  0.5195710000000  0.5558330000000  0.4849380000000 1.0
C      1  0.4474380000000  0.5407800000000  0.4901800000000 1.0
C      1  0.5046210000000  0.4765610000000  0.4028340000000 1.0
C      1  0.4908030000000  0.5402250000000  0.4042040000000 1.0
C      1  0.4188850000000  0.4671620000000  0.4797300000000 1.0
C      1  0.4995200000000  0.4480040000000  0.4030350000000 1.0
C      1  0.5067870000000  0.3969910000000  0.4955620000000 1.0
C      1  0.4535450000000  0.5778480000000  0.4556900000000 1.0
C      1  0.5452560000000  0.4297700000000  0.4267940000000 1.0
C      1  0.4402390000000  0.4873990000000  0.4229270000000 1.0
C      1  0.4666300000000  0.4255090000000  0.4292660000000 1.0
C      1  0.4041700000000  0.4664000000000  0.5066390000000 1.0
C      1  0.4925960000000  0.5048340000000  0.5310680000000 1.0
C      1  0.4573740000000  0.5261860000000  0.5638950000000 1.0
C      1  0.4885620000000  0.4639450000000  0.5565580000000 1.0
C      1  0.4844870000000  0.5777730000000  0.5228190000000 1.0
C      1  0.4387780000000  0.5847920000000  0.5040710000000 1.0
C      1  0.4191280000000  0.4787570000000  0.4416980000000 1.0
C      1  0.5894960000000  0.5528600000000  0.4932370000000 1.0
C      1  0.5493360000000  0.4961010000000  0.4127960000000 1.0
C      1  0.4779940000000  0.4035370000000  0.5378540000000 1.0
C      1  0.6018860000000  0.4859310000000  0.5000860000000 1.0
C      1  0.4720610000000  0.4873460000000  0.5461500000000 1.0
C      1  0.4537450000000  0.5616200000000  0.4304680000000 1.0
C      1  0.5805430000000  0.5489450000000  0.4497640000000 1.0
C      1  0.4914080000000  0.4260380000000  0.4930380000000 1.0
C      1  0.4335770000000  0.4298030000000  0.5031640000000 1.0
C      1  0.6003150000000  0.5276610000000  0.4859630000000 1.0
C      1  0.4982980000000  0.4690370000000  0.4658320000000 1.0
C      1  0.4658010000000  0.4738940000000  0.4289350000000 1.0
C      1  0.4809450000000  0.5129960000000  0.4832460000000 1.0
C      1  0.5712670000000  0.5631460000000  0.4735670000000 1.0
C      1  0.5246210000000  0.4230410000000  0.5573960000000 1.0
C      1  0.4776970000000  0.5711090000000  0.5652380000000 1.0
C      1  0.4710730000000  0.4485930000000  0.4120830000000 1.0
C      1  0.5103260000000  0.5330540000000  0.5635840000000 1.0
C      1  0.4624060000000  0.6028000000000  0.5031750000000 1.0
C      1  0.4674750000000  0.4443620000000  0.5664530000000 1.0
C      1  0.4919790000000  0.4168300000000  0.4420230000000 1.0
C      1  0.5677390000000  0.4382000000000  0.5083980000000 1.0
C      1  0.4367610000000  0.5715150000000  0.5319180000000 1.0
C      1  0.5185740000000  0.5435920000000  0.5907230000000 1.0
C      1  0.3864870000000  0.5097010000000  0.5053540000000 1.0
C      1  0.4497230000000  0.4791280000000  0.5277680000000 1.0
C      1  0.4829460000000  0.5286570000000  0.4567650000000 1.0
C      1  0.4809270000000  0.4419060000000  0.5171280000000 1.0
C      1  0.5907750000000  0.5397890000000  0.5412930000000 1.0
C      1  0.5354710000000  0.4970380000000  0.5227810000000 1.0
C      1  0.5693910000000  0.5026790000000  0.5508780000000 1.0
C      1  0.5249570000000  0.4368680000000  0.5816380000000 1.0
C      1  0.4160920000000  0.4957570000000  0.5655770000000 1.0
C      1  0.5676040000000  0.5313030000000  0.5868680000000 1.0
C      1  0.4691430000000  0.4685480000000  0.4591980000000 1.0
C      1  0.5655390000000  0.4576870000000  0.5308870000000 1.0
C      1  0.4622320000000  0.4981530000000  0.5726800000000 1.0
C      1  0.5778740000000  0.5039870000000  0.5928000000000 1.0
C      1  0.5012160000000  0.5856830000000  0.5621030000000 1.0
C      1  0.5632030000000  0.4879410000000  0.5232150000000 1.0
C      1  0.5037960000000  0.4796800000000  0.5789730000000 1.0
C      1  0.5445400000000  0.5396560000000  0.6000100000000 1.0
C      1  0.5818960000000  0.5566940000000  0.5197850000000 1.0
C      1  0.5257960000000  0.5769070000000  0.4357790000000 1.0
C      1  0.4966730000000  0.5486090000000  0.6090970000000 1.0
C      1  0.4625160000000  0.4627190000000  0.5070800000000 1.0
C      1  0.4422120000000  0.4553330000000  0.5767060000000 1.0
C      1  0.4817390000000  0.5426510000000  0.5604860000000 1.0
C      1  0.5372960000000  0.5250300000000  0.5164670000000 1.0
C      1  0.5034220000000  0.5537290000000  0.5143010000000 1.0
C      1  0.5442810000000  0.5769410000000  0.4793500000000 1.0
C      1  0.5345020000000  0.5500170000000  0.4291240000000 1.0
C      1  0.5959930000000  0.4740270000000  0.5495220000000 1.0
C      1  0.4165380000000  0.5416630000000  0.5443110000000 1.0
C      1  0.4419440000000  0.5109550000000  0.4877800000000 1.0
C      1  0.5619770000000  0.5402240000000  0.4296020000000 1.0
C      1  0.4964080000000  0.5822370000000  0.4340470000000 1.0
C      1  0.5496430000000  0.4151250000000  0.5117950000000 1.0
C      1  0.5695610000000  0.5447970000000  0.5608990000000 1.0
C      1  0.5606050000000  0.4562320000000  0.4682350000000 1.0
C      1  0.5031970000000  0.4062490000000  0.5501480000000 1.0
C      1  0.4202000000000  0.4476700000000  0.4401190000000 1.0
C      1  0.4376500000000  0.4842780000000  0.5811240000000 1.0
C      1  0.4512790000000  0.5335380000000  0.4394940000000 1.0
C      1  0.4382430000000  0.5359430000000  0.5848320000000 1.0
C      1  0.4879120000000  0.3972340000000  0.4671060000000 1.0
C      1  0.5323790000000  0.5293500000000  0.4876220000000 1.0
C      1  0.4980410000000  0.5557820000000  0.4626070000000 1.0
C      1  0.4164670000000  0.4197260000000  0.4801050000000 1.0
C      1  0.5447110000000  0.4938010000000  0.5659770000000 1.0
C      1  0.5621150000000  0.5766310000000  0.5257200000000 1.0
C      1  0.6030440000000  0.4638020000000  0.4795070000000 1.0
C      1  0.4376020000000  0.4079840000000  0.4632590000000 1.0
C      1  0.4791000000000  0.5655370000000  0.4154770000000 1.0
C      1  0.4587160000000  0.5434540000000  0.5164710000000 1.0
C      1  0.5427150000000  0.4794390000000  0.4369570000000 1.0
C      1  0.4556590000000  0.4076730000000  0.5083040000000 1.0
C      1  0.4440020000000  0.4307400000000  0.4467840000000 1.0
C      1  0.4847860000000  0.5286410000000  0.5115260000000 1.0
C      1  0.4817940000000  0.5826330000000  0.4615780000000 1.0
C      1  0.4052930000000  0.4435790000000  0.4650940000000 1.0
C      1  0.4864990000000  0.4941550000000  0.4182000000000 1.0
C      1  0.5601350000000  0.4538610000000  0.4366210000000 1.0
C      1  0.4819870000000  0.4928480000000  0.5945690000000 1.0
C      1  0.4134580000000  0.5255870000000  0.5699540000000 1.0
C      1  0.5983510000000  0.4760590000000  0.4538830000000 1.0
C      1  0.5497150000000  0.4777000000000  0.5892930000000 1.0
C      1  0.4929820000000  0.6013870000000  0.5054390000000 1.0
C      1  0.5245890000000  0.5888550000000  0.5474720000000 1.0
C      1  0.3890780000000  0.5467230000000  0.4773880000000 1.0
C      1  0.5463330000000  0.5667590000000  0.5485300000000 1.0
C      1  0.4365360000000  0.5660770000000  0.4785380000000 1.0
C      1  0.5700660000000  0.5122670000000  0.4245730000000 1.0
C      1  0.5164200000000  0.5019570000000  0.5620480000000 1.0
C      1  0.4415490000000  0.5273910000000  0.5356100000000 1.0
C      1  0.4161400000000  0.4450990000000  0.5240190000000 1.0
C      1  0.3925950000000  0.5190290000000  0.4802080000000 1.0
C      1  0.5251830000000  0.5453500000000  0.5376250000000 1.0
C      1  0.4827360000000  0.5130450000000  0.6144900000000 1.0
C      1  0.4178690000000  0.5079200000000  0.4675230000000 1.0
C      1  0.4233500000000  0.5313480000000  0.4502890000000 1.0
C      1  0.4342250000000  0.5026950000000  0.5169740000000 1.0
C      1  0.5287510000000  0.5054020000000  0.4696010000000 1.0
C      1  0.5096480000000  0.4853560000000  0.5146200000000 1.0
C      1  0.4118600000000  0.5553550000000  0.4635990000000 1.0
C      1  0.5364930000000  0.4119880000000  0.4662150000000 1.0
C      1  0.5250410000000  0.4627760000000  0.5922450000000 1.0
C      1  0.5050560000000  0.4570150000000  0.5294870000000 1.0
C      1  0.5362000000000  0.4394200000000  0.4774650000000 1.0
C      1  0.6077260000000  0.5172990000000  0.5368540000000 1.0
C      1  0.4612440000000  0.4251580000000  0.5461550000000 1.0
C      1  0.6107210000000  0.4898160000000  0.5292660000000 1.0
C      1  0.4473210000000  0.5158560000000  0.4159180000000 1.0
C      1  0.5141700000000  0.4367210000000  0.4283840000000 1.0
C      1  0.5084070000000  0.4467880000000  0.4813740000000 1.0
C      1  0.4568950000000  0.5832540000000  0.5495260000000 1.0
C      1  0.5467880000000  0.5922020000000  0.5055480000000 1.0
C      1  0.5982490000000  0.5263480000000  0.4574830000000 1.0
END
