TITL C-951346-9544-369 -2.04285086471311e-06 125000 -421.721528749568 0 0 71 (C1) n - 1
REM
REM in /home/bkarasulu/work/CARBON/AIRSS/Generating-Clusters/EDIP-Nigel-Params/with-SteepDescent/Only-C1/SD-CG/HFTN-CG
REM
REM
REM
REM
REM
REM ./C.cell (11c1c37f851c82e70ff6c80c92926a4b)
REM
REM compiler GCC version 9.2.1 20190827 (Red Hat 9.2.1-1)
REM options -cpp -mtune=generic -march=x86-64 -g -O0 -fpre-include=/usr/include/finclude/math-vector-fortran.h
REM seed -131541711 1856080174 -741171660 580535692 1001910894 1168970925 591276792 -1006279199 1719482779 -1525696672 -1362062898 1039247887 -154492038 415097213 1922067974 -1010176499 540408299 -1431119534 1541946734 -1217348228 -1335458356 -1340714129 1681023375 -325907416 -1418745404 662298184 -610679391 761956502 2140132543 1856547926 -1229615079 216947129 758734893
REM
CELL 1.54180   50.00000   50.00000   50.00000   90.00000   90.00000   90.00000
LATT -1
SFAC C  
C      1  0.5575680000000  0.4702110000000  0.5478030000000 1.0
C      1  0.4504090000000  0.4790150000000  0.4453570000000 1.0
C      1  0.5217520000000  0.4567180000000  0.4575310000000 1.0
C      1  0.4922670000000  0.5228210000000  0.4785680000000 1.0
C      1  0.5148130000000  0.4826460000000  0.4928000000000 1.0
C      1  0.5128610000000  0.5147660000000  0.5840760000000 1.0
C      1  0.4922580000000  0.5235420000000  0.4252270000000 1.0
C      1  0.4429450000000  0.5123100000000  0.5292020000000 1.0
C      1  0.5600310000000  0.5525480000000  0.4737450000000 1.0
C      1  0.4983940000000  0.5740990000000  0.5134380000000 1.0
C      1  0.4744190000000  0.4361370000000  0.4603780000000 1.0
C      1  0.4277550000000  0.5039830000000  0.4828760000000 1.0
C      1  0.4528100000000  0.4756090000000  0.5623500000000 1.0
C      1  0.4158760000000  0.4783140000000  0.5233080000000 1.0
C      1  0.5648740000000  0.5286240000000  0.4893580000000 1.0
C      1  0.4958980000000  0.5643120000000  0.4676530000000 1.0
C      1  0.5337070000000  0.5478250000000  0.5282100000000 1.0
C      1  0.5443540000000  0.4557350000000  0.5251910000000 1.0
C      1  0.4703000000000  0.5549890000000  0.4797710000000 1.0
C      1  0.4829220000000  0.4750990000000  0.5088780000000 1.0
C      1  0.5280630000000  0.4863120000000  0.4184140000000 1.0
C      1  0.4813110000000  0.4291840000000  0.4897570000000 1.0
C      1  0.5244300000000  0.5537500000000  0.4293360000000 1.0
C      1  0.4487560000000  0.5525600000000  0.5011780000000 1.0
C      1  0.5080530000000  0.4396630000000  0.5002910000000 1.0
C      1  0.4480140000000  0.5348600000000  0.5487230000000 1.0
C      1  0.5130880000000  0.4660350000000  0.5735250000000 1.0
C      1  0.4734970000000  0.4440080000000  0.5309360000000 1.0
C      1  0.4749330000000  0.4959380000000  0.5621940000000 1.0
C      1  0.4582850000000  0.4386200000000  0.5060410000000 1.0
C      1  0.5201140000000  0.5112780000000  0.4803300000000 1.0
C      1  0.5353470000000  0.4989640000000  0.5199830000000 1.0
C      1  0.4976260000000  0.5588370000000  0.4395370000000 1.0
C      1  0.5007270000000  0.4960400000000  0.4242120000000 1.0
C      1  0.5422210000000  0.5263220000000  0.5088080000000 1.0
C      1  0.4965760000000  0.4894220000000  0.5822730000000 1.0
C      1  0.5393490000000  0.4722500000000  0.4415340000000 1.0
C      1  0.4502520000000  0.4544810000000  0.4609680000000 1.0
C      1  0.5221800000000  0.5547080000000  0.4809030000000 1.0
C      1  0.4635900000000  0.4488050000000  0.5580230000000 1.0
C      1  0.5788790000000  0.5065390000000  0.4466910000000 1.0
C      1  0.4471560000000  0.4599070000000  0.4890270000000 1.0
C      1  0.4741440000000  0.5011210000000  0.5231360000000 1.0
C      1  0.4852110000000  0.5237550000000  0.5075080000000 1.0
C      1  0.5174020000000  0.4454100000000  0.5282770000000 1.0
C      1  0.5081210000000  0.5366180000000  0.5433380000000 1.0
C      1  0.4870800000000  0.5489970000000  0.5238130000000 1.0
C      1  0.5449740000000  0.5508400000000  0.4497380000000 1.0
C      1  0.5316850000000  0.5088790000000  0.4522780000000 1.0
C      1  0.5346280000000  0.5043710000000  0.5646960000000 1.0
C      1  0.4679770000000  0.5243920000000  0.5691800000000 1.0
C      1  0.5546270000000  0.5110170000000  0.4330560000000 1.0
C      1  0.4861900000000  0.4752570000000  0.4750980000000 1.0
C      1  0.4408360000000  0.5036840000000  0.4568060000000 1.0
C      1  0.5027760000000  0.4655950000000  0.5455110000000 1.0
C      1  0.5306750000000  0.4441840000000  0.4817950000000 1.0
C      1  0.5246300000000  0.5670000000000  0.5079680000000 1.0
C      1  0.5130890000000  0.5027400000000  0.5409170000000 1.0
C      1  0.5192170000000  0.5290280000000  0.4153240000000 1.0
C      1  0.4784600000000  0.5011600000000  0.4603990000000 1.0
C      1  0.5516010000000  0.4587050000000  0.4967780000000 1.0
C      1  0.4587770000000  0.5564680000000  0.5309750000000 1.0
C      1  0.4336940000000  0.5253440000000  0.5035900000000 1.0
C      1  0.5702170000000  0.5038360000000  0.4736830000000 1.0
C      1  0.4379610000000  0.4695430000000  0.5377140000000 1.0
C      1  0.4247530000000  0.4774620000000  0.4961500000000 1.0
C      1  0.5686330000000  0.4782930000000  0.4857020000000 1.0
C      1  0.5604170000000  0.4958630000000  0.5358220000000 1.0
C      1  0.5415770000000  0.4755320000000  0.5733410000000 1.0
C      1  0.4960940000000  0.4502550000000  0.4472230000000 1.0
C      1  0.4958930000000  0.5368630000000  0.5717780000000 1.0
END
