TITL C-950533-5798-357 -2.40200195419389e-06 125000 -933.307328913305 0 0 148 (C1) n - 1
REM
REM in /home/bkarasulu/work/CARBON/AIRSS/Generating-Clusters/EDIP-Nigel-Params/with-SteepDescent/Only-C1/SD-CG/HFTN-CG
REM
REM
REM
REM
REM
REM ./C.cell (11c1c37f851c82e70ff6c80c92926a4b)
REM
REM compiler GCC version 9.2.1 20190827 (Red Hat 9.2.1-1)
REM options -cpp -mtune=generic -march=x86-64 -g -O0 -fpre-include=/usr/include/finclude/math-vector-fortran.h
REM seed 876604527 1289822351 1624515266 -216023387 1052499319 678584554 798427549 650415405 -497817050 -191211112 1607841671 -1368774167 66987232 1207647591 -719007728 174948652 1663037727 970494561 216897612 1052183269 1504236629 1531306518 -1366860274 -707861072 130575483 438627092 -890704347 1117540775 757093843 -1717156081 386407183 -983712650 -433606766
REM
CELL 1.54180   50.00000   50.00000   50.00000   90.00000   90.00000   90.00000
LATT -1
SFAC C  
C      1  0.5639230000000  0.4965750000000  0.4161010000000 1.0
C      1  0.4818310000000  0.5899050000000  0.5717970000000 1.0
C      1  0.5061070000000  0.5790750000000  0.5827280000000 1.0
C      1  0.4820070000000  0.4525600000000  0.3918410000000 1.0
C      1  0.5179460000000  0.4733040000000  0.4205030000000 1.0
C      1  0.5435060000000  0.4598670000000  0.5746050000000 1.0
C      1  0.4567750000000  0.5687940000000  0.5527930000000 1.0
C      1  0.5912970000000  0.4811190000000  0.5097620000000 1.0
C      1  0.4859250000000  0.5003590000000  0.3946690000000 1.0
C      1  0.4194340000000  0.4655230000000  0.4746420000000 1.0
C      1  0.4075340000000  0.4996100000000  0.5334580000000 1.0
C      1  0.4291330000000  0.5640990000000  0.4755440000000 1.0
C      1  0.4758600000000  0.4186660000000  0.4802950000000 1.0
C      1  0.4668480000000  0.5618230000000  0.4351700000000 1.0
C      1  0.5050560000000  0.5354320000000  0.5749820000000 1.0
C      1  0.4949860000000  0.5156790000000  0.4186730000000 1.0
C      1  0.4085350000000  0.5480240000000  0.5169880000000 1.0
C      1  0.5039720000000  0.4190430000000  0.5596420000000 1.0
C      1  0.5312520000000  0.5925700000000  0.5401540000000 1.0
C      1  0.5095610000000  0.5617530000000  0.4865450000000 1.0
C      1  0.4998970000000  0.4607850000000  0.4409030000000 1.0
C      1  0.5649720000000  0.4327490000000  0.4627140000000 1.0
C      1  0.5809510000000  0.5276990000000  0.4892110000000 1.0
C      1  0.4274970000000  0.5369740000000  0.5631330000000 1.0
C      1  0.4758660000000  0.4156340000000  0.4501490000000 1.0
C      1  0.4437310000000  0.5141600000000  0.4181680000000 1.0
C      1  0.4241470000000  0.4165370000000  0.4788690000000 1.0
C      1  0.5046840000000  0.6205420000000  0.5081280000000 1.0
C      1  0.5072790000000  0.6074990000000  0.5325570000000 1.0
C      1  0.5504690000000  0.5922820000000  0.4908600000000 1.0
C      1  0.4163940000000  0.5399830000000  0.4897530000000 1.0
C      1  0.4516970000000  0.4132290000000  0.4363660000000 1.0
C      1  0.4551170000000  0.4653400000000  0.4019950000000 1.0
C      1  0.5486630000000  0.5529400000000  0.5680510000000 1.0
C      1  0.5018550000000  0.4747450000000  0.3935920000000 1.0
C      1  0.4929610000000  0.4435490000000  0.4850280000000 1.0
C      1  0.5251680000000  0.4940900000000  0.5284120000000 1.0
C      1  0.4658220000000  0.5162060000000  0.5561040000000 1.0
C      1  0.4668080000000  0.5383030000000  0.5119850000000 1.0
C      1  0.3998890000000  0.4946860000000  0.5052980000000 1.0
C      1  0.4199050000000  0.4925040000000  0.4624030000000 1.0
C      1  0.4981760000000  0.4912540000000  0.4891900000000 1.0
C      1  0.4401620000000  0.5011220000000  0.4437920000000 1.0
C      1  0.4326680000000  0.5639360000000  0.5672090000000 1.0
C      1  0.5325380000000  0.5395430000000  0.4022190000000 1.0
C      1  0.5485570000000  0.4059970000000  0.5040940000000 1.0
C      1  0.4567720000000  0.4954340000000  0.3971770000000 1.0
C      1  0.5926300000000  0.4746520000000  0.4593920000000 1.0
C      1  0.5209270000000  0.5025790000000  0.4260000000000 1.0
C      1  0.4790540000000  0.5492950000000  0.4876400000000 1.0
C      1  0.5279750000000  0.5447450000000  0.5044600000000 1.0
C      1  0.4577180000000  0.6011320000000  0.5316540000000 1.0
C      1  0.4584270000000  0.4896600000000  0.5424360000000 1.0
C      1  0.4888400000000  0.3956660000000  0.4921850000000 1.0
C      1  0.5403480000000  0.4307360000000  0.4182730000000 1.0
C      1  0.5412320000000  0.5039300000000  0.5927070000000 1.0
C      1  0.5431320000000  0.4982790000000  0.5033190000000 1.0
C      1  0.4955040000000  0.4284050000000  0.4051810000000 1.0
C      1  0.4508930000000  0.5170360000000  0.5053100000000 1.0
C      1  0.4822480000000  0.6040950000000  0.5467150000000 1.0
C      1  0.5366790000000  0.5409000000000  0.4517300000000 1.0
C      1  0.4759960000000  0.4764970000000  0.4509370000000 1.0
C      1  0.5519930000000  0.5860260000000  0.5201570000000 1.0
C      1  0.5046710000000  0.5430080000000  0.4095320000000 1.0
C      1  0.4046450000000  0.4662340000000  0.4999490000000 1.0
C      1  0.4485720000000  0.4608150000000  0.4297750000000 1.0
C      1  0.5226550000000  0.4262800000000  0.3964740000000 1.0
C      1  0.5746580000000  0.4931320000000  0.5547590000000 1.0
C      1  0.5278180000000  0.4014670000000  0.5238610000000 1.0
C      1  0.6050330000000  0.5210360000000  0.5313830000000 1.0
C      1  0.5176960000000  0.4932390000000  0.5631410000000 1.0
C      1  0.5341080000000  0.4667560000000  0.4680820000000 1.0
C      1  0.4122920000000  0.5108520000000  0.4839900000000 1.0
C      1  0.5847750000000  0.5211380000000  0.5504770000000 1.0
C      1  0.4540550000000  0.4686500000000  0.5016820000000 1.0
C      1  0.5734530000000  0.5659730000000  0.5254570000000 1.0
C      1  0.4914140000000  0.5092990000000  0.5719290000000 1.0
C      1  0.4946570000000  0.4586760000000  0.5768970000000 1.0
C      1  0.4792640000000  0.5273560000000  0.6125500000000 1.0
C      1  0.4166640000000  0.4731640000000  0.5471600000000 1.0
C      1  0.5159530000000  0.4878990000000  0.6025890000000 1.0
C      1  0.5528590000000  0.4356190000000  0.5587540000000 1.0
C      1  0.5368330000000  0.4486270000000  0.5106900000000 1.0
C      1  0.5733410000000  0.4421880000000  0.5379050000000 1.0
C      1  0.4477480000000  0.4212020000000  0.4934470000000 1.0
C      1  0.5594430000000  0.4607980000000  0.4519520000000 1.0
C      1  0.4965980000000  0.5620140000000  0.4311150000000 1.0
C      1  0.4921860000000  0.5483650000000  0.5984540000000 1.0
C      1  0.5252330000000  0.5945850000000  0.4754740000000 1.0
C      1  0.4898770000000  0.5277040000000  0.4663130000000 1.0
C      1  0.5685790000000  0.5460340000000  0.5476230000000 1.0
C      1  0.4781310000000  0.5094620000000  0.4449220000000 1.0
C      1  0.5582620000000  0.5579060000000  0.4580090000000 1.0
C      1  0.4725520000000  0.4432520000000  0.5860050000000 1.0
C      1  0.5919140000000  0.4640850000000  0.4862630000000 1.0
C      1  0.4619680000000  0.4348350000000  0.5388860000000 1.0
C      1  0.4996310000000  0.4051470000000  0.5161210000000 1.0
C      1  0.4495400000000  0.4926850000000  0.5892880000000 1.0
C      1  0.4217660000000  0.4392180000000  0.4624540000000 1.0
C      1  0.4123300000000  0.5756780000000  0.5207130000000 1.0
C      1  0.4726890000000  0.5920820000000  0.4822040000000 1.0
C      1  0.5632270000000  0.5040160000000  0.4446600000000 1.0
C      1  0.4981490000000  0.4939970000000  0.5174840000000 1.0
C      1  0.4842580000000  0.4152660000000  0.5388960000000 1.0
C      1  0.5237580000000  0.4444640000000  0.4841300000000 1.0
C      1  0.4429580000000  0.4738710000000  0.5632570000000 1.0
C      1  0.5795160000000  0.4381010000000  0.4876080000000 1.0
C      1  0.4450870000000  0.4421660000000  0.5149180000000 1.0
C      1  0.5000450000000  0.4551960000000  0.5470090000000 1.0
C      1  0.4547030000000  0.5400950000000  0.4213770000000 1.0
C      1  0.4169650000000  0.4528480000000  0.5240700000000 1.0
C      1  0.5281140000000  0.4638300000000  0.5364080000000 1.0
C      1  0.4710950000000  0.5433670000000  0.5412700000000 1.0
C      1  0.5267440000000  0.4929980000000  0.4782030000000 1.0
C      1  0.4422240000000  0.4932550000000  0.5172500000000 1.0
C      1  0.4790680000000  0.4698180000000  0.4814740000000 1.0
C      1  0.5848320000000  0.5579580000000  0.4977440000000 1.0
C      1  0.5191240000000  0.4603830000000  0.5922930000000 1.0
C      1  0.5254960000000  0.4186190000000  0.4420640000000 1.0
C      1  0.4362950000000  0.4365320000000  0.4378970000000 1.0
C      1  0.4541290000000  0.4462170000000  0.5646990000000 1.0
C      1  0.5339850000000  0.5306180000000  0.5798020000000 1.0
C      1  0.5000280000000  0.6043510000000  0.4859230000000 1.0
C      1  0.5617570000000  0.4322500000000  0.5110660000000 1.0
C      1  0.5358220000000  0.5114040000000  0.4519500000000 1.0
C      1  0.4125340000000  0.5288820000000  0.5395160000000 1.0
C      1  0.5586530000000  0.4850210000000  0.5772970000000 1.0
C      1  0.4994270000000  0.5473260000000  0.5478290000000 1.0
C      1  0.5097820000000  0.5498470000000  0.4558450000000 1.0
C      1  0.4799710000000  0.5014900000000  0.5990580000000 1.0
C      1  0.5836870000000  0.4712820000000  0.5365670000000 1.0
C      1  0.5385880000000  0.4205000000000  0.4707020000000 1.0
C      1  0.6059250000000  0.4996190000000  0.4560000000000 1.0
C      1  0.5150020000000  0.5373210000000  0.5275230000000 1.0
C      1  0.5482760000000  0.4611460000000  0.4221400000000 1.0
C      1  0.4977720000000  0.4307420000000  0.4356300000000 1.0
C      1  0.4374750000000  0.5185120000000  0.5828250000000 1.0
C      1  0.4275640000000  0.5834420000000  0.4980430000000 1.0
C      1  0.5984160000000  0.5095670000000  0.5068940000000 1.0
C      1  0.4574450000000  0.5707570000000  0.4636950000000 1.0
C      1  0.4809960000000  0.4738910000000  0.5297380000000 1.0
C      1  0.4528230000000  0.5970620000000  0.5033720000000 1.0
C      1  0.5702530000000  0.5744500000000  0.4774260000000 1.0
C      1  0.5312980000000  0.4151130000000  0.5505710000000 1.0
C      1  0.5506530000000  0.5254420000000  0.4967870000000 1.0
C      1  0.5849650000000  0.5180300000000  0.4595460000000 1.0
C      1  0.5293780000000  0.5757180000000  0.5641320000000 1.0
C      1  0.5401510000000  0.5116220000000  0.4047830000000 1.0
END
