TITL C-951345-2650-231 6.73814543857269e-07 125000 -404.394449451594 0 0 66 (C1) n - 1
REM
REM in /home/bkarasulu/work/CARBON/AIRSS/Generating-Clusters/EDIP-Nigel-Params/with-SteepDescent/Only-C1/SD-CG/HFTN-CG
REM
REM
REM
REM
REM
REM ./C.cell (11c1c37f851c82e70ff6c80c92926a4b)
REM
REM compiler GCC version 9.2.1 20190827 (Red Hat 9.2.1-1)
REM options -cpp -mtune=generic -march=x86-64 -g -O0 -fpre-include=/usr/include/finclude/math-vector-fortran.h
REM seed -1616133403 -1464837712 1576730846 1936462385 2084075063 1592465207 -983604160 2100703686 -1153856111 -101712254 -1702555549 -340842977 980674676 1166641729 384073150 17531506 483515017 2039411942 -848043226 1390823293 -710742726 -1466174422 1347562778 1548313324 -2090114332 1085392941 -1223370133 -354016577 1621073105 672343065 -942818931 910097723 501360240
REM
CELL 1.54180   50.00000   50.00000   50.00000   90.00000   90.00000   90.00000
LATT -1
SFAC C  
C      1  0.4587180000000  0.5417160000000  0.5424310000000 1.0
C      1  0.4923590000000  0.5381960000000  0.4425170000000 1.0
C      1  0.5091470000000  0.4473000000000  0.4904460000000 1.0
C      1  0.4870310000000  0.4683120000000  0.4969060000000 1.0
C      1  0.5330900000000  0.4594430000000  0.4778950000000 1.0
C      1  0.5206610000000  0.5292150000000  0.4317460000000 1.0
C      1  0.4898500000000  0.5342440000000  0.5771840000000 1.0
C      1  0.4841410000000  0.5441540000000  0.4902450000000 1.0
C      1  0.5440500000000  0.5073010000000  0.5721360000000 1.0
C      1  0.4914730000000  0.4382040000000  0.4451300000000 1.0
C      1  0.5366400000000  0.5529610000000  0.4951850000000 1.0
C      1  0.5452300000000  0.4929440000000  0.4518710000000 1.0
C      1  0.4395360000000  0.4901110000000  0.4767300000000 1.0
C      1  0.4394920000000  0.4567150000000  0.5142820000000 1.0
C      1  0.4733330000000  0.5007560000000  0.5355540000000 1.0
C      1  0.5734040000000  0.4823840000000  0.4977740000000 1.0
C      1  0.4806690000000  0.5605280000000  0.5391130000000 1.0
C      1  0.4654660000000  0.4293240000000  0.4798540000000 1.0
C      1  0.4892670000000  0.4954940000000  0.5088420000000 1.0
C      1  0.4431690000000  0.5174850000000  0.4199450000000 1.0
C      1  0.4397030000000  0.5279480000000  0.4445450000000 1.0
C      1  0.4620530000000  0.4982690000000  0.4210170000000 1.0
C      1  0.5140970000000  0.4525140000000  0.4328670000000 1.0
C      1  0.5654960000000  0.5552320000000  0.4981500000000 1.0
C      1  0.5001210000000  0.5167020000000  0.4895190000000 1.0
C      1  0.5419970000000  0.4552100000000  0.5223800000000 1.0
C      1  0.5047040000000  0.4847970000000  0.5755620000000 1.0
C      1  0.4553670000000  0.4444990000000  0.4563060000000 1.0
C      1  0.5479530000000  0.5169020000000  0.4688290000000 1.0
C      1  0.5377190000000  0.4555950000000  0.4499590000000 1.0
C      1  0.4417270000000  0.5188380000000  0.4708290000000 1.0
C      1  0.4792350000000  0.4319730000000  0.5515010000000 1.0
C      1  0.4929900000000  0.5607910000000  0.5133200000000 1.0
C      1  0.5205640000000  0.5682240000000  0.5148050000000 1.0
C      1  0.4661810000000  0.5245940000000  0.5641190000000 1.0
C      1  0.5324730000000  0.4816560000000  0.5643170000000 1.0
C      1  0.4662080000000  0.4470870000000  0.5044710000000 1.0
C      1  0.5266980000000  0.5603910000000  0.4676150000000 1.0
C      1  0.5082210000000  0.5131190000000  0.5842140000000 1.0
C      1  0.5718360000000  0.5061560000000  0.5121330000000 1.0
C      1  0.4961410000000  0.5106250000000  0.4553250000000 1.0
C      1  0.5308530000000  0.5221240000000  0.4957400000000 1.0
C      1  0.5287910000000  0.4994830000000  0.4288050000000 1.0
C      1  0.5064270000000  0.4799610000000  0.4235490000000 1.0
C      1  0.4406680000000  0.4682420000000  0.4590840000000 1.0
C      1  0.5000910000000  0.5581890000000  0.5619080000000 1.0
C      1  0.4343980000000  0.4834270000000  0.5041770000000 1.0
C      1  0.5770260000000  0.5305770000000  0.4994820000000 1.0
C      1  0.4441200000000  0.5291530000000  0.5198920000000 1.0
C      1  0.5299400000000  0.5727640000000  0.5413500000000 1.0
C      1  0.5552260000000  0.4609400000000  0.4966070000000 1.0
C      1  0.5336480000000  0.4810260000000  0.5345570000000 1.0
C      1  0.5467440000000  0.5251060000000  0.5499060000000 1.0
C      1  0.4528300000000  0.5369880000000  0.4919150000000 1.0
C      1  0.5197460000000  0.4355860000000  0.5169510000000 1.0
C      1  0.4657640000000  0.4560360000000  0.5574000000000 1.0
C      1  0.4417310000000  0.4985630000000  0.5288110000000 1.0
C      1  0.4945050000000  0.4274690000000  0.4720220000000 1.0
C      1  0.5404410000000  0.5400850000000  0.4509220000000 1.0
C      1  0.5379100000000  0.5513600000000  0.5573080000000 1.0
C      1  0.5448390000000  0.5083260000000  0.5242350000000 1.0
C      1  0.4960690000000  0.5573260000000  0.4647140000000 1.0
C      1  0.4825920000000  0.4895210000000  0.4377640000000 1.0
C      1  0.4836520000000  0.4789140000000  0.5543690000000 1.0
C      1  0.4412500000000  0.4623320000000  0.5428460000000 1.0
C      1  0.5025300000000  0.4285930000000  0.5381190000000 1.0
END
