TITL C-951338-5626-418 -5.93827625369285e-06 125000 -1094.35675586719 0 0 176 (C1) n - 1
REM
REM in /home/bkarasulu/work/CARBON/AIRSS/Generating-Clusters/EDIP-Nigel-Params/with-SteepDescent/Only-C1/SD-CG/HFTN-CG
REM
REM
REM
REM
REM
REM ./C.cell (11c1c37f851c82e70ff6c80c92926a4b)
REM
REM compiler GCC version 9.2.1 20190827 (Red Hat 9.2.1-1)
REM options -cpp -mtune=generic -march=x86-64 -g -O0 -fpre-include=/usr/include/finclude/math-vector-fortran.h
REM seed 811466751 -266809177 -971672173 547673792 51461022 1995190431 -916505785 -1557017996 -1896700562 1073900090 1733140677 -749120990 777155046 -189765100 1017124064 -2105908475 2077237796 1338088891 1098988518 1975343281 1755482364 -913283706 1901872306 1141038767 -2015123905 1519114488 -1617026383 -611140745 659627678 1839420642 2061655704 1476186398 -1590852345
REM
CELL 1.54180   50.00000   50.00000   50.00000   90.00000   90.00000   90.00000
LATT -1
SFAC C  
C      1  0.5085890000000  0.5381690000000  0.4920980000000 1.0
C      1  0.5940040000000  0.4465110000000  0.5368580000000 1.0
C      1  0.5502880000000  0.4982590000000  0.4262160000000 1.0
C      1  0.4196320000000  0.4671590000000  0.4658890000000 1.0
C      1  0.5420010000000  0.3924540000000  0.5242640000000 1.0
C      1  0.5544510000000  0.4911400000000  0.5384060000000 1.0
C      1  0.4189460000000  0.4991390000000  0.4311070000000 1.0
C      1  0.4789190000000  0.5381650000000  0.5588090000000 1.0
C      1  0.4956410000000  0.4028340000000  0.5096700000000 1.0
C      1  0.5317210000000  0.5814000000000  0.4363510000000 1.0
C      1  0.5421030000000  0.5190720000000  0.5412350000000 1.0
C      1  0.4838460000000  0.5009190000000  0.4334060000000 1.0
C      1  0.5149940000000  0.4165390000000  0.5785960000000 1.0
C      1  0.6134860000000  0.5224780000000  0.4762290000000 1.0
C      1  0.5335600000000  0.4672320000000  0.5322730000000 1.0
C      1  0.4742570000000  0.3985300000000  0.4598760000000 1.0
C      1  0.4373360000000  0.4042000000000  0.5153900000000 1.0
C      1  0.5066410000000  0.4591730000000  0.5566840000000 1.0
C      1  0.4420070000000  0.5936720000000  0.5050700000000 1.0
C      1  0.5488630000000  0.4476760000000  0.4133180000000 1.0
C      1  0.4534680000000  0.4720320000000  0.4944180000000 1.0
C      1  0.5749340000000  0.4425300000000  0.4535140000000 1.0
C      1  0.5326770000000  0.5145230000000  0.5972210000000 1.0
C      1  0.4811080000000  0.5237610000000  0.6097980000000 1.0
C      1  0.5070350000000  0.5581850000000  0.5863640000000 1.0
C      1  0.5070370000000  0.5291920000000  0.5947460000000 1.0
C      1  0.4934330000000  0.4979070000000  0.4049530000000 1.0
C      1  0.5409130000000  0.6169130000000  0.5078750000000 1.0
C      1  0.5046470000000  0.4633270000000  0.4446110000000 1.0
C      1  0.5043170000000  0.4915540000000  0.4514780000000 1.0
C      1  0.3997320000000  0.4551740000000  0.4862290000000 1.0
C      1  0.5810530000000  0.5526960000000  0.5636300000000 1.0
C      1  0.5296740000000  0.5646750000000  0.5334060000000 1.0
C      1  0.5381710000000  0.4868650000000  0.5863230000000 1.0
C      1  0.5724840000000  0.5365220000000  0.4476960000000 1.0
C      1  0.5663680000000  0.4543870000000  0.5024780000000 1.0
C      1  0.4377220000000  0.5599980000000  0.4421390000000 1.0
C      1  0.5795750000000  0.5001910000000  0.5144010000000 1.0
C      1  0.5747150000000  0.5115920000000  0.4651630000000 1.0
C      1  0.4587410000000  0.4838100000000  0.4424480000000 1.0
C      1  0.4548060000000  0.4015640000000  0.5378350000000 1.0
C      1  0.6050510000000  0.4534850000000  0.5083020000000 1.0
C      1  0.4454960000000  0.4317970000000  0.4344020000000 1.0
C      1  0.4708240000000  0.5883700000000  0.4985890000000 1.0
C      1  0.5537940000000  0.5456610000000  0.5294820000000 1.0
C      1  0.4285370000000  0.4962010000000  0.5240900000000 1.0
C      1  0.5024190000000  0.5859710000000  0.4577410000000 1.0
C      1  0.5653380000000  0.4722240000000  0.4180030000000 1.0
C      1  0.4022540000000  0.4293360000000  0.4961930000000 1.0
C      1  0.5956000000000  0.5512730000000  0.5173720000000 1.0
C      1  0.5698540000000  0.5213970000000  0.4225040000000 1.0
C      1  0.5493700000000  0.4330280000000  0.5709320000000 1.0
C      1  0.3885010000000  0.5069510000000  0.4678490000000 1.0
C      1  0.4796680000000  0.5215820000000  0.3912220000000 1.0
C      1  0.4320940000000  0.5571940000000  0.5271540000000 1.0
C      1  0.5675310000000  0.4357720000000  0.5269560000000 1.0
C      1  0.4107830000000  0.4160110000000  0.5190610000000 1.0
C      1  0.5547400000000  0.5955530000000  0.4418600000000 1.0
C      1  0.4933400000000  0.4292490000000  0.5628540000000 1.0
C      1  0.4356690000000  0.5423130000000  0.6011400000000 1.0
C      1  0.4417080000000  0.5878650000000  0.5573860000000 1.0
C      1  0.4538850000000  0.5212340000000  0.5537360000000 1.0
C      1  0.5782820000000  0.5897790000000  0.4864850000000 1.0
C      1  0.4965080000000  0.5574240000000  0.4483150000000 1.0
C      1  0.4145640000000  0.4703650000000  0.4368770000000 1.0
C      1  0.4339480000000  0.4538640000000  0.4215800000000 1.0
C      1  0.4857470000000  0.5430520000000  0.4727820000000 1.0
C      1  0.4523940000000  0.5813270000000  0.4542020000000 1.0
C      1  0.4789830000000  0.4141720000000  0.4865340000000 1.0
C      1  0.5237640000000  0.5715730000000  0.5638820000000 1.0
C      1  0.5838490000000  0.5251350000000  0.5548130000000 1.0
C      1  0.5619640000000  0.5125530000000  0.4921010000000 1.0
C      1  0.4180120000000  0.5132000000000  0.5004450000000 1.0
C      1  0.4685210000000  0.5176740000000  0.4770730000000 1.0
C      1  0.5194620000000  0.5342890000000  0.4181180000000 1.0
C      1  0.5649580000000  0.4826850000000  0.5659680000000 1.0
C      1  0.5632960000000  0.5843600000000  0.5331970000000 1.0
C      1  0.5376900000000  0.4648290000000  0.4995110000000 1.0
C      1  0.4393100000000  0.5001410000000  0.4700750000000 1.0
C      1  0.4962450000000  0.5441280000000  0.4031170000000 1.0
C      1  0.5204720000000  0.5969260000000  0.5054020000000 1.0
C      1  0.4221800000000  0.5813460000000  0.5767890000000 1.0
C      1  0.4129150000000  0.4862480000000  0.5574990000000 1.0
C      1  0.4314320000000  0.4683350000000  0.5138750000000 1.0
C      1  0.4819050000000  0.5016050000000  0.5716840000000 1.0
C      1  0.5078750000000  0.5453650000000  0.5231300000000 1.0
C      1  0.4504470000000  0.4732870000000  0.4055970000000 1.0
C      1  0.5643730000000  0.6011420000000  0.5097870000000 1.0
C      1  0.4836070000000  0.4065830000000  0.5382320000000 1.0
C      1  0.5250140000000  0.4505410000000  0.3991770000000 1.0
C      1  0.4926040000000  0.5992520000000  0.5171230000000 1.0
C      1  0.4311270000000  0.4350120000000  0.5537450000000 1.0
C      1  0.4660450000000  0.4390580000000  0.5218920000000 1.0
C      1  0.4112580000000  0.5588220000000  0.4822480000000 1.0
C      1  0.5651880000000  0.5330070000000  0.3972320000000 1.0
C      1  0.5291210000000  0.4539050000000  0.4571780000000 1.0
C      1  0.4905270000000  0.4967860000000  0.4773390000000 1.0
C      1  0.6129630000000  0.4937300000000  0.4766030000000 1.0
C      1  0.4898850000000  0.4599990000000  0.6000540000000 1.0
C      1  0.5872970000000  0.5692370000000  0.5399080000000 1.0
C      1  0.4802780000000  0.5582210000000  0.4228240000000 1.0
C      1  0.4693640000000  0.4987680000000  0.5985780000000 1.0
C      1  0.4806710000000  0.4704350000000  0.3983370000000 1.0
C      1  0.6005500000000  0.4821490000000  0.5012310000000 1.0
C      1  0.5366320000000  0.4130960000000  0.4808820000000 1.0
C      1  0.4414560000000  0.4943790000000  0.5981400000000 1.0
C      1  0.4058420000000  0.5190560000000  0.4491690000000 1.0
C      1  0.4808910000000  0.4864000000000  0.5267580000000 1.0
C      1  0.4372940000000  0.5008030000000  0.4081050000000 1.0
C      1  0.5477620000000  0.4367420000000  0.4417950000000 1.0
C      1  0.4549930000000  0.5452020000000  0.4248380000000 1.0
C      1  0.5660290000000  0.4121180000000  0.4889280000000 1.0
C      1  0.5906510000000  0.4669240000000  0.5584240000000 1.0
C      1  0.4971030000000  0.3838430000000  0.4520690000000 1.0
C      1  0.5565980000000  0.5420890000000  0.4982600000000 1.0
C      1  0.4841610000000  0.4779230000000  0.5540100000000 1.0
C      1  0.5311640000000  0.5512180000000  0.4426120000000 1.0
C      1  0.5164040000000  0.4634380000000  0.5859110000000 1.0
C      1  0.5979120000000  0.5449880000000  0.4652900000000 1.0
C      1  0.5458990000000  0.5183590000000  0.3839350000000 1.0
C      1  0.5563280000000  0.5585010000000  0.5780830000000 1.0
C      1  0.4418450000000  0.4482400000000  0.5794010000000 1.0
C      1  0.3933680000000  0.4747530000000  0.5075780000000 1.0
C      1  0.4790620000000  0.4613040000000  0.5061870000000 1.0
C      1  0.5511020000000  0.5351510000000  0.5925030000000 1.0
C      1  0.4236730000000  0.5532230000000  0.5781930000000 1.0
C      1  0.4140150000000  0.5430390000000  0.5066100000000 1.0
C      1  0.4679590000000  0.4152880000000  0.4358040000000 1.0
C      1  0.4606560000000  0.5259830000000  0.5050130000000 1.0
C      1  0.5939520000000  0.5231590000000  0.5278020000000 1.0
C      1  0.4026620000000  0.4404410000000  0.5468660000000 1.0
C      1  0.5374620000000  0.4086750000000  0.4484920000000 1.0
C      1  0.4520600000000  0.5259150000000  0.4026920000000 1.0
C      1  0.5135640000000  0.5205360000000  0.5380980000000 1.0
C      1  0.5346190000000  0.4976420000000  0.4535880000000 1.0
C      1  0.4744400000000  0.5915950000000  0.4691300000000 1.0
C      1  0.5291980000000  0.5083040000000  0.4057290000000 1.0
C      1  0.5301720000000  0.4376300000000  0.5912980000000 1.0
C      1  0.5852840000000  0.4652020000000  0.4390250000000 1.0
C      1  0.4773280000000  0.4535330000000  0.4548620000000 1.0
C      1  0.5653830000000  0.4068710000000  0.5175000000000 1.0
C      1  0.4299760000000  0.4763820000000  0.5797580000000 1.0
C      1  0.5854010000000  0.5025180000000  0.5724850000000 1.0
C      1  0.5237620000000  0.3976130000000  0.5036370000000 1.0
C      1  0.4920420000000  0.5837840000000  0.5442930000000 1.0
C      1  0.4311670000000  0.5405520000000  0.5526740000000 1.0
C      1  0.5059570000000  0.4994970000000  0.5210460000000 1.0
C      1  0.4727890000000  0.4423060000000  0.5842270000000 1.0
C      1  0.4911400000000  0.4429530000000  0.4822620000000 1.0
C      1  0.4979620000000  0.4460500000000  0.4044700000000 1.0
C      1  0.4700220000000  0.5866920000000  0.5654790000000 1.0
C      1  0.4319440000000  0.5956370000000  0.5316710000000 1.0
C      1  0.5726240000000  0.5996920000000  0.4612340000000 1.0
C      1  0.4188850000000  0.5445360000000  0.4578260000000 1.0
C      1  0.4527800000000  0.4228560000000  0.4988440000000 1.0
C      1  0.4630120000000  0.5475190000000  0.6050100000000 1.0
C      1  0.4565050000000  0.5068800000000  0.5269700000000 1.0
C      1  0.5113500000000  0.4026720000000  0.4361360000000 1.0
C      1  0.3917640000000  0.5022440000000  0.4952200000000 1.0
C      1  0.5820410000000  0.4363300000000  0.4819460000000 1.0
C      1  0.4831200000000  0.5556790000000  0.5344520000000 1.0
C      1  0.5886180000000  0.5616130000000  0.4892730000000 1.0
C      1  0.5114850000000  0.5077550000000  0.4940030000000 1.0
C      1  0.5232120000000  0.5816550000000  0.4799330000000 1.0
C      1  0.4935570000000  0.4248000000000  0.4257430000000 1.0
C      1  0.4601250000000  0.5542450000000  0.5141690000000 1.0
C      1  0.5227780000000  0.4425310000000  0.4827570000000 1.0
C      1  0.4476030000000  0.4565260000000  0.4707930000000 1.0
C      1  0.5456020000000  0.4423310000000  0.5441720000000 1.0
C      1  0.3965410000000  0.4685590000000  0.5403630000000 1.0
C      1  0.5323970000000  0.5518030000000  0.4800950000000 1.0
C      1  0.5377010000000  0.4953620000000  0.4846910000000 1.0
C      1  0.4773430000000  0.5603630000000  0.5812480000000 1.0
C      1  0.4453410000000  0.4534950000000  0.5356680000000 1.0
C      1  0.6004370000000  0.4860910000000  0.4514910000000 1.0
C      1  0.4231440000000  0.5840290000000  0.4865410000000 1.0
END
