TITL C-951334-9093-497 -6.13399295517721e-07 125000 -482.717264531081 0 0 80 (C1) n - 1
REM
REM in /home/bkarasulu/work/CARBON/AIRSS/Generating-Clusters/EDIP-Nigel-Params/with-SteepDescent/Only-C1/SD-CG/HFTN-CG
REM
REM
REM
REM
REM
REM ./C.cell (11c1c37f851c82e70ff6c80c92926a4b)
REM
REM compiler GCC version 9.2.1 20190827 (Red Hat 9.2.1-1)
REM options -cpp -mtune=generic -march=x86-64 -g -O0 -fpre-include=/usr/include/finclude/math-vector-fortran.h
REM seed -274235131 1975291495 459705069 658241265 -556568851 -1393448224 1665492928 240699757 57841769 -1295273639 981432291 -1896884995 -547968889 1591734098 2096860899 -2018680709 1403500364 -1556243255 602232198 -2058613618 -1300321222 -350100240 836383302 -710240510 773946878 1900330250 -54904960 -2106755236 338950432 1183904323 -1987582197 -561889631 -1507350955
REM
CELL 1.54180   50.00000   50.00000   50.00000   90.00000   90.00000   90.00000
LATT -1
SFAC C  
C      1  0.4359950000000  0.5146310000000  0.5385280000000 1.0
C      1  0.4764170000000  0.5829600000000  0.5300000000000 1.0
C      1  0.5374180000000  0.5307590000000  0.5059440000000 1.0
C      1  0.4892050000000  0.4691850000000  0.4231790000000 1.0
C      1  0.5499890000000  0.5341370000000  0.5325300000000 1.0
C      1  0.4789600000000  0.4622940000000  0.4688010000000 1.0
C      1  0.5800570000000  0.4963920000000  0.5229550000000 1.0
C      1  0.4669350000000  0.4676870000000  0.4416790000000 1.0
C      1  0.5115580000000  0.5141320000000  0.5413600000000 1.0
C      1  0.5349370000000  0.4828260000000  0.5085620000000 1.0
C      1  0.4221760000000  0.4915230000000  0.5079980000000 1.0
C      1  0.5682880000000  0.5481540000000  0.4586400000000 1.0
C      1  0.5401010000000  0.4705100000000  0.5599200000000 1.0
C      1  0.5563840000000  0.4935410000000  0.4430000000000 1.0
C      1  0.5021160000000  0.4414760000000  0.5731710000000 1.0
C      1  0.4935470000000  0.5529270000000  0.4673850000000 1.0
C      1  0.4769360000000  0.5328010000000  0.4928690000000 1.0
C      1  0.5277270000000  0.5710350000000  0.5219500000000 1.0
C      1  0.5027240000000  0.4275570000000  0.5246390000000 1.0
C      1  0.5737020000000  0.5194030000000  0.5361320000000 1.0
C      1  0.4813840000000  0.5793380000000  0.4689140000000 1.0
C      1  0.4672290000000  0.5323900000000  0.5245250000000 1.0
C      1  0.5104380000000  0.4998620000000  0.4608290000000 1.0
C      1  0.5001360000000  0.4564800000000  0.5164730000000 1.0
C      1  0.4753490000000  0.5004810000000  0.5818140000000 1.0
C      1  0.5456000000000  0.5601970000000  0.5414960000000 1.0
C      1  0.5785910000000  0.5332210000000  0.4792260000000 1.0
C      1  0.5597890000000  0.4585660000000  0.4582160000000 1.0
C      1  0.4920970000000  0.5389060000000  0.5414230000000 1.0
C      1  0.5187340000000  0.4620680000000  0.4937960000000 1.0
C      1  0.5526890000000  0.4529980000000  0.5417000000000 1.0
C      1  0.4994470000000  0.5634170000000  0.5249940000000 1.0
C      1  0.5026790000000  0.4444620000000  0.4227470000000 1.0
C      1  0.4697970000000  0.4263660000000  0.5047580000000 1.0
C      1  0.4289150000000  0.4909460000000  0.4595320000000 1.0
C      1  0.5050910000000  0.4211180000000  0.4679490000000 1.0
C      1  0.4324920000000  0.4641610000000  0.5317670000000 1.0
C      1  0.5413180000000  0.5407740000000  0.4536020000000 1.0
C      1  0.4554260000000  0.4841650000000  0.5715000000000 1.0
C      1  0.5029070000000  0.4921600000000  0.5788160000000 1.0
C      1  0.4555670000000  0.5724960000000  0.4787970000000 1.0
C      1  0.4137660000000  0.5154760000000  0.5210560000000 1.0
C      1  0.5131260000000  0.4666160000000  0.5695020000000 1.0
C      1  0.5631390000000  0.4900130000000  0.5013160000000 1.0
C      1  0.5071040000000  0.4714160000000  0.4686610000000 1.0
C      1  0.5366080000000  0.5677120000000  0.4945650000000 1.0
C      1  0.5059850000000  0.4938400000000  0.4298680000000 1.0
C      1  0.4737270000000  0.4690740000000  0.5163070000000 1.0
C      1  0.5010980000000  0.4241070000000  0.5528600000000 1.0
C      1  0.5276850000000  0.4339140000000  0.4854840000000 1.0
C      1  0.4891530000000  0.5190670000000  0.4223400000000 1.0
C      1  0.4490460000000  0.5268620000000  0.4846770000000 1.0
C      1  0.4702790000000  0.4834290000000  0.4906650000000 1.0
C      1  0.5564200000000  0.5159100000000  0.4875010000000 1.0
C      1  0.4517730000000  0.5775020000000  0.5082810000000 1.0
C      1  0.5084570000000  0.4248200000000  0.4404110000000 1.0
C      1  0.5561700000000  0.4410480000000  0.4815190000000 1.0
C      1  0.4422050000000  0.5479900000000  0.4653980000000 1.0
C      1  0.5419710000000  0.4995340000000  0.5590600000000 1.0
C      1  0.4926040000000  0.5069710000000  0.4908900000000 1.0
C      1  0.5430960000000  0.4584600000000  0.4342840000000 1.0
C      1  0.5176000000000  0.5077780000000  0.5117460000000 1.0
C      1  0.4913000000000  0.5443890000000  0.4384090000000 1.0
C      1  0.5554060000000  0.4357820000000  0.5197920000000 1.0
C      1  0.5402730000000  0.5111900000000  0.4613470000000 1.0
C      1  0.4508620000000  0.4917010000000  0.4421060000000 1.0
C      1  0.4479310000000  0.5559760000000  0.5308630000000 1.0
C      1  0.4529340000000  0.5425780000000  0.4384380000000 1.0
C      1  0.5302380000000  0.4204400000000  0.5122490000000 1.0
C      1  0.4595430000000  0.5158680000000  0.4273620000000 1.0
C      1  0.5351080000000  0.4850620000000  0.4223130000000 1.0
C      1  0.4393260000000  0.4873530000000  0.5488800000000 1.0
C      1  0.4543840000000  0.4476000000000  0.5200960000000 1.0
C      1  0.4413740000000  0.4973570000000  0.4851040000000 1.0
C      1  0.4788140000000  0.4324000000000  0.4771990000000 1.0
C      1  0.5232700000000  0.5547990000000  0.4723690000000 1.0
C      1  0.4707810000000  0.5279480000000  0.5835310000000 1.0
C      1  0.5238680000000  0.5116990000000  0.5776960000000 1.0
C      1  0.4806210000000  0.5486450000000  0.5676280000000 1.0
C      1  0.4621090000000  0.5691710000000  0.5561120000000 1.0
END
