TITL C-951338-5626-603 2.26993372750218e-05 125000 -174.417470244486 0 0 30 (C1) n - 1
REM
REM in /home/bkarasulu/work/CARBON/AIRSS/Generating-Clusters/EDIP-Nigel-Params/with-SteepDescent/Only-C1/SD-CG/HFTN-CG
REM
REM
REM
REM
REM
REM ./C.cell (11c1c37f851c82e70ff6c80c92926a4b)
REM
REM compiler GCC version 9.2.1 20190827 (Red Hat 9.2.1-1)
REM options -cpp -mtune=generic -march=x86-64 -g -O0 -fpre-include=/usr/include/finclude/math-vector-fortran.h
REM seed -800170907 1998888957 -1120960472 -900271166 -506030086 1422555698 -1689347483 180902152 711706154 -963448356 -121898427 959617158 -2045333622 -1172438375 757939327 -1618710739 970998728 1548673626 1862224646 687158979 358551757 2125612344 1413904187 1560196125 1104826135 -1965766779 -925172098 -648365939 1547452872 954360469 1974379441 -570313108 579905558
REM
CELL 1.54180   50.00000   50.00000   50.00000   90.00000   90.00000   90.00000
LATT -1
SFAC C  
C      1  0.4508050000000  0.4950690000000  0.5224620000000 1.0
C      1  0.4782980000000  0.4921650000000  0.4343560000000 1.0
C      1  0.5137570000000  0.5116920000000  0.4614540000000 1.0
C      1  0.4866250000000  0.5118490000000  0.4524850000000 1.0
C      1  0.5224270000000  0.5293050000000  0.4825110000000 1.0
C      1  0.4359630000000  0.5020460000000  0.4742010000000 1.0
C      1  0.5517390000000  0.5225310000000  0.5226880000000 1.0
C      1  0.4717670000000  0.5348700000000  0.4624880000000 1.0
C      1  0.4587930000000  0.5331200000000  0.5196140000000 1.0
C      1  0.5121510000000  0.5552820000000  0.4850160000000 1.0
C      1  0.5666210000000  0.4641930000000  0.5252310000000 1.0
C      1  0.5085400000000  0.4869960000000  0.5659320000000 1.0
C      1  0.5555060000000  0.4656500000000  0.5000280000000 1.0
C      1  0.5446500000000  0.4883770000000  0.4867370000000 1.0
C      1  0.4866790000000  0.5548400000000  0.4756910000000 1.0
C      1  0.4800190000000  0.4892470000000  0.5158920000000 1.0
C      1  0.5335090000000  0.4874710000000  0.5522680000000 1.0
C      1  0.4312460000000  0.4924750000000  0.5006430000000 1.0
C      1  0.4824270000000  0.5177900000000  0.5180680000000 1.0
C      1  0.5410210000000  0.4654050000000  0.5358820000000 1.0
C      1  0.4973730000000  0.4729190000000  0.4338770000000 1.0
C      1  0.5455690000000  0.5117350000000  0.5464420000000 1.0
C      1  0.5271660000000  0.4865520000000  0.4638170000000 1.0
C      1  0.4839330000000  0.4508090000000  0.5462970000000 1.0
C      1  0.5207980000000  0.4660980000000  0.4457790000000 1.0
C      1  0.4978210000000  0.4716570000000  0.5317460000000 1.0
C      1  0.4437140000000  0.5300640000000  0.4705360000000 1.0
C      1  0.4362810000000  0.5303890000000  0.5009950000000 1.0
C      1  0.4920710000000  0.4641490000000  0.5693290000000 1.0
C      1  0.5427300000000  0.5152560000000  0.4975330000000 1.0
END
