TITL C-951339-9237-30 -1.26838834530816e-06 125000 -447.191865521045 0 0 72 (C1) n - 1
REM
REM in /home/bkarasulu/work/CARBON/AIRSS/Generating-Clusters/EDIP-Nigel-Params/with-SteepDescent/Only-C1/SD-CG/HFTN-CG
REM
REM
REM
REM
REM
REM ./C.cell (11c1c37f851c82e70ff6c80c92926a4b)
REM
REM compiler GCC version 9.2.1 20190827 (Red Hat 9.2.1-1)
REM options -cpp -mtune=generic -march=x86-64 -g -O0 -fpre-include=/usr/include/finclude/math-vector-fortran.h
REM seed 1215105474 555392063 1643914337 -952280645 -366172905 1828381887 967061101 -394108421 -1894113931 299500589 -1500644510 1426747818 -426627211 -662195536 789245891 1728566682 528758741 -2080194634 284043366 -923624918 -1199405033 -1855948574 1685087035 -210923074 723485012 -343754635 -285028296 1695756946 958930782 993818608 -418135182 1858985185 49269067
REM
CELL 1.54180   50.00000   50.00000   50.00000   90.00000   90.00000   90.00000
LATT -1
SFAC C  
C      1  0.5315500000000  0.5052580000000  0.5687120000000 1.0
C      1  0.5617420000000  0.5336370000000  0.5202640000000 1.0
C      1  0.4861960000000  0.4738590000000  0.5764370000000 1.0
C      1  0.4733740000000  0.4322990000000  0.4687480000000 1.0
C      1  0.4839260000000  0.4343720000000  0.4419170000000 1.0
C      1  0.4623690000000  0.4826790000000  0.4402620000000 1.0
C      1  0.4956080000000  0.4205690000000  0.5099980000000 1.0
C      1  0.5536630000000  0.4782940000000  0.5345330000000 1.0
C      1  0.4174520000000  0.5125880000000  0.5409910000000 1.0
C      1  0.4518810000000  0.5043000000000  0.4797800000000 1.0
C      1  0.5323800000000  0.4825670000000  0.5855890000000 1.0
C      1  0.5630670000000  0.4888020000000  0.4593760000000 1.0
C      1  0.4755200000000  0.4564010000000  0.5555020000000 1.0
C      1  0.5638980000000  0.5617190000000  0.5170760000000 1.0
C      1  0.5334780000000  0.4981460000000  0.5402310000000 1.0
C      1  0.4960420000000  0.4341890000000  0.5569540000000 1.0
C      1  0.5042300000000  0.4757330000000  0.4696070000000 1.0
C      1  0.5053590000000  0.5441290000000  0.4543770000000 1.0
C      1  0.5707100000000  0.5158870000000  0.4488460000000 1.0
C      1  0.4670160000000  0.5046790000000  0.5433970000000 1.0
C      1  0.5462260000000  0.5435830000000  0.4774800000000 1.0
C      1  0.4203980000000  0.5356760000000  0.4970140000000 1.0
C      1  0.5326780000000  0.5221110000000  0.5218230000000 1.0
C      1  0.4995430000000  0.5665920000000  0.5121120000000 1.0
C      1  0.5392520000000  0.4775970000000  0.4427770000000 1.0
C      1  0.4488830000000  0.5621490000000  0.4984600000000 1.0
C      1  0.5062550000000  0.5207800000000  0.5741900000000 1.0
C      1  0.4306150000000  0.4850190000000  0.5045020000000 1.0
C      1  0.4949890000000  0.4177870000000  0.4822200000000 1.0
C      1  0.5460740000000  0.5260710000000  0.4339870000000 1.0
C      1  0.5599920000000  0.4724660000000  0.5067300000000 1.0
C      1  0.5228180000000  0.5783220000000  0.5027840000000 1.0
C      1  0.5035170000000  0.4951160000000  0.4921260000000 1.0
C      1  0.5001770000000  0.4792640000000  0.5176750000000 1.0
C      1  0.5574170000000  0.4960400000000  0.4888270000000 1.0
C      1  0.4491670000000  0.5473900000000  0.5517150000000 1.0
C      1  0.5140800000000  0.4367490000000  0.5791430000000 1.0
C      1  0.5469160000000  0.5672390000000  0.4955760000000 1.0
C      1  0.5007290000000  0.5455260000000  0.5581610000000 1.0
C      1  0.4410430000000  0.5182910000000  0.5552150000000 1.0
C      1  0.5174290000000  0.4277880000000  0.4676950000000 1.0
C      1  0.4528540000000  0.4656360000000  0.5091970000000 1.0
C      1  0.4519690000000  0.4775230000000  0.4664400000000 1.0
C      1  0.5098310000000  0.4324660000000  0.5309900000000 1.0
C      1  0.5001270000000  0.4536980000000  0.4281280000000 1.0
C      1  0.5001170000000  0.5037900000000  0.4284940000000 1.0
C      1  0.4781770000000  0.5247450000000  0.5210480000000 1.0
C      1  0.4450240000000  0.5233160000000  0.4582130000000 1.0
C      1  0.4555090000000  0.5442210000000  0.5223020000000 1.0
C      1  0.4865250000000  0.5398970000000  0.4748150000000 1.0
C      1  0.4798190000000  0.5148200000000  0.4912510000000 1.0
C      1  0.5387800000000  0.4543230000000  0.4996700000000 1.0
C      1  0.4727260000000  0.4749960000000  0.5306260000000 1.0
C      1  0.4916590000000  0.4790110000000  0.4415860000000 1.0
C      1  0.4839110000000  0.5019790000000  0.5682420000000 1.0
C      1  0.4657580000000  0.4579800000000  0.4825900000000 1.0
C      1  0.5039960000000  0.5404640000000  0.5284430000000 1.0
C      1  0.4787440000000  0.5641590000000  0.4897600000000 1.0
C      1  0.4740570000000  0.5531470000000  0.5637590000000 1.0
C      1  0.5303500000000  0.5116840000000  0.4933920000000 1.0
C      1  0.4293950000000  0.5438950000000  0.4711250000000 1.0
C      1  0.4260210000000  0.5121390000000  0.5140930000000 1.0
C      1  0.5327950000000  0.5466190000000  0.4514220000000 1.0
C      1  0.5288050000000  0.4527570000000  0.4289180000000 1.0
C      1  0.5745080000000  0.5341590000000  0.4726090000000 1.0
C      1  0.5290060000000  0.5022700000000  0.4282720000000 1.0
C      1  0.5216300000000  0.4596800000000  0.5240430000000 1.0
C      1  0.4795200000000  0.5207250000000  0.4182320000000 1.0
C      1  0.4565300000000  0.5110550000000  0.4326180000000 1.0
C      1  0.5264420000000  0.4551440000000  0.4721600000000 1.0
C      1  0.5762550000000  0.5183650000000  0.4981700000000 1.0
C      1  0.5115040000000  0.4636720000000  0.5865840000000 1.0
END
