TITL C-951342-2639-63 4.07788791706743e-07 125000 -1243.32774556204 0 0 199 (C1) n - 1
REM
REM in /home/bkarasulu/work/CARBON/AIRSS/Generating-Clusters/EDIP-Nigel-Params/with-SteepDescent/Only-C1/SD-CG/HFTN-CG
REM
REM
REM
REM
REM
REM ./C.cell (11c1c37f851c82e70ff6c80c92926a4b)
REM
REM compiler GCC version 9.2.1 20190827 (Red Hat 9.2.1-1)
REM options -cpp -mtune=generic -march=x86-64 -g -O0 -fpre-include=/usr/include/finclude/math-vector-fortran.h
REM seed -2019241680 559782940 662949061 -2119742753 1120848061 -1179938925 863760510 650742320 -946746079 -477561461 -583727626 475331844 -1759926827 -529857585 -36555686 1304415676 1973828112 2112149668 1674452932 1085933826 -422571295 -208501896 891245898 -858779911 -1059537406 -10809535 1705683700 -186739473 221983831 -1704656240 -452943104 -754392346 1389896939
REM
CELL 1.54180   50.00000   50.00000   50.00000   90.00000   90.00000   90.00000
LATT -1
SFAC C  
C      1  0.4716720000000  0.5419250000000  0.5070300000000 1.0
C      1  0.4784220000000  0.5574460000000  0.4550770000000 1.0
C      1  0.3891470000000  0.4988710000000  0.5035590000000 1.0
C      1  0.4150620000000  0.4975900000000  0.5443560000000 1.0
C      1  0.4911080000000  0.4513760000000  0.5521150000000 1.0
C      1  0.4462550000000  0.4031880000000  0.5619970000000 1.0
C      1  0.4576180000000  0.5207480000000  0.5523160000000 1.0
C      1  0.4378560000000  0.4569120000000  0.5516240000000 1.0
C      1  0.4525010000000  0.4805590000000  0.6033410000000 1.0
C      1  0.6055770000000  0.4841770000000  0.5294730000000 1.0
C      1  0.5282830000000  0.5086570000000  0.4271000000000 1.0
C      1  0.5934000000000  0.5551140000000  0.5198340000000 1.0
C      1  0.5599400000000  0.5956410000000  0.4331850000000 1.0
C      1  0.4155590000000  0.4414200000000  0.4734200000000 1.0
C      1  0.4494390000000  0.5428520000000  0.5960850000000 1.0
C      1  0.5511550000000  0.5030860000000  0.4763540000000 1.0
C      1  0.4062260000000  0.4110820000000  0.5351350000000 1.0
C      1  0.5658660000000  0.5543820000000  0.5262840000000 1.0
C      1  0.4838220000000  0.4330870000000  0.4852400000000 1.0
C      1  0.4398930000000  0.4594150000000  0.4747880000000 1.0
C      1  0.4963740000000  0.5617640000000  0.3903950000000 1.0
C      1  0.5751240000000  0.4225090000000  0.5579570000000 1.0
C      1  0.4932960000000  0.6069700000000  0.5024640000000 1.0
C      1  0.4513280000000  0.5901010000000  0.4796850000000 1.0
C      1  0.4277100000000  0.4871920000000  0.4811170000000 1.0
C      1  0.6044120000000  0.5125780000000  0.5359830000000 1.0
C      1  0.4769830000000  0.4833200000000  0.6158550000000 1.0
C      1  0.4460940000000  0.4327180000000  0.5685690000000 1.0
C      1  0.5494740000000  0.4946680000000  0.5506780000000 1.0
C      1  0.5529850000000  0.5307860000000  0.5568150000000 1.0
C      1  0.5065990000000  0.4408970000000  0.4655900000000 1.0
C      1  0.5196110000000  0.4175680000000  0.5506920000000 1.0
C      1  0.4995720000000  0.4961770000000  0.5996600000000 1.0
C      1  0.5382150000000  0.5938480000000  0.5742860000000 1.0
C      1  0.4851110000000  0.5160390000000  0.5636830000000 1.0
C      1  0.6176310000000  0.5066340000000  0.4694310000000 1.0
C      1  0.4707540000000  0.4885560000000  0.4107130000000 1.0
C      1  0.5944340000000  0.5189380000000  0.4244960000000 1.0
C      1  0.4496520000000  0.5113970000000  0.4190200000000 1.0
C      1  0.4415090000000  0.5107260000000  0.4970970000000 1.0
C      1  0.4979960000000  0.4616320000000  0.6184040000000 1.0
C      1  0.4588010000000  0.6131040000000  0.5363680000000 1.0
C      1  0.4967850000000  0.3731670000000  0.4741420000000 1.0
C      1  0.5493650000000  0.5985240000000  0.5067410000000 1.0
C      1  0.4749980000000  0.5400260000000  0.6081830000000 1.0
C      1  0.4989850000000  0.4397040000000  0.5991970000000 1.0
C      1  0.5568560000000  0.5794040000000  0.4121450000000 1.0
C      1  0.4766220000000  0.4196790000000  0.4314920000000 1.0
C      1  0.4778050000000  0.3954350000000  0.5317050000000 1.0
C      1  0.5483780000000  0.4834020000000  0.6065460000000 1.0
C      1  0.5741660000000  0.4845010000000  0.5908690000000 1.0
C      1  0.4091300000000  0.5155730000000  0.4364080000000 1.0
C      1  0.6086210000000  0.5325970000000  0.5152610000000 1.0
C      1  0.5217210000000  0.5592940000000  0.5966260000000 1.0
C      1  0.5763890000000  0.4381650000000  0.5135230000000 1.0
C      1  0.4347050000000  0.4941870000000  0.5867950000000 1.0
C      1  0.4446370000000  0.4322420000000  0.5155150000000 1.0
C      1  0.4722210000000  0.3918180000000  0.5590260000000 1.0
C      1  0.5693830000000  0.4089530000000  0.4905090000000 1.0
C      1  0.4425900000000  0.5749790000000  0.5046630000000 1.0
C      1  0.5248710000000  0.4652380000000  0.4808260000000 1.0
C      1  0.4314370000000  0.4476160000000  0.4259990000000 1.0
C      1  0.5828020000000  0.4725690000000  0.4454690000000 1.0
C      1  0.5593340000000  0.5273640000000  0.6002080000000 1.0
C      1  0.4523600000000  0.5679720000000  0.5822470000000 1.0
C      1  0.5388120000000  0.5516840000000  0.4506070000000 1.0
C      1  0.5427170000000  0.5105790000000  0.6166270000000 1.0
C      1  0.5946540000000  0.4657810000000  0.5493390000000 1.0
C      1  0.4990640000000  0.5429070000000  0.5692290000000 1.0
C      1  0.6155190000000  0.5267260000000  0.4887780000000 1.0
C      1  0.5133410000000  0.5156130000000  0.6171200000000 1.0
C      1  0.5074050000000  0.4891160000000  0.4787200000000 1.0
C      1  0.5922810000000  0.4379590000000  0.5396360000000 1.0
C      1  0.4530110000000  0.4531580000000  0.4475480000000 1.0
C      1  0.5052690000000  0.4071500000000  0.5251450000000 1.0
C      1  0.5287510000000  0.5797890000000  0.5483870000000 1.0
C      1  0.4946050000000  0.5165850000000  0.5204560000000 1.0
C      1  0.5715600000000  0.5173430000000  0.4624600000000 1.0
C      1  0.5906670000000  0.5216190000000  0.5600300000000 1.0
C      1  0.3987210000000  0.4881060000000  0.4765730000000 1.0
C      1  0.5468300000000  0.5252320000000  0.4075370000000 1.0
C      1  0.3952320000000  0.5354470000000  0.4785250000000 1.0
C      1  0.5558120000000  0.4434810000000  0.5690760000000 1.0
C      1  0.5162010000000  0.5882490000000  0.5923620000000 1.0
C      1  0.5568000000000  0.5097020000000  0.5037460000000 1.0
C      1  0.4483930000000  0.4489230000000  0.4009630000000 1.0
C      1  0.5120670000000  0.5599140000000  0.4977030000000 1.0
C      1  0.4990990000000  0.4517740000000  0.4019890000000 1.0
C      1  0.5717170000000  0.5876020000000  0.5573270000000 1.0
C      1  0.5341850000000  0.4442450000000  0.5482700000000 1.0
C      1  0.5236390000000  0.6029000000000  0.4668850000000 1.0
C      1  0.5007240000000  0.4983080000000  0.5466320000000 1.0
C      1  0.4019710000000  0.5684110000000  0.5294150000000 1.0
C      1  0.5188050000000  0.5390730000000  0.5194630000000 1.0
C      1  0.6263370000000  0.4841830000000  0.4827950000000 1.0
C      1  0.5278060000000  0.4498210000000  0.4034220000000 1.0
C      1  0.4365150000000  0.5969210000000  0.5431870000000 1.0
C      1  0.4200920000000  0.5876160000000  0.5205590000000 1.0
C      1  0.5238930000000  0.4796710000000  0.5594090000000 1.0
C      1  0.3999570000000  0.4567840000000  0.5216590000000 1.0
C      1  0.5195400000000  0.4135240000000  0.4565890000000 1.0
C      1  0.4866550000000  0.4949650000000  0.4983610000000 1.0
C      1  0.5004170000000  0.4022130000000  0.4356010000000 1.0
C      1  0.4808030000000  0.4441400000000  0.5769070000000 1.0
C      1  0.4415340000000  0.5695770000000  0.5547390000000 1.0
C      1  0.5089910000000  0.5711530000000  0.4145700000000 1.0
C      1  0.4297300000000  0.3953550000000  0.5377680000000 1.0
C      1  0.3981790000000  0.5262480000000  0.5059120000000 1.0
C      1  0.5388020000000  0.5643490000000  0.4814010000000 1.0
C      1  0.5219380000000  0.6028230000000  0.4955770000000 1.0
C      1  0.5337510000000  0.4784110000000  0.4364640000000 1.0
C      1  0.5361200000000  0.5208990000000  0.3809940000000 1.0
C      1  0.4514930000000  0.4030490000000  0.5172840000000 1.0
C      1  0.5460290000000  0.4209450000000  0.4460480000000 1.0
C      1  0.4971990000000  0.5014510000000  0.4012860000000 1.0
C      1  0.5028130000000  0.5423280000000  0.6130690000000 1.0
C      1  0.5236300000000  0.5122250000000  0.4741670000000 1.0
C      1  0.3957400000000  0.4836290000000  0.5265020000000 1.0
C      1  0.5693890000000  0.4719780000000  0.5646820000000 1.0
C      1  0.4320290000000  0.5579210000000  0.4191090000000 1.0
C      1  0.6112240000000  0.4721310000000  0.5029330000000 1.0
C      1  0.4068030000000  0.4647850000000  0.4307900000000 1.0
C      1  0.3988760000000  0.5408040000000  0.5311930000000 1.0
C      1  0.5422810000000  0.4375970000000  0.4240700000000 1.0
C      1  0.4888040000000  0.5812120000000  0.4355650000000 1.0
C      1  0.3936430000000  0.5121840000000  0.4604070000000 1.0
C      1  0.5215470000000  0.3863590000000  0.4813710000000 1.0
C      1  0.4555810000000  0.4761510000000  0.5348750000000 1.0
C      1  0.4601140000000  0.4491460000000  0.4959440000000 1.0
C      1  0.5310240000000  0.4668980000000  0.5110680000000 1.0
C      1  0.4742140000000  0.3909000000000  0.4765740000000 1.0
C      1  0.5648160000000  0.4275520000000  0.4676350000000 1.0
C      1  0.5227380000000  0.4753660000000  0.5912400000000 1.0
C      1  0.4741560000000  0.4702520000000  0.5127100000000 1.0
C      1  0.4888340000000  0.5303390000000  0.4424050000000 1.0
C      1  0.4977260000000  0.4570920000000  0.5246830000000 1.0
C      1  0.4754080000000  0.4368220000000  0.4078480000000 1.0
C      1  0.4881810000000  0.5521070000000  0.4841200000000 1.0
C      1  0.5011440000000  0.4321150000000  0.5090110000000 1.0
C      1  0.4361970000000  0.5438980000000  0.4922510000000 1.0
C      1  0.5036030000000  0.5981650000000  0.5471570000000 1.0
C      1  0.4661700000000  0.5917680000000  0.4206490000000 1.0
C      1  0.3968860000000  0.4612040000000  0.4599800000000 1.0
C      1  0.5226270000000  0.4961490000000  0.3850250000000 1.0
C      1  0.5548610000000  0.5824010000000  0.5322680000000 1.0
C      1  0.4154250000000  0.4337650000000  0.5211280000000 1.0
C      1  0.5841600000000  0.4498130000000  0.4659300000000 1.0
C      1  0.4429500000000  0.5816960000000  0.4324770000000 1.0
C      1  0.4705490000000  0.5495650000000  0.3889460000000 1.0
C      1  0.4346250000000  0.4093040000000  0.4691150000000 1.0
C      1  0.4777250000000  0.6045410000000  0.4780370000000 1.0
C      1  0.5193670000000  0.5266700000000  0.4498640000000 1.0
C      1  0.4211320000000  0.4778640000000  0.5664230000000 1.0
C      1  0.4265120000000  0.4924670000000  0.3944810000000 1.0
C      1  0.4142690000000  0.5442420000000  0.4374630000000 1.0
C      1  0.4932900000000  0.5930620000000  0.5740330000000 1.0
C      1  0.4376660000000  0.5228330000000  0.5750350000000 1.0
C      1  0.4115660000000  0.5554230000000  0.4645540000000 1.0
C      1  0.5048470000000  0.4613850000000  0.4390830000000 1.0
C      1  0.5807100000000  0.5129660000000  0.5863040000000 1.0
C      1  0.4076460000000  0.5254610000000  0.5549200000000 1.0
C      1  0.5441920000000  0.4918370000000  0.5216170000000 1.0
C      1  0.5534790000000  0.4008730000000  0.5142410000000 1.0
C      1  0.4485310000000  0.3923020000000  0.4888970000000 1.0
C      1  0.5244700000000  0.4080910000000  0.5771090000000 1.0
C      1  0.5870450000000  0.5462000000000  0.4303660000000 1.0
C      1  0.5515550000000  0.5539560000000  0.5940110000000 1.0
C      1  0.4523370000000  0.5398040000000  0.4092680000000 1.0
C      1  0.5638710000000  0.4029510000000  0.5408540000000 1.0
C      1  0.5261460000000  0.3906640000000  0.5096900000000 1.0
C      1  0.5646020000000  0.5919220000000  0.4830730000000 1.0
C      1  0.4668690000000  0.5068990000000  0.4816660000000 1.0
C      1  0.5511810000000  0.6001510000000  0.4589180000000 1.0
C      1  0.5263170000000  0.4324780000000  0.5915920000000 1.0
C      1  0.5726990000000  0.5087650000000  0.4072060000000 1.0
C      1  0.4670390000000  0.5687060000000  0.5255870000000 1.0
C      1  0.5493290000000  0.5389330000000  0.5066580000000 1.0
C      1  0.5487530000000  0.4750670000000  0.4638060000000 1.0
C      1  0.4814140000000  0.5971830000000  0.5276180000000 1.0
C      1  0.5412130000000  0.4735600000000  0.3935580000000 1.0
C      1  0.4519260000000  0.4142910000000  0.4461860000000 1.0
C      1  0.4757340000000  0.4747390000000  0.4388930000000 1.0
C      1  0.4969240000000  0.6026550000000  0.4547600000000 1.0
C      1  0.5894030000000  0.4560330000000  0.4937440000000 1.0
C      1  0.4511240000000  0.4767980000000  0.3912210000000 1.0
C      1  0.4481240000000  0.5683690000000  0.4591820000000 1.0
C      1  0.5938750000000  0.5022810000000  0.4506420000000 1.0
C      1  0.5470940000000  0.4444760000000  0.5207030000000 1.0
C      1  0.4434520000000  0.5023760000000  0.5312330000000 1.0
C      1  0.5368380000000  0.5602520000000  0.4199680000000 1.0
C      1  0.4701260000000  0.5063990000000  0.4513830000000 1.0
C      1  0.4791150000000  0.5674560000000  0.5667520000000 1.0
C      1  0.4106140000000  0.4920350000000  0.4188160000000 1.0
C      1  0.5670680000000  0.5422140000000  0.4502530000000 1.0
C      1  0.5642380000000  0.4808010000000  0.4123140000000 1.0
C      1  0.5688120000000  0.5625740000000  0.5722360000000 1.0
C      1  0.4922420000000  0.3760260000000  0.4454540000000 1.0
C      1  0.4949110000000  0.5295110000000  0.4116140000000 1.0
C      1  0.5235780000000  0.5483060000000  0.5493690000000 1.0
END
