TITL C-950527-2551-24 4.38253257926992e-07 125000 -396.193174051279 0 0 65 (C1) n - 1
REM
REM in /home/bkarasulu/work/CARBON/AIRSS/Generating-Clusters/EDIP-Nigel-Params/with-SteepDescent/Only-C1/SD-CG/HFTN-CG
REM
REM
REM
REM
REM
REM ./C.cell (11c1c37f851c82e70ff6c80c92926a4b)
REM
REM compiler GCC version 9.2.1 20190827 (Red Hat 9.2.1-1)
REM options -cpp -mtune=generic -march=x86-64 -g -O0 -fpre-include=/usr/include/finclude/math-vector-fortran.h
REM seed 596541405 2017505572 -269420882 509282564 1175062597 1975462647 203697157 -412451159 -1945869383 -2088933194 -738806518 216500785 -1366937441 858672843 1554684167 -1674467567 -1806084741 386988722 -499047710 -765654042 813704592 1818116152 -508464429 -1596516192 -1724393255 -1373598266 -1197913333 -1584097005 -2140247497 -368553346 -1133380644 1618122929 -678700866
REM
CELL 1.54180   50.00000   50.00000   50.00000   90.00000   90.00000   90.00000
LATT -1
SFAC C  
C      1  0.5278250000000  0.5224160000000  0.4978570000000 1.0
C      1  0.4883340000000  0.4796610000000  0.4429570000000 1.0
C      1  0.5067930000000  0.5305490000000  0.5182100000000 1.0
C      1  0.5605260000000  0.4935150000000  0.4604520000000 1.0
C      1  0.4477330000000  0.4736280000000  0.5484570000000 1.0
C      1  0.5439630000000  0.5705750000000  0.4935850000000 1.0
C      1  0.4641370000000  0.5422990000000  0.5627070000000 1.0
C      1  0.5413330000000  0.4992260000000  0.4393900000000 1.0
C      1  0.4952370000000  0.5071240000000  0.5584680000000 1.0
C      1  0.4676890000000  0.4519440000000  0.5536690000000 1.0
C      1  0.5568660000000  0.5466750000000  0.5387280000000 1.0
C      1  0.4875050000000  0.4854740000000  0.5203980000000 1.0
C      1  0.4938710000000  0.5746710000000  0.5083580000000 1.0
C      1  0.4834170000000  0.5129460000000  0.5100760000000 1.0
C      1  0.5324160000000  0.4775810000000  0.4245920000000 1.0
C      1  0.5020900000000  0.4355840000000  0.5187150000000 1.0
C      1  0.5263410000000  0.4537550000000  0.5290140000000 1.0
C      1  0.5079940000000  0.4276380000000  0.4900880000000 1.0
C      1  0.5046430000000  0.5277930000000  0.4736930000000 1.0
C      1  0.4370380000000  0.5014210000000  0.5053880000000 1.0
C      1  0.4991310000000  0.5714190000000  0.4810040000000 1.0
C      1  0.5344850000000  0.4397880000000  0.4833690000000 1.0
C      1  0.4406400000000  0.4752850000000  0.5196830000000 1.0
C      1  0.5357770000000  0.4792350000000  0.5576730000000 1.0
C      1  0.4560010000000  0.4536580000000  0.5047810000000 1.0
C      1  0.5310600000000  0.5495500000000  0.4484010000000 1.0
C      1  0.5293650000000  0.4665850000000  0.4667860000000 1.0
C      1  0.5088520000000  0.4634050000000  0.4281080000000 1.0
C      1  0.5299150000000  0.4935260000000  0.5015030000000 1.0
C      1  0.5695690000000  0.5142580000000  0.4769860000000 1.0
C      1  0.4788170000000  0.5707560000000  0.5321630000000 1.0
C      1  0.4985210000000  0.4795290000000  0.4731540000000 1.0
C      1  0.4716010000000  0.4357880000000  0.5285200000000 1.0
C      1  0.4490390000000  0.5239160000000  0.4622260000000 1.0
C      1  0.5266230000000  0.5666210000000  0.4717690000000 1.0
C      1  0.4909430000000  0.4604230000000  0.5678640000000 1.0
C      1  0.4918670000000  0.5097860000000  0.4353810000000 1.0
C      1  0.5535760000000  0.4777240000000  0.4954150000000 1.0
C      1  0.5216710000000  0.5219480000000  0.4387250000000 1.0
C      1  0.4920330000000  0.5560720000000  0.5566990000000 1.0
C      1  0.4439680000000  0.4467410000000  0.4777120000000 1.0
C      1  0.4610640000000  0.4646590000000  0.4412590000000 1.0
C      1  0.5094150000000  0.5318150000000  0.5480970000000 1.0
C      1  0.5579410000000  0.5290910000000  0.4978310000000 1.0
C      1  0.4469660000000  0.4960580000000  0.5652800000000 1.0
C      1  0.5460890000000  0.5653400000000  0.5203050000000 1.0
C      1  0.5386820000000  0.5309580000000  0.5561520000000 1.0
C      1  0.5127920000000  0.4400720000000  0.4439390000000 1.0
C      1  0.4831690000000  0.5502290000000  0.4692160000000 1.0
C      1  0.5162910000000  0.4829480000000  0.5245650000000 1.0
C      1  0.4939940000000  0.4361750000000  0.4654860000000 1.0
C      1  0.4563860000000  0.5431300000000  0.4842080000000 1.0
C      1  0.4473440000000  0.4978450000000  0.4768250000000 1.0
C      1  0.5081350000000  0.4827980000000  0.5679380000000 1.0
C      1  0.4397060000000  0.4730900000000  0.4616430000000 1.0
C      1  0.4853250000000  0.5064570000000  0.4801850000000 1.0
C      1  0.4653570000000  0.4375370000000  0.4572410000000 1.0
C      1  0.4550940000000  0.5494490000000  0.5336090000000 1.0
C      1  0.5508820000000  0.5045550000000  0.5521990000000 1.0
C      1  0.5688250000000  0.5240840000000  0.5246380000000 1.0
C      1  0.5478860000000  0.4505050000000  0.5076230000000 1.0
C      1  0.4561850000000  0.5276380000000  0.5109010000000 1.0
C      1  0.4850860000000  0.4643290000000  0.4989100000000 1.0
C      1  0.4695950000000  0.5271060000000  0.4412810000000 1.0
C      1  0.4685860000000  0.5136460000000  0.5679420000000 1.0
END
