TITL C-951344-124-549 -1.03548388583144e-05 125000 -1201.43083705609 0 0 191 (C1) n - 1
REM
REM in /home/bkarasulu/work/CARBON/AIRSS/Generating-Clusters/EDIP-Nigel-Params/with-SteepDescent/Only-C1/SD-CG/HFTN-CG
REM
REM
REM
REM
REM
REM ./C.cell (11c1c37f851c82e70ff6c80c92926a4b)
REM
REM compiler GCC version 9.2.1 20190827 (Red Hat 9.2.1-1)
REM options -cpp -mtune=generic -march=x86-64 -g -O0 -fpre-include=/usr/include/finclude/math-vector-fortran.h
REM seed 1308108729 -1155591619 -956386758 1458011660 -447088835 941435128 -590206487 948842810 -106157325 -1294243146 1619170407 1051999218 290008278 -588106353 -129043956 -977826942 -2027824384 -729802270 931719220 -481785872 -1314739475 -223189003 -2095957783 1282489367 1263241214 1851631481 -693652464 -1120485728 -782400076 1584400031 -1156863658 638098602 -721615433
REM
CELL 1.54180   50.00000   50.00000   50.00000   90.00000   90.00000   90.00000
LATT -1
SFAC C  
C      1  0.4863760000000  0.4342090000000  0.4707310000000 1.0
C      1  0.4735480000000  0.5641950000000  0.4153200000000 1.0
C      1  0.4803580000000  0.5929810000000  0.5564660000000 1.0
C      1  0.5612950000000  0.5735450000000  0.4819320000000 1.0
C      1  0.4332570000000  0.4486560000000  0.5637870000000 1.0
C      1  0.5373590000000  0.4846950000000  0.4585180000000 1.0
C      1  0.5679210000000  0.4327950000000  0.4400250000000 1.0
C      1  0.5811490000000  0.5624230000000  0.4624040000000 1.0
C      1  0.4953290000000  0.5612620000000  0.5994240000000 1.0
C      1  0.4400530000000  0.4636470000000  0.4172580000000 1.0
C      1  0.4734540000000  0.5860220000000  0.4976080000000 1.0
C      1  0.5160370000000  0.5877410000000  0.4328900000000 1.0
C      1  0.5622850000000  0.4427650000000  0.5731570000000 1.0
C      1  0.4911640000000  0.5678620000000  0.5112580000000 1.0
C      1  0.5865820000000  0.4490670000000  0.4577030000000 1.0
C      1  0.4905590000000  0.4154550000000  0.4480290000000 1.0
C      1  0.4364240000000  0.5464640000000  0.5346500000000 1.0
C      1  0.4000480000000  0.5385820000000  0.4653420000000 1.0
C      1  0.4786830000000  0.4615140000000  0.5400800000000 1.0
C      1  0.6242920000000  0.4739400000000  0.4986180000000 1.0
C      1  0.5706330000000  0.4200490000000  0.4959220000000 1.0
C      1  0.4362730000000  0.4794800000000  0.4955580000000 1.0
C      1  0.5044000000000  0.4829290000000  0.3884510000000 1.0
C      1  0.5552280000000  0.4455980000000  0.5026220000000 1.0
C      1  0.5389970000000  0.5111200000000  0.4734050000000 1.0
C      1  0.4742100000000  0.5152620000000  0.4219660000000 1.0
C      1  0.5212500000000  0.5676830000000  0.5052860000000 1.0
C      1  0.3918620000000  0.4875720000000  0.5113570000000 1.0
C      1  0.4872050000000  0.4909690000000  0.5365500000000 1.0
C      1  0.4447790000000  0.4866240000000  0.3984380000000 1.0
C      1  0.4195500000000  0.4348140000000  0.5064200000000 1.0
C      1  0.5035330000000  0.3892770000000  0.4873160000000 1.0
C      1  0.5419500000000  0.5332480000000  0.5974500000000 1.0
C      1  0.4100580000000  0.5677240000000  0.4582990000000 1.0
C      1  0.5382900000000  0.3937870000000  0.5234300000000 1.0
C      1  0.5652580000000  0.5848880000000  0.5108150000000 1.0
C      1  0.4571920000000  0.4892770000000  0.6039980000000 1.0
C      1  0.5830850000000  0.5816920000000  0.5344920000000 1.0
C      1  0.5268200000000  0.6014080000000  0.5408590000000 1.0
C      1  0.5228620000000  0.5180070000000  0.4981600000000 1.0
C      1  0.4234040000000  0.4236390000000  0.5514190000000 1.0
C      1  0.5728100000000  0.5147660000000  0.5262860000000 1.0
C      1  0.3976630000000  0.4761900000000  0.5372200000000 1.0
C      1  0.6028470000000  0.5135050000000  0.5272220000000 1.0
C      1  0.5396610000000  0.5423220000000  0.4393890000000 1.0
C      1  0.4038970000000  0.5624040000000  0.5048840000000 1.0
C      1  0.5936780000000  0.5521210000000  0.5032790000000 1.0
C      1  0.4873740000000  0.5901060000000  0.4252110000000 1.0
C      1  0.4904740000000  0.3967880000000  0.5372100000000 1.0
C      1  0.4910820000000  0.5413800000000  0.4263140000000 1.0
C      1  0.5912570000000  0.5082070000000  0.5783410000000 1.0
C      1  0.3868580000000  0.5147720000000  0.5088600000000 1.0
C      1  0.4708970000000  0.4643650000000  0.6009470000000 1.0
C      1  0.6077440000000  0.4722450000000  0.5474130000000 1.0
C      1  0.4778430000000  0.4711010000000  0.3851840000000 1.0
C      1  0.4488830000000  0.5952230000000  0.4537670000000 1.0
C      1  0.5191890000000  0.4739670000000  0.4968480000000 1.0
C      1  0.5892680000000  0.4793640000000  0.4539020000000 1.0
C      1  0.4442360000000  0.4964250000000  0.5481880000000 1.0
C      1  0.4897940000000  0.5864800000000  0.5840270000000 1.0
C      1  0.5201420000000  0.4496680000000  0.5984980000000 1.0
C      1  0.4571150000000  0.5561050000000  0.5556240000000 1.0
C      1  0.4071800000000  0.4666660000000  0.5631310000000 1.0
C      1  0.5212200000000  0.5267750000000  0.3978370000000 1.0
C      1  0.4579200000000  0.4424680000000  0.5864560000000 1.0
C      1  0.5952460000000  0.4344710000000  0.4832100000000 1.0
C      1  0.4219790000000  0.5086340000000  0.5648360000000 1.0
C      1  0.5540660000000  0.4897140000000  0.5642850000000 1.0
C      1  0.4460900000000  0.5517350000000  0.4789020000000 1.0
C      1  0.5727940000000  0.4861900000000  0.5870430000000 1.0
C      1  0.5453780000000  0.5803620000000  0.5669900000000 1.0
C      1  0.4712450000000  0.5694100000000  0.4712490000000 1.0
C      1  0.5315970000000  0.5655950000000  0.4211850000000 1.0
C      1  0.4723510000000  0.5132260000000  0.3907760000000 1.0
C      1  0.5244400000000  0.4832290000000  0.5676570000000 1.0
C      1  0.5700910000000  0.5640930000000  0.5668950000000 1.0
C      1  0.4070730000000  0.4876310000000  0.4574900000000 1.0
C      1  0.4316100000000  0.5095270000000  0.4146560000000 1.0
C      1  0.5363060000000  0.4376710000000  0.5258410000000 1.0
C      1  0.5789750000000  0.4936640000000  0.4299120000000 1.0
C      1  0.4052580000000  0.4472370000000  0.4837830000000 1.0
C      1  0.5281270000000  0.5266580000000  0.5414950000000 1.0
C      1  0.4994190000000  0.4696450000000  0.6011940000000 1.0
C      1  0.6018510000000  0.5626160000000  0.5452880000000 1.0
C      1  0.5180070000000  0.3976230000000  0.5436220000000 1.0
C      1  0.5082550000000  0.4277750000000  0.5127890000000 1.0
C      1  0.6049110000000  0.5572380000000  0.4772040000000 1.0
C      1  0.4445600000000  0.5555350000000  0.4264270000000 1.0
C      1  0.6109320000000  0.5430950000000  0.5256380000000 1.0
C      1  0.4865360000000  0.4897640000000  0.4335370000000 1.0
C      1  0.5622650000000  0.4087710000000  0.5320730000000 1.0
C      1  0.4975810000000  0.6046670000000  0.5352820000000 1.0
C      1  0.4943490000000  0.3894090000000  0.4603520000000 1.0
C      1  0.4002340000000  0.5144700000000  0.4502710000000 1.0
C      1  0.4709630000000  0.5090470000000  0.5517670000000 1.0
C      1  0.5676280000000  0.5198410000000  0.4762360000000 1.0
C      1  0.4234210000000  0.5747060000000  0.4859650000000 1.0
C      1  0.4844010000000  0.3909550000000  0.5090120000000 1.0
C      1  0.4501180000000  0.5360270000000  0.5074870000000 1.0
C      1  0.5095680000000  0.4773350000000  0.4180750000000 1.0
C      1  0.4301380000000  0.5294760000000  0.5817150000000 1.0
C      1  0.5227190000000  0.5534320000000  0.6028450000000 1.0
C      1  0.5891220000000  0.4979290000000  0.4775640000000 1.0
C      1  0.4433270000000  0.4039120000000  0.5457690000000 1.0
C      1  0.6075620000000  0.4996740000000  0.5541430000000 1.0
C      1  0.5649170000000  0.4818870000000  0.4068190000000 1.0
C      1  0.5694040000000  0.5373670000000  0.4502950000000 1.0
C      1  0.4797580000000  0.5415490000000  0.5157280000000 1.0
C      1  0.4778770000000  0.5111010000000  0.6048060000000 1.0
C      1  0.5176890000000  0.5705080000000  0.5628030000000 1.0
C      1  0.5018260000000  0.5106900000000  0.3822220000000 1.0
C      1  0.4932900000000  0.5455850000000  0.4571070000000 1.0
C      1  0.4289620000000  0.5379220000000  0.4060700000000 1.0
C      1  0.5743510000000  0.4646760000000  0.5130670000000 1.0
C      1  0.4892200000000  0.4929180000000  0.4620210000000 1.0
C      1  0.5230100000000  0.5454400000000  0.4638970000000 1.0
C      1  0.4421560000000  0.4545950000000  0.5103440000000 1.0
C      1  0.4896200000000  0.6107120000000  0.4989350000000 1.0
C      1  0.5313360000000  0.5715110000000  0.4765340000000 1.0
C      1  0.4934420000000  0.5203260000000  0.4983040000000 1.0
C      1  0.4079500000000  0.4773960000000  0.4870420000000 1.0
C      1  0.4750980000000  0.6054230000000  0.4469920000000 1.0
C      1  0.4487520000000  0.5375360000000  0.4500510000000 1.0
C      1  0.4332180000000  0.5908990000000  0.5312200000000 1.0
C      1  0.4745100000000  0.5622590000000  0.3864340000000 1.0
C      1  0.4475070000000  0.4647470000000  0.5413510000000 1.0
C      1  0.5672180000000  0.5349590000000  0.5034810000000 1.0
C      1  0.5348450000000  0.5394570000000  0.5133970000000 1.0
C      1  0.4150620000000  0.5664420000000  0.5318820000000 1.0
C      1  0.5207120000000  0.5953970000000  0.4608820000000 1.0
C      1  0.5159630000000  0.5543610000000  0.3999740000000 1.0
C      1  0.4519810000000  0.5942890000000  0.5535440000000 1.0
C      1  0.4502750000000  0.5481880000000  0.5835510000000 1.0
C      1  0.4195200000000  0.4420650000000  0.4575780000000 1.0
C      1  0.4504050000000  0.5034240000000  0.5050120000000 1.0
C      1  0.5487090000000  0.4568880000000  0.5941030000000 1.0
C      1  0.4605950000000  0.4425230000000  0.4169840000000 1.0
C      1  0.4704050000000  0.4067620000000  0.5554550000000 1.0
C      1  0.5348220000000  0.4903010000000  0.4290200000000 1.0
C      1  0.5041830000000  0.4976330000000  0.6042130000000 1.0
C      1  0.4587160000000  0.4266280000000  0.4874360000000 1.0
C      1  0.5292870000000  0.5188360000000  0.4242390000000 1.0
C      1  0.4842310000000  0.5206880000000  0.4704040000000 1.0
C      1  0.4291020000000  0.4871620000000  0.6031100000000 1.0
C      1  0.4844010000000  0.4500750000000  0.5113420000000 1.0
C      1  0.5293260000000  0.4530140000000  0.5556120000000 1.0
C      1  0.5972200000000  0.4539620000000  0.5282900000000 1.0
C      1  0.5500120000000  0.4077650000000  0.4772230000000 1.0
C      1  0.4619210000000  0.4211030000000  0.4365180000000 1.0
C      1  0.4301440000000  0.5786690000000  0.4384650000000 1.0
C      1  0.4965470000000  0.6110090000000  0.4691520000000 1.0
C      1  0.4623730000000  0.5386900000000  0.3774290000000 1.0
C      1  0.5350500000000  0.4557990000000  0.4795330000000 1.0
C      1  0.5159490000000  0.4970080000000  0.5413360000000 1.0
C      1  0.5372040000000  0.5898050000000  0.5168120000000 1.0
C      1  0.4802990000000  0.5373640000000  0.5461760000000 1.0
C      1  0.4416280000000  0.5106940000000  0.4421040000000 1.0
C      1  0.5487280000000  0.4576290000000  0.4040350000000 1.0
C      1  0.5431500000000  0.4222730000000  0.4517690000000 1.0
C      1  0.4401510000000  0.3924980000000  0.5204640000000 1.0
C      1  0.4903350000000  0.4734700000000  0.4910170000000 1.0
C      1  0.5133690000000  0.4324650000000  0.4825960000000 1.0
C      1  0.6092440000000  0.4977760000000  0.4997260000000 1.0
C      1  0.4834960000000  0.4456530000000  0.3992640000000 1.0
C      1  0.5660190000000  0.5354260000000  0.5778170000000 1.0
C      1  0.5838640000000  0.5215600000000  0.4306720000000 1.0
C      1  0.4581370000000  0.3981820000000  0.4997600000000 1.0
C      1  0.5310320000000  0.3941080000000  0.4950350000000 1.0
C      1  0.4054810000000  0.4271210000000  0.5298400000000 1.0
C      1  0.5600280000000  0.4856140000000  0.5252160000000 1.0
C      1  0.4344450000000  0.5408450000000  0.3785100000000 1.0
C      1  0.5283020000000  0.4090980000000  0.5677530000000 1.0
C      1  0.5557990000000  0.5195290000000  0.5535680000000 1.0
C      1  0.4797290000000  0.4960700000000  0.5081940000000 1.0
C      1  0.5310680000000  0.4816200000000  0.5219410000000 1.0
C      1  0.5007380000000  0.4382570000000  0.5492930000000 1.0
C      1  0.4211090000000  0.4662360000000  0.4406100000000 1.0
C      1  0.4772020000000  0.4206520000000  0.5805180000000 1.0
C      1  0.5170790000000  0.4245150000000  0.4353940000000 1.0
C      1  0.5302260000000  0.5071290000000  0.5975370000000 1.0
C      1  0.6143140000000  0.4478870000000  0.5043340000000 1.0
C      1  0.5088800000000  0.5432100000000  0.5554750000000 1.0
C      1  0.5655550000000  0.4378990000000  0.4127830000000 1.0
C      1  0.4745740000000  0.5399920000000  0.5978050000000 1.0
C      1  0.4435780000000  0.5917870000000  0.5035250000000 1.0
C      1  0.4439860000000  0.4253900000000  0.4602930000000 1.0
C      1  0.5552860000000  0.4178930000000  0.5606050000000 1.0
C      1  0.4098780000000  0.4886620000000  0.5822690000000 1.0
C      1  0.5142260000000  0.4444610000000  0.4123630000000 1.0
C      1  0.3975230000000  0.5360400000000  0.4943670000000 1.0
C      1  0.5089290000000  0.4247800000000  0.5854440000000 1.0
END
