TITL C-950536-5891-102 2.9833821875499e-06 125000 -388.673161523563 0 0 64 (C1) n - 1
REM
REM in /home/bkarasulu/work/CARBON/AIRSS/Generating-Clusters/EDIP-Nigel-Params/with-SteepDescent/Only-C1/SD-CG/HFTN-CG
REM
REM
REM
REM
REM
REM ./C.cell (11c1c37f851c82e70ff6c80c92926a4b)
REM
REM compiler GCC version 9.2.1 20190827 (Red Hat 9.2.1-1)
REM options -cpp -mtune=generic -march=x86-64 -g -O0 -fpre-include=/usr/include/finclude/math-vector-fortran.h
REM seed 650069972 1103237406 1364194737 508767514 1141107796 -1776708384 -1535571916 -139407629 870052522 382945627 2079830995 -2133056393 -1278000700 279981055 1687116210 -1732601618 27713172 230754865 -1542322055 -2027506548 235857666 -2140635197 -196323024 454178905 109338055 1493130663 -775710081 794213261 -1340123947 830179069 -1638532039 -1836476412 -1518964933
REM
CELL 1.54180   50.00000   50.00000   50.00000   90.00000   90.00000   90.00000
LATT -1
SFAC C  
C      1  0.4865440000000  0.5198230000000  0.5719870000000 1.0
C      1  0.5067600000000  0.5056090000000  0.5251950000000 1.0
C      1  0.5826790000000  0.4790940000000  0.4804200000000 1.0
C      1  0.4372390000000  0.5233670000000  0.5155150000000 1.0
C      1  0.4566030000000  0.5327580000000  0.5349830000000 1.0
C      1  0.4675760000000  0.5087280000000  0.4734560000000 1.0
C      1  0.4361570000000  0.5428170000000  0.4916270000000 1.0
C      1  0.5264960000000  0.5099710000000  0.5485950000000 1.0
C      1  0.5467840000000  0.4451520000000  0.4976400000000 1.0
C      1  0.4701600000000  0.5679420000000  0.4787490000000 1.0
C      1  0.5302800000000  0.4586260000000  0.5195310000000 1.0
C      1  0.4975390000000  0.5565740000000  0.4417820000000 1.0
C      1  0.5553780000000  0.5225700000000  0.5306650000000 1.0
C      1  0.5270810000000  0.4841050000000  0.4378760000000 1.0
C      1  0.4654170000000  0.5129340000000  0.5552100000000 1.0
C      1  0.5334030000000  0.4373790000000  0.4508200000000 1.0
C      1  0.5043910000000  0.4402200000000  0.5203460000000 1.0
C      1  0.5386670000000  0.5413260000000  0.4854290000000 1.0
C      1  0.5856690000000  0.4978620000000  0.5006870000000 1.0
C      1  0.4581980000000  0.5713600000000  0.5044260000000 1.0
C      1  0.4797270000000  0.4465640000000  0.5354330000000 1.0
C      1  0.5433990000000  0.5250640000000  0.4632330000000 1.0
C      1  0.5008850000000  0.4371910000000  0.4901960000000 1.0
C      1  0.5472650000000  0.5001190000000  0.4518710000000 1.0
C      1  0.4322950000000  0.5337610000000  0.4625890000000 1.0
C      1  0.5204280000000  0.4846110000000  0.5075790000000 1.0
C      1  0.4972550000000  0.4866450000000  0.4436690000000 1.0
C      1  0.4955500000000  0.5600970000000  0.4680480000000 1.0
C      1  0.5530480000000  0.5452100000000  0.5112460000000 1.0
C      1  0.4614110000000  0.5191060000000  0.4459260000000 1.0
C      1  0.5346020000000  0.4577330000000  0.4333960000000 1.0
C      1  0.4452060000000  0.4894980000000  0.4817030000000 1.0
C      1  0.4725310000000  0.4448230000000  0.4515160000000 1.0
C      1  0.5121540000000  0.5288700000000  0.5662700000000 1.0
C      1  0.4804220000000  0.4645960000000  0.5581080000000 1.0
C      1  0.5456990000000  0.4651920000000  0.5453140000000 1.0
C      1  0.5280820000000  0.4343430000000  0.4778880000000 1.0
C      1  0.4771790000000  0.4876900000000  0.5208810000000 1.0
C      1  0.4742520000000  0.4336670000000  0.4768740000000 1.0
C      1  0.5110830000000  0.5532470000000  0.5535800000000 1.0
C      1  0.4532330000000  0.4464900000000  0.5219680000000 1.0
C      1  0.5448540000000  0.5702070000000  0.5224260000000 1.0
C      1  0.5721260000000  0.4887120000000  0.4566000000000 1.0
C      1  0.5189310000000  0.5741200000000  0.5110470000000 1.0
C      1  0.5749840000000  0.5015230000000  0.5260820000000 1.0
C      1  0.4991450000000  0.5308410000000  0.5112600000000 1.0
C      1  0.5001840000000  0.5562340000000  0.5270250000000 1.0
C      1  0.4697180000000  0.5596910000000  0.5286920000000 1.0
C      1  0.4779950000000  0.5027190000000  0.4280100000000 1.0
C      1  0.4916670000000  0.4929580000000  0.4716630000000 1.0
C      1  0.4110890000000  0.5155310000000  0.4590260000000 1.0
C      1  0.5293740000000  0.4829310000000  0.5620420000000 1.0
C      1  0.4535220000000  0.4382870000000  0.4949480000000 1.0
C      1  0.5049900000000  0.4715590000000  0.5690770000000 1.0
C      1  0.5699890000000  0.4780620000000  0.5401710000000 1.0
C      1  0.4952210000000  0.4754990000000  0.4949270000000 1.0
C      1  0.4804880000000  0.4647250000000  0.4341060000000 1.0
C      1  0.5711250000000  0.4553750000000  0.4888510000000 1.0
C      1  0.4455710000000  0.4945280000000  0.5106450000000 1.0
C      1  0.4734200000000  0.5324250000000  0.4939410000000 1.0
C      1  0.5205380000000  0.5641160000000  0.4829130000000 1.0
C      1  0.4572390000000  0.4833750000000  0.5544760000000 1.0
C      1  0.4386000000000  0.4717560000000  0.5309460000000 1.0
C      1  0.4205000000000  0.4920950000000  0.4688970000000 1.0
END
