TITL C-950528-5794-115 -2.9082491800312e-07 125000 -580.318603033543 0 0 95 (C1) n - 1
REM
REM in /home/bkarasulu/work/CARBON/AIRSS/Generating-Clusters/EDIP-Nigel-Params/with-SteepDescent/Only-C1/SD-CG/HFTN-CG
REM
REM
REM
REM
REM
REM ./C.cell (11c1c37f851c82e70ff6c80c92926a4b)
REM
REM compiler GCC version 9.2.1 20190827 (Red Hat 9.2.1-1)
REM options -cpp -mtune=generic -march=x86-64 -g -O0 -fpre-include=/usr/include/finclude/math-vector-fortran.h
REM seed 992429973 1332064611 -418896619 -272475327 1329203106 -986197852 1981328300 -738301828 2005943747 210096435 1069023326 2022433845 280706496 565705546 548047777 -1542908823 -1052697423 1561212559 -2102634144 -1878585708 1413224540 1930979785 1207190563 -1872423348 -1474441551 1081278927 94884955 176747536 -1914061357 -1443985828 -1551416714 1969561983 -1970886341
REM
CELL 1.54180   50.00000   50.00000   50.00000   90.00000   90.00000   90.00000
LATT -1
SFAC C  
C      1  0.4879670000000  0.4709600000000  0.5061580000000 1.0
C      1  0.4931600000000  0.4979890000000  0.5172000000000 1.0
C      1  0.4036010000000  0.4730840000000  0.5115370000000 1.0
C      1  0.4438260000000  0.4899510000000  0.5094590000000 1.0
C      1  0.4885360000000  0.5837310000000  0.4398520000000 1.0
C      1  0.4929390000000  0.5525720000000  0.5167350000000 1.0
C      1  0.4441900000000  0.5452960000000  0.4797500000000 1.0
C      1  0.5272990000000  0.4659880000000  0.4258050000000 1.0
C      1  0.4992350000000  0.4512440000000  0.5230980000000 1.0
C      1  0.4760680000000  0.5406920000000  0.5383320000000 1.0
C      1  0.4581580000000  0.5296790000000  0.4585580000000 1.0
C      1  0.4416080000000  0.5727040000000  0.5200800000000 1.0
C      1  0.4619070000000  0.4611940000000  0.5548120000000 1.0
C      1  0.5659450000000  0.5209950000000  0.4814890000000 1.0
C      1  0.4217740000000  0.5340530000000  0.4973120000000 1.0
C      1  0.5593250000000  0.4594180000000  0.5012110000000 1.0
C      1  0.4077130000000  0.4545230000000  0.4889190000000 1.0
C      1  0.5013690000000  0.4232490000000  0.5589780000000 1.0
C      1  0.4957490000000  0.5423030000000  0.5597760000000 1.0
C      1  0.4273130000000  0.4632270000000  0.4698230000000 1.0
C      1  0.5775600000000  0.5251310000000  0.5254730000000 1.0
C      1  0.5768480000000  0.4740990000000  0.5455580000000 1.0
C      1  0.4748670000000  0.5920420000000  0.4867840000000 1.0
C      1  0.5493150000000  0.4347570000000  0.4554360000000 1.0
C      1  0.4734460000000  0.4652540000000  0.4816640000000 1.0
C      1  0.5760710000000  0.4755660000000  0.4833070000000 1.0
C      1  0.5191570000000  0.4095840000000  0.5380830000000 1.0
C      1  0.5011520000000  0.5026250000000  0.4039690000000 1.0
C      1  0.5257920000000  0.5482100000000  0.5066970000000 1.0
C      1  0.5276850000000  0.5138300000000  0.5780780000000 1.0
C      1  0.5649370000000  0.4816800000000  0.4566020000000 1.0
C      1  0.5119690000000  0.4223430000000  0.4836270000000 1.0
C      1  0.5196220000000  0.4955030000000  0.5387810000000 1.0
C      1  0.4821620000000  0.4669480000000  0.5760260000000 1.0
C      1  0.4942680000000  0.5121720000000  0.4911750000000 1.0
C      1  0.4250200000000  0.5417040000000  0.5468480000000 1.0
C      1  0.5462390000000  0.4204360000000  0.5294940000000 1.0
C      1  0.5672220000000  0.4936790000000  0.5636490000000 1.0
C      1  0.5060400000000  0.4481530000000  0.4255370000000 1.0
C      1  0.4572710000000  0.4253410000000  0.5183830000000 1.0
C      1  0.5194170000000  0.4639230000000  0.5419240000000 1.0
C      1  0.5400340000000  0.4894340000000  0.5716460000000 1.0
C      1  0.5041780000000  0.5934220000000  0.5290270000000 1.0
C      1  0.4297940000000  0.4659720000000  0.5249740000000 1.0
C      1  0.5554720000000  0.4300780000000  0.5023230000000 1.0
C      1  0.4519230000000  0.5576880000000  0.5449960000000 1.0
C      1  0.5764570000000  0.5482920000000  0.4873920000000 1.0
C      1  0.4998630000000  0.5165090000000  0.5714870000000 1.0
C      1  0.4682750000000  0.4878620000000  0.4383450000000 1.0
C      1  0.4903540000000  0.5073570000000  0.4308870000000 1.0
C      1  0.5436300000000  0.5727100000000  0.5047080000000 1.0
C      1  0.5551040000000  0.5660720000000  0.4783910000000 1.0
C      1  0.5394070000000  0.5215640000000  0.4372010000000 1.0
C      1  0.4482640000000  0.4815990000000  0.4795900000000 1.0
C      1  0.5060890000000  0.5576580000000  0.4748600000000 1.0
C      1  0.4599700000000  0.4595830000000  0.4316240000000 1.0
C      1  0.5451200000000  0.5030530000000  0.5218140000000 1.0
C      1  0.4740480000000  0.4381320000000  0.4674360000000 1.0
C      1  0.5825240000000  0.5009640000000  0.4957720000000 1.0
C      1  0.4897790000000  0.4052660000000  0.4807710000000 1.0
C      1  0.5173020000000  0.5028240000000  0.4467990000000 1.0
C      1  0.4325240000000  0.4393570000000  0.5143820000000 1.0
C      1  0.5083310000000  0.4523340000000  0.5678350000000 1.0
C      1  0.4953430000000  0.5843960000000  0.4670190000000 1.0
C      1  0.4656590000000  0.4112420000000  0.4943290000000 1.0
C      1  0.4805450000000  0.5345600000000  0.4385080000000 1.0
C      1  0.5182230000000  0.5049350000000  0.4775370000000 1.0
C      1  0.4167830000000  0.5542550000000  0.5188590000000 1.0
C      1  0.5219420000000  0.5521360000000  0.5503910000000 1.0
C      1  0.5337770000000  0.5503090000000  0.4631110000000 1.0
C      1  0.5814070000000  0.5514010000000  0.5150690000000 1.0
C      1  0.5544260000000  0.4727770000000  0.5269450000000 1.0
C      1  0.5383160000000  0.5190930000000  0.4956670000000 1.0
C      1  0.5131960000000  0.4276940000000  0.5122920000000 1.0
C      1  0.4760270000000  0.4390440000000  0.5390050000000 1.0
C      1  0.5259310000000  0.4904190000000  0.4106860000000 1.0
C      1  0.5283180000000  0.5531850000000  0.4330550000000 1.0
C      1  0.4779780000000  0.4977570000000  0.5774960000000 1.0
C      1  0.4814730000000  0.4400740000000  0.4360670000000 1.0
C      1  0.5256610000000  0.5783690000000  0.5382600000000 1.0
C      1  0.5425010000000  0.5353500000000  0.5641520000000 1.0
C      1  0.4872310000000  0.6021710000000  0.5098790000000 1.0
C      1  0.4690320000000  0.5103160000000  0.5305450000000 1.0
C      1  0.4388220000000  0.4493820000000  0.4480900000000 1.0
C      1  0.5405580000000  0.4202650000000  0.4778320000000 1.0
C      1  0.5637150000000  0.5116390000000  0.4524430000000 1.0
C      1  0.4578310000000  0.5679130000000  0.4951240000000 1.0
C      1  0.4979570000000  0.5580180000000  0.4314870000000 1.0
C      1  0.4268610000000  0.5123270000000  0.5437990000000 1.0
C      1  0.4508260000000  0.5015940000000  0.4569400000000 1.0
C      1  0.4860330000000  0.5410460000000  0.4905090000000 1.0
C      1  0.4556640000000  0.4951990000000  0.5544020000000 1.0
C      1  0.4189300000000  0.5073610000000  0.5142500000000 1.0
C      1  0.5679130000000  0.5219190000000  0.5540100000000 1.0
C      1  0.5489350000000  0.4602910000000  0.4440040000000 1.0
END
