TITL C-950522-5749-90 -1.47585639213689e-06 125000 -810.744344262313 0 0 128 (C1) n - 1
REM
REM in /home/bkarasulu/work/CARBON/AIRSS/Generating-Clusters/EDIP-Nigel-Params/with-SteepDescent/Only-C1/SD-CG/HFTN-CG
REM
REM
REM
REM
REM
REM ./C.cell (11c1c37f851c82e70ff6c80c92926a4b)
REM
REM compiler GCC version 9.2.1 20190827 (Red Hat 9.2.1-1)
REM options -cpp -mtune=generic -march=x86-64 -g -O0 -fpre-include=/usr/include/finclude/math-vector-fortran.h
REM seed 2120969660 903526811 -611834255 -1806800049 12431211 1609671129 -265362731 2031089409 601189700 -2076906770 1945596129 -974178235 1295423166 1732342670 -1157092423 -530233461 -1860780257 911389289 -2009819356 -1425346430 871333791 -1779108918 -66950495 -238303995 -171293504 -1537491906 1783423119 -770501337 -1693628160 1284552205 -1519940371 -118637622 628919558
REM
CELL 1.54180   50.00000   50.00000   50.00000   90.00000   90.00000   90.00000
LATT -1
SFAC C  
C      1  0.4946100000000  0.4445440000000  0.4633440000000 1.0
C      1  0.4928290000000  0.5095400000000  0.3933190000000 1.0
C      1  0.4348650000000  0.5172460000000  0.5506600000000 1.0
C      1  0.3993720000000  0.5347800000000  0.5210460000000 1.0
C      1  0.5213320000000  0.4870350000000  0.4277560000000 1.0
C      1  0.5179090000000  0.5132260000000  0.4104910000000 1.0
C      1  0.4758900000000  0.5538740000000  0.4971150000000 1.0
C      1  0.4453460000000  0.4419270000000  0.5423490000000 1.0
C      1  0.5710660000000  0.4434810000000  0.5351580000000 1.0
C      1  0.5154720000000  0.5397130000000  0.4235880000000 1.0
C      1  0.4411110000000  0.5475650000000  0.4328070000000 1.0
C      1  0.5124620000000  0.4971230000000  0.6090920000000 1.0
C      1  0.4310600000000  0.4879340000000  0.5559990000000 1.0
C      1  0.5366220000000  0.4599560000000  0.5845140000000 1.0
C      1  0.5240150000000  0.4489890000000  0.5197970000000 1.0
C      1  0.5352010000000  0.5006040000000  0.5104180000000 1.0
C      1  0.5295310000000  0.5468820000000  0.4990690000000 1.0
C      1  0.4633800000000  0.5366930000000  0.4752940000000 1.0
C      1  0.5136240000000  0.4505790000000  0.5486890000000 1.0
C      1  0.4338790000000  0.4755490000000  0.5054900000000 1.0
C      1  0.5674110000000  0.4600580000000  0.4613480000000 1.0
C      1  0.4813640000000  0.4576200000000  0.5145530000000 1.0
C      1  0.5428980000000  0.4449880000000  0.4230130000000 1.0
C      1  0.5647690000000  0.5089860000000  0.5149260000000 1.0
C      1  0.4086560000000  0.5305830000000  0.5482100000000 1.0
C      1  0.4789160000000  0.5219440000000  0.4542650000000 1.0
C      1  0.4942160000000  0.4765690000000  0.5573970000000 1.0
C      1  0.5772420000000  0.5314770000000  0.5555990000000 1.0
C      1  0.5695260000000  0.5093050000000  0.4470940000000 1.0
C      1  0.4731620000000  0.4392770000000  0.4853660000000 1.0
C      1  0.5567190000000  0.4874960000000  0.3952410000000 1.0
C      1  0.5501900000000  0.4256210000000  0.5467000000000 1.0
C      1  0.5412520000000  0.5480550000000  0.4337260000000 1.0
C      1  0.5444060000000  0.5633960000000  0.5510390000000 1.0
C      1  0.5275610000000  0.5704580000000  0.4798450000000 1.0
C      1  0.5608530000000  0.5277150000000  0.4244280000000 1.0
C      1  0.5143060000000  0.5127180000000  0.5835240000000 1.0
C      1  0.5006140000000  0.5069830000000  0.4725280000000 1.0
C      1  0.5557560000000  0.5284180000000  0.5758810000000 1.0
C      1  0.4381150000000  0.5770590000000  0.4835820000000 1.0
C      1  0.5762230000000  0.4811920000000  0.5578750000000 1.0
C      1  0.4135230000000  0.4885920000000  0.4650170000000 1.0
C      1  0.5369790000000  0.5073140000000  0.5651910000000 1.0
C      1  0.4992020000000  0.5986090000000  0.5145110000000 1.0
C      1  0.5233060000000  0.5192540000000  0.4891060000000 1.0
C      1  0.4351830000000  0.5697360000000  0.5158020000000 1.0
C      1  0.4433990000000  0.4756090000000  0.5794780000000 1.0
C      1  0.4504760000000  0.5284920000000  0.5735870000000 1.0
C      1  0.4804980000000  0.4146550000000  0.5044790000000 1.0
C      1  0.5041060000000  0.5511680000000  0.5169590000000 1.0
C      1  0.5213260000000  0.4605750000000  0.4697890000000 1.0
C      1  0.5796910000000  0.4944730000000  0.4940730000000 1.0
C      1  0.5616490000000  0.5394560000000  0.5100340000000 1.0
C      1  0.4138230000000  0.5352720000000  0.4733940000000 1.0
C      1  0.4385850000000  0.5512420000000  0.4658410000000 1.0
C      1  0.4625350000000  0.5752940000000  0.5579840000000 1.0
C      1  0.4547330000000  0.5001660000000  0.4379850000000 1.0
C      1  0.5815970000000  0.5158010000000  0.4733970000000 1.0
C      1  0.4511640000000  0.5885490000000  0.5348650000000 1.0
C      1  0.5662330000000  0.4668040000000  0.4900480000000 1.0
C      1  0.4081820000000  0.5620200000000  0.5258670000000 1.0
C      1  0.5687310000000  0.4811740000000  0.4409830000000 1.0
C      1  0.4907130000000  0.5058430000000  0.5664250000000 1.0
C      1  0.5312960000000  0.5860640000000  0.5429130000000 1.0
C      1  0.5513950000000  0.5782450000000  0.4643590000000 1.0
C      1  0.4652770000000  0.5056290000000  0.5851070000000 1.0
C      1  0.4592660000000  0.4544380000000  0.4267870000000 1.0
C      1  0.4728300000000  0.4324080000000  0.5303750000000 1.0
C      1  0.5170270000000  0.4043920000000  0.4717920000000 1.0
C      1  0.4571230000000  0.4810060000000  0.4121900000000 1.0
C      1  0.5811000000000  0.5055650000000  0.5411570000000 1.0
C      1  0.5378450000000  0.4330590000000  0.5725560000000 1.0
C      1  0.5801490000000  0.5424580000000  0.4869620000000 1.0
C      1  0.4682850000000  0.4072440000000  0.4528160000000 1.0
C      1  0.4769990000000  0.4383790000000  0.5785090000000 1.0
C      1  0.5478890000000  0.5755600000000  0.4365690000000 1.0
C      1  0.4318350000000  0.5192430000000  0.4315830000000 1.0
C      1  0.4859410000000  0.4659960000000  0.5849170000000 1.0
C      1  0.5470250000000  0.5139840000000  0.4001410000000 1.0
C      1  0.4882470000000  0.5463640000000  0.5947600000000 1.0
C      1  0.5161040000000  0.4866790000000  0.4569120000000 1.0
C      1  0.4800170000000  0.4959850000000  0.4925840000000 1.0
C      1  0.5895460000000  0.4574000000000  0.5508870000000 1.0
C      1  0.4966920000000  0.4162730000000  0.4521660000000 1.0
C      1  0.4679460000000  0.5484280000000  0.4183620000000 1.0
C      1  0.5327740000000  0.4201310000000  0.5172310000000 1.0
C      1  0.4733120000000  0.4788420000000  0.5336730000000 1.0
C      1  0.4484750000000  0.4461870000000  0.5721380000000 1.0
C      1  0.4419610000000  0.4795200000000  0.4592570000000 1.0
C      1  0.5062190000000  0.4177930000000  0.4250420000000 1.0
C      1  0.5154010000000  0.5541630000000  0.5911900000000 1.0
C      1  0.5110430000000  0.5909800000000  0.4898130000000 1.0
C      1  0.5090120000000  0.4054350000000  0.5008560000000 1.0
C      1  0.4835530000000  0.4818100000000  0.3977380000000 1.0
C      1  0.4432080000000  0.4713890000000  0.5345870000000 1.0
C      1  0.5555600000000  0.4194870000000  0.4974500000000 1.0
C      1  0.5165290000000  0.4402260000000  0.4119210000000 1.0
C      1  0.4520870000000  0.4273370000000  0.4661280000000 1.0
C      1  0.5488550000000  0.4745960000000  0.4203920000000 1.0
C      1  0.4554070000000  0.5479700000000  0.5176030000000 1.0
C      1  0.5238470000000  0.5085680000000  0.5368390000000 1.0
C      1  0.5443300000000  0.4170890000000  0.4694180000000 1.0
C      1  0.4673710000000  0.5828460000000  0.4879320000000 1.0
C      1  0.4143310000000  0.5213610000000  0.4995280000000 1.0
C      1  0.4762560000000  0.5059830000000  0.5207230000000 1.0
C      1  0.4695370000000  0.6004470000000  0.5121030000000 1.0
C      1  0.5065330000000  0.5776130000000  0.5330950000000 1.0
C      1  0.5348600000000  0.4693550000000  0.4990740000000 1.0
C      1  0.5437590000000  0.4438120000000  0.4546990000000 1.0
C      1  0.4988570000000  0.5240860000000  0.5334490000000 1.0
C      1  0.4685970000000  0.5514560000000  0.5727130000000 1.0
C      1  0.4840580000000  0.4605560000000  0.4406350000000 1.0
C      1  0.4828740000000  0.5184450000000  0.6082050000000 1.0
C      1  0.5114550000000  0.4682750000000  0.6012950000000 1.0
C      1  0.4406920000000  0.4498240000000  0.4486720000000 1.0
C      1  0.4104260000000  0.5150960000000  0.4520370000000 1.0
C      1  0.4916950000000  0.4300970000000  0.5532580000000 1.0
C      1  0.5409040000000  0.5539590000000  0.5781970000000 1.0
C      1  0.5744120000000  0.4417870000000  0.5056880000000 1.0
C      1  0.4726120000000  0.5289030000000  0.3980870000000 1.0
C      1  0.5743980000000  0.5646180000000  0.4718410000000 1.0
C      1  0.5674610000000  0.5525280000000  0.5367830000000 1.0
C      1  0.4901390000000  0.5450680000000  0.4376620000000 1.0
C      1  0.4560010000000  0.4797360000000  0.4856330000000 1.0
C      1  0.4105180000000  0.4919680000000  0.4949880000000 1.0
C      1  0.5491280000000  0.4810370000000  0.5683910000000 1.0
C      1  0.4505700000000  0.5208760000000  0.5249500000000 1.0
C      1  0.5017870000000  0.4666840000000  0.4177270000000 1.0
END
