TITL C-951335-1172-605 -4.10124694206521e-06 125000 -1216.0208476566 0 0 195 (C1) n - 1
REM
REM in /home/bkarasulu/work/CARBON/AIRSS/Generating-Clusters/EDIP-Nigel-Params/with-SteepDescent/Only-C1/SD-CG/HFTN-CG
REM
REM
REM
REM
REM
REM ./C.cell (11c1c37f851c82e70ff6c80c92926a4b)
REM
REM compiler GCC version 9.2.1 20190827 (Red Hat 9.2.1-1)
REM options -cpp -mtune=generic -march=x86-64 -g -O0 -fpre-include=/usr/include/finclude/math-vector-fortran.h
REM seed -9199451 -1916699783 -551011712 -565641826 -480824951 810513843 -77245222 1199140657 798869794 -2029882426 -1997153672 -999014756 82190883 1782679290 -2078775312 172929378 1518874832 -1928267767 -1594459138 1851713365 -2141894419 1902686785 -1909916737 974572451 1487557156 -1042638662 1408933651 1211654774 -1873972877 1157660723 1702018557 -1947954527 -635920301
REM
CELL 1.54180   50.00000   50.00000   50.00000   90.00000   90.00000   90.00000
LATT -1
SFAC C  
C      1  0.4148810000000  0.5748540000000  0.5027780000000 1.0
C      1  0.5414100000000  0.4787860000000  0.5219250000000 1.0
C      1  0.4811320000000  0.4404000000000  0.5724500000000 1.0
C      1  0.4984460000000  0.5185800000000  0.4751960000000 1.0
C      1  0.4912570000000  0.5443020000000  0.5302160000000 1.0
C      1  0.5684520000000  0.4896270000000  0.4067660000000 1.0
C      1  0.4600310000000  0.5898150000000  0.4491610000000 1.0
C      1  0.4137400000000  0.5131000000000  0.5697570000000 1.0
C      1  0.4622440000000  0.5635910000000  0.4345520000000 1.0
C      1  0.4201140000000  0.4901450000000  0.4593860000000 1.0
C      1  0.4340800000000  0.5908430000000  0.4621430000000 1.0
C      1  0.3939150000000  0.4422170000000  0.5075890000000 1.0
C      1  0.4645110000000  0.4168860000000  0.5583290000000 1.0
C      1  0.5217450000000  0.3898630000000  0.5210130000000 1.0
C      1  0.4962510000000  0.4721840000000  0.4591450000000 1.0
C      1  0.4273720000000  0.5686340000000  0.5530820000000 1.0
C      1  0.4755000000000  0.4272940000000  0.4817660000000 1.0
C      1  0.5048910000000  0.5469000000000  0.4807980000000 1.0
C      1  0.5085020000000  0.5838030000000  0.4323120000000 1.0
C      1  0.6144900000000  0.5072160000000  0.4918030000000 1.0
C      1  0.4325680000000  0.5561200000000  0.5795730000000 1.0
C      1  0.4670970000000  0.5629640000000  0.5281120000000 1.0
C      1  0.6134500000000  0.5140080000000  0.5202220000000 1.0
C      1  0.4456860000000  0.4759370000000  0.4014320000000 1.0
C      1  0.5195720000000  0.4531330000000  0.4620700000000 1.0
C      1  0.5023230000000  0.3842080000000  0.4890890000000 1.0
C      1  0.4565450000000  0.5136450000000  0.5371190000000 1.0
C      1  0.4138530000000  0.4337860000000  0.4618860000000 1.0
C      1  0.4811320000000  0.4762840000000  0.4331330000000 1.0
C      1  0.5200610000000  0.6121700000000  0.5169400000000 1.0
C      1  0.6056170000000  0.4999300000000  0.4380790000000 1.0
C      1  0.5540860000000  0.5994850000000  0.4328770000000 1.0
C      1  0.5083980000000  0.5718590000000  0.5971050000000 1.0
C      1  0.5586440000000  0.5196060000000  0.4373010000000 1.0
C      1  0.5796250000000  0.4239730000000  0.5278170000000 1.0
C      1  0.4918800000000  0.6135440000000  0.5167620000000 1.0
C      1  0.5701980000000  0.4883590000000  0.4787140000000 1.0
C      1  0.5014970000000  0.4493050000000  0.6042410000000 1.0
C      1  0.5869720000000  0.5814910000000  0.5345760000000 1.0
C      1  0.5313410000000  0.3979430000000  0.4457550000000 1.0
C      1  0.4914950000000  0.4770970000000  0.5050280000000 1.0
C      1  0.4758170000000  0.3961420000000  0.4895240000000 1.0
C      1  0.5499640000000  0.5503340000000  0.4407170000000 1.0
C      1  0.4362930000000  0.5020290000000  0.4136650000000 1.0
C      1  0.4591520000000  0.4339040000000  0.4193250000000 1.0
C      1  0.5086420000000  0.5957310000000  0.4603160000000 1.0
C      1  0.5862000000000  0.4525860000000  0.5262730000000 1.0
C      1  0.4410360000000  0.5194840000000  0.5834840000000 1.0
C      1  0.5583910000000  0.4439860000000  0.4941220000000 1.0
C      1  0.4626330000000  0.3920530000000  0.5153930000000 1.0
C      1  0.4638510000000  0.5155430000000  0.5642460000000 1.0
C      1  0.4936480000000  0.5207930000000  0.4453860000000 1.0
C      1  0.5367540000000  0.5784320000000  0.4239640000000 1.0
C      1  0.5456010000000  0.4160560000000  0.5690570000000 1.0
C      1  0.4543140000000  0.6083350000000  0.5454410000000 1.0
C      1  0.5956200000000  0.4831170000000  0.4142470000000 1.0
C      1  0.5346200000000  0.5813730000000  0.4717180000000 1.0
C      1  0.4770330000000  0.5199960000000  0.4025050000000 1.0
C      1  0.5618120000000  0.4140760000000  0.5464510000000 1.0
C      1  0.4302390000000  0.4874600000000  0.5132690000000 1.0
C      1  0.4515060000000  0.4384540000000  0.5012850000000 1.0
C      1  0.4361650000000  0.4671530000000  0.4927480000000 1.0
C      1  0.4598600000000  0.4165980000000  0.4428610000000 1.0
C      1  0.3972020000000  0.4778570000000  0.4744310000000 1.0
C      1  0.4890310000000  0.4963880000000  0.3859720000000 1.0
C      1  0.4805920000000  0.5790570000000  0.5849520000000 1.0
C      1  0.5132560000000  0.5546820000000  0.5085300000000 1.0
C      1  0.5169200000000  0.4174900000000  0.5615540000000 1.0
C      1  0.4471020000000  0.5451000000000  0.5162570000000 1.0
C      1  0.5202750000000  0.4824900000000  0.5003870000000 1.0
C      1  0.5229490000000  0.5287460000000  0.4128510000000 1.0
C      1  0.5259910000000  0.5049260000000  0.4803620000000 1.0
C      1  0.4804950000000  0.5169190000000  0.5201440000000 1.0
C      1  0.5423680000000  0.4469620000000  0.5254240000000 1.0
C      1  0.5300280000000  0.4554610000000  0.5923650000000 1.0
C      1  0.4595210000000  0.5587170000000  0.5910810000000 1.0
C      1  0.4855820000000  0.4952790000000  0.5716360000000 1.0
C      1  0.5287770000000  0.5220260000000  0.5237880000000 1.0
C      1  0.6008160000000  0.4798380000000  0.4813820000000 1.0
C      1  0.4714870000000  0.5063490000000  0.4308680000000 1.0
C      1  0.4015090000000  0.5233970000000  0.4373580000000 1.0
C      1  0.5359500000000  0.5166660000000  0.3902910000000 1.0
C      1  0.4979030000000  0.5418700000000  0.4067110000000 1.0
C      1  0.4921310000000  0.5572340000000  0.4324870000000 1.0
C      1  0.4161680000000  0.5218670000000  0.4646200000000 1.0
C      1  0.5822510000000  0.5483690000000  0.4791270000000 1.0
C      1  0.4832770000000  0.4988300000000  0.6027710000000 1.0
C      1  0.4896690000000  0.5274220000000  0.6095240000000 1.0
C      1  0.5347560000000  0.4943530000000  0.5502160000000 1.0
C      1  0.4191710000000  0.5654170000000  0.4552760000000 1.0
C      1  0.5483370000000  0.4481910000000  0.4197420000000 1.0
C      1  0.6198040000000  0.5414700000000  0.5256470000000 1.0
C      1  0.5433950000000  0.5964980000000  0.5169890000000 1.0
C      1  0.5744010000000  0.5372790000000  0.5309970000000 1.0
C      1  0.4544810000000  0.5795590000000  0.5493570000000 1.0
C      1  0.4549640000000  0.4847800000000  0.4766690000000 1.0
C      1  0.5679640000000  0.4898440000000  0.5102270000000 1.0
C      1  0.4214050000000  0.4443640000000  0.5513230000000 1.0
C      1  0.4951470000000  0.5930460000000  0.5610690000000 1.0
C      1  0.4204540000000  0.5546770000000  0.5255560000000 1.0
C      1  0.4484190000000  0.4849230000000  0.5359870000000 1.0
C      1  0.4572550000000  0.5418500000000  0.4854270000000 1.0
C      1  0.5067520000000  0.3844130000000  0.4600870000000 1.0
C      1  0.5577790000000  0.5069330000000  0.5666990000000 1.0
C      1  0.4075600000000  0.4856100000000  0.5649210000000 1.0
C      1  0.4370080000000  0.5926270000000  0.4914920000000 1.0
C      1  0.4715030000000  0.6052770000000  0.4957580000000 1.0
C      1  0.4748630000000  0.4706680000000  0.5300350000000 1.0
C      1  0.4536600000000  0.5638920000000  0.4071270000000 1.0
C      1  0.3981440000000  0.4488220000000  0.4803180000000 1.0
C      1  0.4376890000000  0.4211900000000  0.5465720000000 1.0
C      1  0.5224550000000  0.5889150000000  0.5746580000000 1.0
C      1  0.4456300000000  0.4698130000000  0.5896370000000 1.0
C      1  0.5117000000000  0.5416950000000  0.5942050000000 1.0
C      1  0.4281170000000  0.5279980000000  0.4022390000000 1.0
C      1  0.6062750000000  0.5316600000000  0.4770620000000 1.0
C      1  0.5527710000000  0.4397140000000  0.5844440000000 1.0
C      1  0.5071790000000  0.3928840000000  0.5461230000000 1.0
C      1  0.4023390000000  0.4990810000000  0.5193190000000 1.0
C      1  0.4877200000000  0.4051830000000  0.4455430000000 1.0
C      1  0.5164590000000  0.5083240000000  0.4326630000000 1.0
C      1  0.5853180000000  0.5081630000000  0.5284880000000 1.0
C      1  0.5016810000000  0.4790550000000  0.6164870000000 1.0
C      1  0.3957570000000  0.5308950000000  0.5574630000000 1.0
C      1  0.4544670000000  0.4614840000000  0.4263030000000 1.0
C      1  0.5632190000000  0.5160720000000  0.3993850000000 1.0
C      1  0.3913220000000  0.4797850000000  0.5406760000000 1.0
C      1  0.4346170000000  0.4149440000000  0.4603450000000 1.0
C      1  0.4014160000000  0.5608480000000  0.4804670000000 1.0
C      1  0.5090270000000  0.5070860000000  0.5603590000000 1.0
C      1  0.5610010000000  0.5897230000000  0.4587220000000 1.0
C      1  0.4388670000000  0.4104350000000  0.5100010000000 1.0
C      1  0.5476660000000  0.4705630000000  0.4008210000000 1.0
C      1  0.5491010000000  0.4129210000000  0.4640650000000 1.0
C      1  0.5119260000000  0.4151560000000  0.4289250000000 1.0
C      1  0.4022710000000  0.5293840000000  0.5301000000000 1.0
C      1  0.4899930000000  0.4667830000000  0.5558110000000 1.0
C      1  0.5613160000000  0.5471510000000  0.5018030000000 1.0
C      1  0.5837640000000  0.4952010000000  0.5554670000000 1.0
C      1  0.5795750000000  0.4103830000000  0.5013750000000 1.0
C      1  0.4405440000000  0.5415930000000  0.4591500000000 1.0
C      1  0.4705070000000  0.4728270000000  0.3841890000000 1.0
C      1  0.5760170000000  0.4521640000000  0.5752610000000 1.0
C      1  0.5386000000000  0.5321690000000  0.6050970000000 1.0
C      1  0.5076840000000  0.4319850000000  0.4862800000000 1.0
C      1  0.5324750000000  0.5420880000000  0.5459460000000 1.0
C      1  0.4719430000000  0.5141350000000  0.4903790000000 1.0
C      1  0.5395870000000  0.5716660000000  0.5012670000000 1.0
C      1  0.5745900000000  0.5632560000000  0.4546380000000 1.0
C      1  0.5264200000000  0.5550920000000  0.4604610000000 1.0
C      1  0.5522930000000  0.4018450000000  0.4904910000000 1.0
C      1  0.5969180000000  0.5550900000000  0.5349990000000 1.0
C      1  0.4676990000000  0.4445220000000  0.5241120000000 1.0
C      1  0.4533900000000  0.5385270000000  0.3943900000000 1.0
C      1  0.5020140000000  0.4636230000000  0.4140310000000 1.0
C      1  0.5207670000000  0.4439730000000  0.4309790000000 1.0
C      1  0.5583490000000  0.5372030000000  0.5576440000000 1.0
C      1  0.4663490000000  0.5424700000000  0.6126780000000 1.0
C      1  0.5138470000000  0.4400480000000  0.5409330000000 1.0
C      1  0.3974420000000  0.4508040000000  0.5345400000000 1.0
C      1  0.5859360000000  0.4661180000000  0.5531480000000 1.0
C      1  0.5083930000000  0.5360930000000  0.5622680000000 1.0
C      1  0.5978680000000  0.4573590000000  0.4305930000000 1.0
C      1  0.5923340000000  0.4291320000000  0.4815860000000 1.0
C      1  0.4921790000000  0.4288170000000  0.5219800000000 1.0
C      1  0.3865360000000  0.4969350000000  0.4942500000000 1.0
C      1  0.3976480000000  0.5318480000000  0.4861090000000 1.0
C      1  0.5672870000000  0.5667560000000  0.5801680000000 1.0
C      1  0.4319590000000  0.3997620000000  0.4838070000000 1.0
C      1  0.5207790000000  0.4885480000000  0.3937820000000 1.0
C      1  0.4787400000000  0.4666870000000  0.4805760000000 1.0
C      1  0.5715120000000  0.4475080000000  0.4382710000000 1.0
C      1  0.5303260000000  0.4142740000000  0.5061830000000 1.0
C      1  0.5489030000000  0.4641690000000  0.4723440000000 1.0
C      1  0.4519110000000  0.4959600000000  0.6022180000000 1.0
C      1  0.4800280000000  0.5608400000000  0.4796560000000 1.0
C      1  0.5471940000000  0.5054690000000  0.5961730000000 1.0
C      1  0.5993320000000  0.4547210000000  0.4984990000000 1.0
C      1  0.4835790000000  0.4481160000000  0.3959670000000 1.0
C      1  0.5376590000000  0.5013860000000  0.4514640000000 1.0
C      1  0.6131580000000  0.4743910000000  0.4537640000000 1.0
C      1  0.4322950000000  0.4703230000000  0.5618190000000 1.0
C      1  0.4127290000000  0.4952850000000  0.4295270000000 1.0
C      1  0.4142530000000  0.5448420000000  0.4226630000000 1.0
C      1  0.5825130000000  0.5117060000000  0.4549210000000 1.0
C      1  0.5427340000000  0.5237560000000  0.4978200000000 1.0
C      1  0.5739900000000  0.4259030000000  0.4568390000000 1.0
C      1  0.5588040000000  0.5500500000000  0.5997810000000 1.0
C      1  0.5612630000000  0.5926060000000  0.5402890000000 1.0
C      1  0.5482260000000  0.5797600000000  0.5632010000000 1.0
C      1  0.4821830000000  0.6134020000000  0.5442240000000 1.0
C      1  0.4644630000000  0.4489330000000  0.5952680000000 1.0
C      1  0.5313420000000  0.4816880000000  0.6062200000000 1.0
C      1  0.4807410000000  0.4038850000000  0.5363860000000 1.0
C      1  0.4804960000000  0.5894430000000  0.4714530000000 1.0
END
