TITL C-950521-2237-195 -3.15196511644698e-06 125000 -737.698656240459 0 0 118 (C1) n - 1
REM
REM in /home/bkarasulu/work/CARBON/AIRSS/Generating-Clusters/EDIP-Nigel-Params/with-SteepDescent/Only-C1/SD-CG/HFTN-CG
REM
REM
REM
REM
REM
REM ./C.cell (11c1c37f851c82e70ff6c80c92926a4b)
REM
REM compiler GCC version 9.2.1 20190827 (Red Hat 9.2.1-1)
REM options -cpp -mtune=generic -march=x86-64 -g -O0 -fpre-include=/usr/include/finclude/math-vector-fortran.h
REM seed -2102474403 -1478630805 435283276 354727829 811185071 -1581779326 378654277 -1473184563 2046301466 -6522671 -881973470 441999491 136982870 -1496034989 -923532151 -1234704943 -1264560748 -2143055300 1928991116 1760388085 288193314 -1102392017 81968025 -1453804007 1234045039 1050247578 -1579861098 1820078928 1142296098 60113536 1165972355 -546193880 -1012314884
REM
CELL 1.54180   50.00000   50.00000   50.00000   90.00000   90.00000   90.00000
LATT -1
SFAC C  
C      1  0.4534730000000  0.4464460000000  0.4863540000000 1.0
C      1  0.5128040000000  0.5734430000000  0.5189820000000 1.0
C      1  0.5658410000000  0.4981230000000  0.4462320000000 1.0
C      1  0.5426870000000  0.4247760000000  0.5300830000000 1.0
C      1  0.4662910000000  0.5205740000000  0.4158070000000 1.0
C      1  0.5431740000000  0.4866190000000  0.5211100000000 1.0
C      1  0.4453640000000  0.5552080000000  0.5477830000000 1.0
C      1  0.5163560000000  0.5175160000000  0.4119350000000 1.0
C      1  0.5528240000000  0.4742750000000  0.5732730000000 1.0
C      1  0.5395150000000  0.5756150000000  0.5314240000000 1.0
C      1  0.5095530000000  0.4559650000000  0.4608160000000 1.0
C      1  0.4717530000000  0.5106860000000  0.5369990000000 1.0
C      1  0.4663930000000  0.4985290000000  0.3991080000000 1.0
C      1  0.4871780000000  0.4413880000000  0.4880190000000 1.0
C      1  0.5118340000000  0.5868420000000  0.4923290000000 1.0
C      1  0.4941200000000  0.5474890000000  0.5807030000000 1.0
C      1  0.5366410000000  0.5681730000000  0.5602380000000 1.0
C      1  0.4253000000000  0.5295250000000  0.5006360000000 1.0
C      1  0.4440730000000  0.4768130000000  0.4888150000000 1.0
C      1  0.4146360000000  0.4835030000000  0.4892790000000 1.0
C      1  0.4597660000000  0.4126880000000  0.4548320000000 1.0
C      1  0.4413860000000  0.4779270000000  0.5555800000000 1.0
C      1  0.4419020000000  0.5280750000000  0.4315640000000 1.0
C      1  0.4458520000000  0.4253080000000  0.5069410000000 1.0
C      1  0.4538740000000  0.5188300000000  0.5834530000000 1.0
C      1  0.4700770000000  0.4963390000000  0.5924800000000 1.0
C      1  0.4551280000000  0.5243720000000  0.4975280000000 1.0
C      1  0.4891260000000  0.4928740000000  0.4937730000000 1.0
C      1  0.4247380000000  0.5601510000000  0.4994120000000 1.0
C      1  0.5490660000000  0.4817280000000  0.4270070000000 1.0
C      1  0.5097300000000  0.5231170000000  0.5856410000000 1.0
C      1  0.5498180000000  0.5410570000000  0.5635240000000 1.0
C      1  0.5386100000000  0.5235410000000  0.5854770000000 1.0
C      1  0.4740720000000  0.5492600000000  0.5369370000000 1.0
C      1  0.5035020000000  0.5159230000000  0.4543880000000 1.0
C      1  0.5229920000000  0.5082280000000  0.5298230000000 1.0
C      1  0.5273320000000  0.4230550000000  0.4845610000000 1.0
C      1  0.4967990000000  0.4967770000000  0.5790290000000 1.0
C      1  0.4338670000000  0.5735780000000  0.5251850000000 1.0
C      1  0.5890100000000  0.4602260000000  0.5433990000000 1.0
C      1  0.4981550000000  0.4658860000000  0.5053300000000 1.0
C      1  0.4469880000000  0.4603120000000  0.4421680000000 1.0
C      1  0.5517490000000  0.4534080000000  0.4367850000000 1.0
C      1  0.4961690000000  0.4953390000000  0.5469690000000 1.0
C      1  0.5647180000000  0.5268970000000  0.4533270000000 1.0
C      1  0.5216910000000  0.4889550000000  0.4171040000000 1.0
C      1  0.4454980000000  0.5545490000000  0.4426420000000 1.0
C      1  0.4633600000000  0.4978740000000  0.5083600000000 1.0
C      1  0.4867500000000  0.4193860000000  0.4496550000000 1.0
C      1  0.5329230000000  0.5711420000000  0.4794480000000 1.0
C      1  0.5678230000000  0.5266560000000  0.5168260000000 1.0
C      1  0.5256370000000  0.4392330000000  0.4379580000000 1.0
C      1  0.4505780000000  0.4854370000000  0.4600010000000 1.0
C      1  0.5034320000000  0.5632160000000  0.4421460000000 1.0
C      1  0.4766970000000  0.4169530000000  0.5372580000000 1.0
C      1  0.4870720000000  0.5930620000000  0.4813880000000 1.0
C      1  0.4010150000000  0.4771020000000  0.5130240000000 1.0
C      1  0.4581370000000  0.4626810000000  0.5351140000000 1.0
C      1  0.4604310000000  0.5922280000000  0.4894590000000 1.0
C      1  0.4845860000000  0.4317300000000  0.4230810000000 1.0
C      1  0.4447110000000  0.4363870000000  0.4599950000000 1.0
C      1  0.5055910000000  0.4685620000000  0.5844790000000 1.0
C      1  0.5118950000000  0.5143750000000  0.4998930000000 1.0
C      1  0.5580150000000  0.4579680000000  0.4656990000000 1.0
C      1  0.5824170000000  0.4921490000000  0.4910630000000 1.0
C      1  0.4731630000000  0.4593610000000  0.4276440000000 1.0
C      1  0.5310570000000  0.5650070000000  0.4508150000000 1.0
C      1  0.5066140000000  0.5702050000000  0.5666230000000 1.0
C      1  0.4810280000000  0.4538410000000  0.5823960000000 1.0
C      1  0.4150580000000  0.5189950000000  0.5269250000000 1.0
C      1  0.5918170000000  0.5120970000000  0.5296720000000 1.0
C      1  0.4579580000000  0.4709410000000  0.5827750000000 1.0
C      1  0.5554220000000  0.5698770000000  0.4982260000000 1.0
C      1  0.5004910000000  0.4348900000000  0.5375390000000 1.0
C      1  0.5280380000000  0.4670290000000  0.5040710000000 1.0
C      1  0.5143320000000  0.4122740000000  0.4601120000000 1.0
C      1  0.5802220000000  0.5389410000000  0.4728380000000 1.0
C      1  0.4923350000000  0.4735650000000  0.4462870000000 1.0
C      1  0.4287590000000  0.5299580000000  0.5487730000000 1.0
C      1  0.5799620000000  0.4792260000000  0.4652580000000 1.0
C      1  0.4621550000000  0.5461330000000  0.4661600000000 1.0
C      1  0.4768020000000  0.4145140000000  0.5061440000000 1.0
C      1  0.5200810000000  0.4168330000000  0.5122190000000 1.0
C      1  0.5877920000000  0.4480770000000  0.5185730000000 1.0
C      1  0.4137740000000  0.5119350000000  0.4775770000000 1.0
C      1  0.4936130000000  0.5445370000000  0.4642130000000 1.0
C      1  0.5686270000000  0.4803140000000  0.5493850000000 1.0
C      1  0.4747130000000  0.5440900000000  0.5084130000000 1.0
C      1  0.5499180000000  0.4978300000000  0.5878260000000 1.0
C      1  0.4507050000000  0.4339760000000  0.5354530000000 1.0
C      1  0.5983640000000  0.4851720000000  0.5154350000000 1.0
C      1  0.5263630000000  0.4347050000000  0.5551620000000 1.0
C      1  0.4762030000000  0.4726620000000  0.4003380000000 1.0
C      1  0.4928070000000  0.5330890000000  0.4213510000000 1.0
C      1  0.4142690000000  0.4905600000000  0.5330460000000 1.0
C      1  0.5279790000000  0.4611610000000  0.5676140000000 1.0
C      1  0.5110410000000  0.4402280000000  0.4113950000000 1.0
C      1  0.5840390000000  0.5045730000000  0.5554380000000 1.0
C      1  0.4886720000000  0.4649680000000  0.5346100000000 1.0
C      1  0.5485820000000  0.5448420000000  0.4377590000000 1.0
C      1  0.5313350000000  0.5058500000000  0.4728250000000 1.0
C      1  0.4543680000000  0.5939710000000  0.5183730000000 1.0
C      1  0.4428900000000  0.5712050000000  0.4774430000000 1.0
C      1  0.4749100000000  0.5982600000000  0.5374360000000 1.0
C      1  0.5070640000000  0.4686620000000  0.4003850000000 1.0
C      1  0.5554030000000  0.4332610000000  0.4837420000000 1.0
C      1  0.5615430000000  0.4392190000000  0.5117430000000 1.0
C      1  0.5750840000000  0.5488680000000  0.4982200000000 1.0
C      1  0.5387660000000  0.5332970000000  0.4146580000000 1.0
C      1  0.5433780000000  0.5318570000000  0.5353340000000 1.0
C      1  0.4819810000000  0.4947280000000  0.4627560000000 1.0
C      1  0.5569030000000  0.5041400000000  0.4992650000000 1.0
C      1  0.4480740000000  0.5085670000000  0.5558000000000 1.0
C      1  0.4914130000000  0.5746440000000  0.5405560000000 1.0
C      1  0.5018420000000  0.5440930000000  0.4956220000000 1.0
C      1  0.5320710000000  0.4726610000000  0.4749640000000 1.0
C      1  0.4325970000000  0.5085510000000  0.4535460000000 1.0
C      1  0.4651240000000  0.5457120000000  0.5796380000000 1.0
END
