TITL C-951334-9093-598 2.58265899336684e-06 125000 -440.664385760326 0 0 72 (C1) n - 1
REM
REM in /home/bkarasulu/work/CARBON/AIRSS/Generating-Clusters/EDIP-Nigel-Params/with-SteepDescent/Only-C1/SD-CG/HFTN-CG
REM
REM
REM
REM
REM
REM ./C.cell (11c1c37f851c82e70ff6c80c92926a4b)
REM
REM compiler GCC version 9.2.1 20190827 (Red Hat 9.2.1-1)
REM options -cpp -mtune=generic -march=x86-64 -g -O0 -fpre-include=/usr/include/finclude/math-vector-fortran.h
REM seed -1700894769 -413900179 593938658 531422018 -1622239379 -677572216 -942472816 986458340 -615524783 -478581138 234871233 -431829847 530330549 -1746579067 -787400888 695641489 1778624161 -328120842 108298293 -647896545 -648212425 -15538193 -529505239 -1886445628 -78197726 -331280986 -418997939 664100039 87470860 -662251034 109334097 1666044995 1101509999
REM
CELL 1.54180   50.00000   50.00000   50.00000   90.00000   90.00000   90.00000
LATT -1
SFAC C  
C      1  0.4761690000000  0.4394430000000  0.4496050000000 1.0
C      1  0.5156180000000  0.5128720000000  0.5116960000000 1.0
C      1  0.5434860000000  0.4388370000000  0.4881130000000 1.0
C      1  0.4953100000000  0.5015000000000  0.5299270000000 1.0
C      1  0.5376720000000  0.5169090000000  0.5751400000000 1.0
C      1  0.5007390000000  0.5341490000000  0.4709890000000 1.0
C      1  0.4561940000000  0.5282310000000  0.4494140000000 1.0
C      1  0.5585750000000  0.4947360000000  0.5359610000000 1.0
C      1  0.5643360000000  0.5243450000000  0.4492670000000 1.0
C      1  0.5247130000000  0.4881400000000  0.4965340000000 1.0
C      1  0.4949130000000  0.5458440000000  0.4273000000000 1.0
C      1  0.5409830000000  0.5633240000000  0.5055760000000 1.0
C      1  0.5101400000000  0.4741020000000  0.5426120000000 1.0
C      1  0.5162960000000  0.5340750000000  0.5720080000000 1.0
C      1  0.4524230000000  0.4732200000000  0.4652910000000 1.0
C      1  0.4375090000000  0.4834190000000  0.5206780000000 1.0
C      1  0.4656990000000  0.4573830000000  0.5482950000000 1.0
C      1  0.5296590000000  0.5672180000000  0.4569550000000 1.0
C      1  0.5389940000000  0.5165760000000  0.4392150000000 1.0
C      1  0.4743320000000  0.4909790000000  0.5102950000000 1.0
C      1  0.4212230000000  0.4941570000000  0.4967130000000 1.0
C      1  0.5066610000000  0.4789690000000  0.5856220000000 1.0
C      1  0.5476420000000  0.4537350000000  0.4431000000000 1.0
C      1  0.4514000000000  0.4555650000000  0.5222550000000 1.0
C      1  0.4602550000000  0.5347530000000  0.5236740000000 1.0
C      1  0.5039480000000  0.5566790000000  0.4519640000000 1.0
C      1  0.4578230000000  0.4456690000000  0.4714770000000 1.0
C      1  0.4404010000000  0.4981540000000  0.5477250000000 1.0
C      1  0.4860940000000  0.5236930000000  0.5787550000000 1.0
C      1  0.4663710000000  0.4751150000000  0.4396420000000 1.0
C      1  0.4273680000000  0.4829000000000  0.4719270000000 1.0
C      1  0.4588440000000  0.5156180000000  0.4992010000000 1.0
C      1  0.4322290000000  0.5416830000000  0.4762810000000 1.0
C      1  0.5620280000000  0.5213290000000  0.5231490000000 1.0
C      1  0.4617180000000  0.5622610000000  0.5120100000000 1.0
C      1  0.5653570000000  0.4708280000000  0.5222800000000 1.0
C      1  0.4769770000000  0.5233470000000  0.4288290000000 1.0
C      1  0.5407140000000  0.4925010000000  0.4224400000000 1.0
C      1  0.4871230000000  0.4945910000000  0.4326280000000 1.0
C      1  0.5008400000000  0.5661170000000  0.5398080000000 1.0
C      1  0.5043700000000  0.4367010000000  0.4547030000000 1.0
C      1  0.4836210000000  0.4941030000000  0.5792550000000 1.0
C      1  0.5187760000000  0.4636360000000  0.5145880000000 1.0
C      1  0.5614050000000  0.4752460000000  0.4344310000000 1.0
C      1  0.5100850000000  0.5412120000000  0.4990460000000 1.0
C      1  0.5592430000000  0.4516860000000  0.4673910000000 1.0
C      1  0.5735250000000  0.5228220000000  0.4974720000000 1.0
C      1  0.5119450000000  0.4832860000000  0.4677370000000 1.0
C      1  0.4882910000000  0.4708080000000  0.4911600000000 1.0
C      1  0.5176430000000  0.5118210000000  0.4597960000000 1.0
C      1  0.4429510000000  0.5279020000000  0.5483400000000 1.0
C      1  0.5116110000000  0.4797190000000  0.4216020000000 1.0
C      1  0.4211300000000  0.5229280000000  0.4951560000000 1.0
C      1  0.4861850000000  0.5298150000000  0.5399900000000 1.0
C      1  0.5449660000000  0.4936840000000  0.5619690000000 1.0
C      1  0.4936410000000  0.4291540000000  0.5038420000000 1.0
C      1  0.4935010000000  0.4491230000000  0.5478150000000 1.0
C      1  0.4474730000000  0.5623940000000  0.4876500000000 1.0
C      1  0.5463570000000  0.4508240000000  0.5156380000000 1.0
C      1  0.4725440000000  0.5245000000000  0.4731270000000 1.0
C      1  0.4997750000000  0.4275910000000  0.5308750000000 1.0
C      1  0.4659260000000  0.4399340000000  0.4996320000000 1.0
C      1  0.5193200000000  0.4605700000000  0.4450760000000 1.0
C      1  0.4919360000000  0.5638990000000  0.5126140000000 1.0
C      1  0.4597540000000  0.5351810000000  0.5708870000000 1.0
C      1  0.5232660000000  0.5514200000000  0.5493360000000 1.0
C      1  0.5428310000000  0.5441420000000  0.5274960000000 1.0
C      1  0.4635610000000  0.4841100000000  0.5599480000000 1.0
C      1  0.5653590000000  0.5364700000000  0.4743280000000 1.0
C      1  0.5311890000000  0.4717180000000  0.5738000000000 1.0
C      1  0.5453280000000  0.5567260000000  0.4782590000000 1.0
C      1  0.5137150000000  0.4339130000000  0.4826870000000 1.0
END
