TITL C-951347-9520-643 -1.39233703310358e-05 125000 -166.71822195503 0 0 28 (C1) n - 1
REM
REM in /home/bkarasulu/work/CARBON/AIRSS/Generating-Clusters/EDIP-Nigel-Params/with-SteepDescent/Only-C1/SD-CG/HFTN-CG
REM
REM
REM
REM
REM
REM ./C.cell (11c1c37f851c82e70ff6c80c92926a4b)
REM
REM compiler GCC version 9.2.1 20190827 (Red Hat 9.2.1-1)
REM options -cpp -mtune=generic -march=x86-64 -g -O0 -fpre-include=/usr/include/finclude/math-vector-fortran.h
REM seed 1597472083 1237812485 1994323553 -236799029 -581422073 -798205604 -1695038099 -397140871 -227703360 -1411893294 44764884 -666681753 -2059425224 -1939710123 1440629733 -35046790 2018161999 -221619979 -1675492963 -87641177 -473872868 -810600640 -422310205 149231443 603893727 1753851286 -1621011913 505701174 -1614047243 -1525261136 -226760674 -2071860595 1681052665
REM
CELL 1.54180   50.00000   50.00000   50.00000   90.00000   90.00000   90.00000
LATT -1
SFAC C  
C      1  0.5244530000000  0.5052870000000  0.5389560000000 1.0
C      1  0.5099560000000  0.5131210000000  0.4550990000000 1.0
C      1  0.4752800000000  0.4893040000000  0.4749170000000 1.0
C      1  0.5283880000000  0.5360140000000  0.4603150000000 1.0
C      1  0.4703090000000  0.4929540000000  0.5438600000000 1.0
C      1  0.5060910000000  0.5275490000000  0.5422750000000 1.0
C      1  0.4863130000000  0.4520140000000  0.5251270000000 1.0
C      1  0.4904040000000  0.4712010000000  0.5465980000000 1.0
C      1  0.5091700000000  0.4496760000000  0.4951540000000 1.0
C      1  0.4550380000000  0.4878510000000  0.5184080000000 1.0
C      1  0.5464550000000  0.5293520000000  0.5000390000000 1.0
C      1  0.5232860000000  0.4738120000000  0.4878110000000 1.0
C      1  0.5406370000000  0.5046330000000  0.5146620000000 1.0
C      1  0.4859340000000  0.5186140000000  0.4413100000000 1.0
C      1  0.4430950000000  0.5241640000000  0.4887260000000 1.0
C      1  0.5163480000000  0.4811790000000  0.5509310000000 1.0
C      1  0.5264760000000  0.5505890000000  0.5022370000000 1.0
C      1  0.5105410000000  0.5489890000000  0.5251020000000 1.0
C      1  0.4609150000000  0.5057400000000  0.4957590000000 1.0
C      1  0.4682540000000  0.4989180000000  0.4482430000000 1.0
C      1  0.5529640000000  0.5268470000000  0.4723680000000 1.0
C      1  0.4899220000000  0.4414400000000  0.4763240000000 1.0
C      1  0.4687870000000  0.4599220000000  0.4805780000000 1.0
C      1  0.4625520000000  0.4599700000000  0.5097680000000 1.0
C      1  0.5164030000000  0.5566960000000  0.4763810000000 1.0
C      1  0.4801630000000  0.5191880000000  0.5489720000000 1.0
C      1  0.5468490000000  0.4801000000000  0.5022860000000 1.0
C      1  0.5050160000000  0.4948740000000  0.4777950000000 1.0
END
