TITL C-951346-9544-71 -2.64720039793756e-06 125000 -705.421582481879 0 0 114 (C1) n - 1
REM
REM in /home/bkarasulu/work/CARBON/AIRSS/Generating-Clusters/EDIP-Nigel-Params/with-SteepDescent/Only-C1/SD-CG/HFTN-CG
REM
REM
REM
REM
REM
REM ./C.cell (11c1c37f851c82e70ff6c80c92926a4b)
REM
REM compiler GCC version 9.2.1 20190827 (Red Hat 9.2.1-1)
REM options -cpp -mtune=generic -march=x86-64 -g -O0 -fpre-include=/usr/include/finclude/math-vector-fortran.h
REM seed 914440302 32198558 -535309186 -395588923 -1402603319 -213460008 959611018 2080482110 -885699595 348926161 920392084 578435214 219496660 580445370 2125761884 1515240226 -1567519693 -1763599077 46250155 1512378856 752832944 453378860 527220005 1841735635 43427326 -1492605984 331315469 838051680 1897008770 662247855 89179839 -13049357 1293124697
REM
CELL 1.54180   50.00000   50.00000   50.00000   90.00000   90.00000   90.00000
LATT -1
SFAC C  
C      1  0.4598370000000  0.5582550000000  0.5676460000000 1.0
C      1  0.5135460000000  0.4444650000000  0.5709280000000 1.0
C      1  0.5296140000000  0.5449020000000  0.4844080000000 1.0
C      1  0.4342780000000  0.5568180000000  0.4659310000000 1.0
C      1  0.4792910000000  0.5643180000000  0.5467260000000 1.0
C      1  0.5579380000000  0.5669980000000  0.5094920000000 1.0
C      1  0.5622610000000  0.4736910000000  0.4249570000000 1.0
C      1  0.4467960000000  0.5646980000000  0.4895740000000 1.0
C      1  0.5354400000000  0.5327130000000  0.5731190000000 1.0
C      1  0.5531010000000  0.5435510000000  0.4626290000000 1.0
C      1  0.5752850000000  0.5054150000000  0.5725980000000 1.0
C      1  0.5137410000000  0.4250570000000  0.5484720000000 1.0
C      1  0.5450300000000  0.4612210000000  0.4540010000000 1.0
C      1  0.4886270000000  0.4067160000000  0.5122920000000 1.0
C      1  0.5706030000000  0.4532410000000  0.5203760000000 1.0
C      1  0.5123160000000  0.4211030000000  0.4980420000000 1.0
C      1  0.4972370000000  0.5750860000000  0.4638810000000 1.0
C      1  0.5101600000000  0.5557030000000  0.5159760000000 1.0
C      1  0.6041510000000  0.4490430000000  0.4439300000000 1.0
C      1  0.4713410000000  0.5389100000000  0.5868000000000 1.0
C      1  0.5606590000000  0.5040400000000  0.4283040000000 1.0
C      1  0.4790550000000  0.4976620000000  0.4591920000000 1.0
C      1  0.5836850000000  0.5100290000000  0.5250210000000 1.0
C      1  0.4865550000000  0.4511910000000  0.4272240000000 1.0
C      1  0.4838780000000  0.5578610000000  0.4455120000000 1.0
C      1  0.5297990000000  0.5160910000000  0.4944060000000 1.0
C      1  0.5863330000000  0.5430570000000  0.4783060000000 1.0
C      1  0.4650480000000  0.5252460000000  0.4689040000000 1.0
C      1  0.5608880000000  0.5143690000000  0.4557950000000 1.0
C      1  0.4609020000000  0.4463800000000  0.5699950000000 1.0
C      1  0.3931410000000  0.4709090000000  0.4874380000000 1.0
C      1  0.5296630000000  0.4891370000000  0.5668260000000 1.0
C      1  0.5098220000000  0.4707470000000  0.4231680000000 1.0
C      1  0.5942070000000  0.5367260000000  0.5253330000000 1.0
C      1  0.4135680000000  0.5194450000000  0.4938950000000 1.0
C      1  0.5005750000000  0.5426920000000  0.4274700000000 1.0
C      1  0.4534640000000  0.5294310000000  0.5199780000000 1.0
C      1  0.4589610000000  0.4849770000000  0.4037340000000 1.0
C      1  0.4295310000000  0.4870270000000  0.4559480000000 1.0
C      1  0.5008390000000  0.5014410000000  0.5709760000000 1.0
C      1  0.4500170000000  0.5185650000000  0.5841930000000 1.0
C      1  0.5497910000000  0.4225960000000  0.4870520000000 1.0
C      1  0.5087520000000  0.4689820000000  0.4877830000000 1.0
C      1  0.4526650000000  0.4848640000000  0.4977030000000 1.0
C      1  0.4782490000000  0.5838670000000  0.5254250000000 1.0
C      1  0.4184450000000  0.4687470000000  0.4761440000000 1.0
C      1  0.4072060000000  0.5323500000000  0.5210780000000 1.0
C      1  0.5015730000000  0.4414310000000  0.4783570000000 1.0
C      1  0.4008340000000  0.4957240000000  0.5299540000000 1.0
C      1  0.5371330000000  0.5350990000000  0.5425080000000 1.0
C      1  0.5242010000000  0.5771630000000  0.5443210000000 1.0
C      1  0.5425200000000  0.5814490000000  0.4885380000000 1.0
C      1  0.5797490000000  0.4690730000000  0.4989530000000 1.0
C      1  0.4868980000000  0.4561120000000  0.5790430000000 1.0
C      1  0.5449530000000  0.5121700000000  0.5210690000000 1.0
C      1  0.5356940000000  0.4565440000000  0.4248600000000 1.0
C      1  0.5616950000000  0.4400690000000  0.4673360000000 1.0
C      1  0.5245190000000  0.4363590000000  0.5223120000000 1.0
C      1  0.4645600000000  0.5092060000000  0.4167270000000 1.0
C      1  0.5803990000000  0.4970780000000  0.4988290000000 1.0
C      1  0.5374180000000  0.4608580000000  0.5723550000000 1.0
C      1  0.5083090000000  0.4925580000000  0.4464590000000 1.0
C      1  0.4487510000000  0.4819180000000  0.5279450000000 1.0
C      1  0.5479690000000  0.5630900000000  0.5367110000000 1.0
C      1  0.5837150000000  0.5133720000000  0.4743280000000 1.0
C      1  0.5179030000000  0.4662920000000  0.5179850000000 1.0
C      1  0.4534820000000  0.5517760000000  0.4431760000000 1.0
C      1  0.4853090000000  0.4890990000000  0.4886710000000 1.0
C      1  0.4840890000000  0.4837050000000  0.5884360000000 1.0
C      1  0.4677770000000  0.5531490000000  0.5054800000000 1.0
C      1  0.4367910000000  0.4468620000000  0.4821890000000 1.0
C      1  0.5878130000000  0.4581350000000  0.4235750000000 1.0
C      1  0.4447320000000  0.5144590000000  0.4937460000000 1.0
C      1  0.4306260000000  0.5425190000000  0.5329230000000 1.0
C      1  0.3937830000000  0.4955250000000  0.5010820000000 1.0
C      1  0.4458210000000  0.4345020000000  0.5063870000000 1.0
C      1  0.4670080000000  0.4577430000000  0.5280450000000 1.0
C      1  0.5625990000000  0.4694160000000  0.5443110000000 1.0
C      1  0.4138370000000  0.5343840000000  0.4670800000000 1.0
C      1  0.4876910000000  0.4126370000000  0.5414360000000 1.0
C      1  0.5135640000000  0.5861120000000  0.4849180000000 1.0
C      1  0.5045970000000  0.5607510000000  0.5588850000000 1.0
C      1  0.5026600000000  0.5227930000000  0.5284410000000 1.0
C      1  0.4609710000000  0.4655940000000  0.4238100000000 1.0
C      1  0.5000410000000  0.5153060000000  0.4992130000000 1.0
C      1  0.4614540000000  0.5065350000000  0.5389860000000 1.0
C      1  0.4877760000000  0.4357600000000  0.4528110000000 1.0
C      1  0.5384960000000  0.5170850000000  0.4135500000000 1.0
C      1  0.4931610000000  0.4727050000000  0.5316530000000 1.0
C      1  0.4570420000000  0.4776080000000  0.4505870000000 1.0
C      1  0.4346520000000  0.5454440000000  0.5610390000000 1.0
C      1  0.5477790000000  0.5591680000000  0.4387040000000 1.0
C      1  0.5837550000000  0.5534620000000  0.5051230000000 1.0
C      1  0.5034650000000  0.5336160000000  0.5797110000000 1.0
C      1  0.4627090000000  0.4261450000000  0.5495320000000 1.0
C      1  0.5523460000000  0.4306200000000  0.5147930000000 1.0
C      1  0.4611370000000  0.4565470000000  0.4707170000000 1.0
C      1  0.5486330000000  0.5078660000000  0.5804550000000 1.0
C      1  0.4229250000000  0.5144610000000  0.4461700000000 1.0
C      1  0.5270290000000  0.4811670000000  0.4677510000000 1.0
C      1  0.5007980000000  0.5929150000000  0.5102620000000 1.0
C      1  0.5132160000000  0.5011690000000  0.4081910000000 1.0
C      1  0.4867200000000  0.5395440000000  0.4854280000000 1.0
C      1  0.5835260000000  0.4318380000000  0.4505470000000 1.0
C      1  0.4895710000000  0.5004050000000  0.5429620000000 1.0
C      1  0.4449170000000  0.5262310000000  0.4298720000000 1.0
C      1  0.5295230000000  0.5425360000000  0.4252750000000 1.0
C      1  0.4552480000000  0.4900580000000  0.5861810000000 1.0
C      1  0.4410790000000  0.4686880000000  0.5706420000000 1.0
C      1  0.5820930000000  0.4920710000000  0.5492460000000 1.0
C      1  0.5374580000000  0.4854020000000  0.5340580000000 1.0
C      1  0.4628700000000  0.4128900000000  0.5035520000000 1.0
C      1  0.4216260000000  0.4778350000000  0.5401610000000 1.0
C      1  0.4907210000000  0.5198670000000  0.4130670000000 1.0
END
