TITL C-951341-1326-133 -2.01859292959448e-06 125000 -928.241937814536 0 0 148 (C1) n - 1
REM
REM in /home/bkarasulu/work/CARBON/AIRSS/Generating-Clusters/EDIP-Nigel-Params/with-SteepDescent/Only-C1/SD-CG/HFTN-CG
REM
REM
REM
REM
REM
REM ./C.cell (11c1c37f851c82e70ff6c80c92926a4b)
REM
REM compiler GCC version 9.2.1 20190827 (Red Hat 9.2.1-1)
REM options -cpp -mtune=generic -march=x86-64 -g -O0 -fpre-include=/usr/include/finclude/math-vector-fortran.h
REM seed -1371805354 -1303327265 1608930271 -869601493 -1178849405 -688733459 -1631394727 -2126634059 -1544984933 1763176911 393526880 651983044 -831113279 1594536719 1803714678 871230510 -799396158 -1320653200 -1628030984 1479804717 1623107860 193080802 -1502573266 -2112163892 -1921760939 210832299 -1610286962 798665958 -759580375 1287657683 -434547158 -725099198 1701990543
REM
CELL 1.54180   50.00000   50.00000   50.00000   90.00000   90.00000   90.00000
LATT -1
SFAC C  
C      1  0.5120760000000  0.4784820000000  0.4622580000000 1.0
C      1  0.4732530000000  0.5521610000000  0.5890110000000 1.0
C      1  0.5019490000000  0.5632080000000  0.5254850000000 1.0
C      1  0.5263250000000  0.5286480000000  0.5979560000000 1.0
C      1  0.5385670000000  0.4873070000000  0.4651400000000 1.0
C      1  0.5031300000000  0.4498070000000  0.4731510000000 1.0
C      1  0.5511160000000  0.5182730000000  0.5232270000000 1.0
C      1  0.5693300000000  0.4202940000000  0.5242730000000 1.0
C      1  0.4131560000000  0.4751720000000  0.4518720000000 1.0
C      1  0.5419260000000  0.4433790000000  0.5501730000000 1.0
C      1  0.4096720000000  0.5375520000000  0.5014930000000 1.0
C      1  0.4197370000000  0.5628120000000  0.4898550000000 1.0
C      1  0.5486190000000  0.5500800000000  0.5605940000000 1.0
C      1  0.5864670000000  0.5548430000000  0.4800160000000 1.0
C      1  0.4285170000000  0.5439730000000  0.4420730000000 1.0
C      1  0.4821120000000  0.4178270000000  0.5652330000000 1.0
C      1  0.5973270000000  0.5106850000000  0.5052930000000 1.0
C      1  0.5348220000000  0.4883730000000  0.4074370000000 1.0
C      1  0.4383710000000  0.4650610000000  0.4114140000000 1.0
C      1  0.5905010000000  0.4825170000000  0.4675940000000 1.0
C      1  0.5835800000000  0.4845210000000  0.5645600000000 1.0
C      1  0.5526840000000  0.5154570000000  0.5940570000000 1.0
C      1  0.5375680000000  0.4017470000000  0.4921570000000 1.0
C      1  0.5595000000000  0.4482320000000  0.4799970000000 1.0
C      1  0.4772460000000  0.4128220000000  0.5167610000000 1.0
C      1  0.4507840000000  0.5100920000000  0.4087280000000 1.0
C      1  0.4788350000000  0.5429590000000  0.4244990000000 1.0
C      1  0.4691200000000  0.4413660000000  0.5189680000000 1.0
C      1  0.4487990000000  0.5850760000000  0.4554730000000 1.0
C      1  0.4562130000000  0.5084270000000  0.5951920000000 1.0
C      1  0.4057940000000  0.5287410000000  0.4447550000000 1.0
C      1  0.5523500000000  0.4784980000000  0.4892300000000 1.0
C      1  0.4862520000000  0.4846580000000  0.5026680000000 1.0
C      1  0.5821450000000  0.5091230000000  0.4567910000000 1.0
C      1  0.4156150000000  0.5098580000000  0.5404110000000 1.0
C      1  0.5122290000000  0.4904210000000  0.5182010000000 1.0
C      1  0.3953330000000  0.5132550000000  0.4909140000000 1.0
C      1  0.4318460000000  0.5643920000000  0.4625180000000 1.0
C      1  0.4313110000000  0.4761920000000  0.5740670000000 1.0
C      1  0.5529970000000  0.3987540000000  0.5163970000000 1.0
C      1  0.4500740000000  0.5001600000000  0.4780710000000 1.0
C      1  0.4841530000000  0.4450470000000  0.4477440000000 1.0
C      1  0.4989070000000  0.4301880000000  0.4262530000000 1.0
C      1  0.4905780000000  0.6055270000000  0.4664740000000 1.0
C      1  0.4386050000000  0.4439480000000  0.5252830000000 1.0
C      1  0.5504180000000  0.4684740000000  0.5366230000000 1.0
C      1  0.5574230000000  0.5530310000000  0.4159740000000 1.0
C      1  0.4541900000000  0.4202890000000  0.5638740000000 1.0
C      1  0.5884800000000  0.4651740000000  0.5435400000000 1.0
C      1  0.5232470000000  0.4465020000000  0.5729620000000 1.0
C      1  0.4703780000000  0.4879610000000  0.5379850000000 1.0
C      1  0.4322260000000  0.5592560000000  0.5395860000000 1.0
C      1  0.4817240000000  0.4652280000000  0.5907480000000 1.0
C      1  0.4067410000000  0.4871490000000  0.5034970000000 1.0
C      1  0.5187690000000  0.5643100000000  0.4415210000000 1.0
C      1  0.4612220000000  0.5817420000000  0.5043240000000 1.0
C      1  0.3964190000000  0.5080340000000  0.4608700000000 1.0
C      1  0.4598470000000  0.5195950000000  0.4983140000000 1.0
C      1  0.4167260000000  0.4439420000000  0.5056810000000 1.0
C      1  0.4558410000000  0.4801240000000  0.5897650000000 1.0
C      1  0.6011100000000  0.4823560000000  0.4956160000000 1.0
C      1  0.4696870000000  0.5231540000000  0.5558210000000 1.0
C      1  0.4590520000000  0.4162230000000  0.4534160000000 1.0
C      1  0.5296350000000  0.5743650000000  0.4677110000000 1.0
C      1  0.4824130000000  0.5390960000000  0.4879020000000 1.0
C      1  0.5478150000000  0.4378640000000  0.4329890000000 1.0
C      1  0.5331390000000  0.4295730000000  0.4779060000000 1.0
C      1  0.5773460000000  0.5798060000000  0.4722630000000 1.0
C      1  0.5053400000000  0.4810810000000  0.6002690000000 1.0
C      1  0.4320960000000  0.4579620000000  0.4391960000000 1.0
C      1  0.5570970000000  0.5885890000000  0.4317590000000 1.0
C      1  0.4331090000000  0.5781250000000  0.5137180000000 1.0
C      1  0.4626850000000  0.6023180000000  0.5228100000000 1.0
C      1  0.5421090000000  0.4934440000000  0.5513510000000 1.0
C      1  0.5780830000000  0.4395990000000  0.5029950000000 1.0
C      1  0.5087270000000  0.5253880000000  0.4825970000000 1.0
C      1  0.4841600000000  0.5738060000000  0.5477410000000 1.0
C      1  0.5194520000000  0.5436560000000  0.5725030000000 1.0
C      1  0.5046400000000  0.4821610000000  0.4326850000000 1.0
C      1  0.4191270000000  0.4515800000000  0.5687500000000 1.0
C      1  0.4899780000000  0.6074200000000  0.5292080000000 1.0
C      1  0.5592790000000  0.5463680000000  0.5317410000000 1.0
C      1  0.6003920000000  0.5211490000000  0.5345390000000 1.0
C      1  0.4517850000000  0.5120760000000  0.5281180000000 1.0
C      1  0.5135120000000  0.6036820000000  0.5107490000000 1.0
C      1  0.4623010000000  0.5517150000000  0.5422590000000 1.0
C      1  0.4921360000000  0.4466940000000  0.5675980000000 1.0
C      1  0.4242530000000  0.4356380000000  0.4803900000000 1.0
C      1  0.5874560000000  0.4643600000000  0.5145250000000 1.0
C      1  0.5678080000000  0.5312970000000  0.5737600000000 1.0
C      1  0.5815900000000  0.5122050000000  0.5550580000000 1.0
C      1  0.4832210000000  0.4561290000000  0.4962050000000 1.0
C      1  0.5672960000000  0.5105010000000  0.4987450000000 1.0
C      1  0.4851130000000  0.4757200000000  0.3938320000000 1.0
C      1  0.4242610000000  0.4851280000000  0.4780450000000 1.0
C      1  0.5481720000000  0.5272910000000  0.4245570000000 1.0
C      1  0.4350260000000  0.5229730000000  0.5830210000000 1.0
C      1  0.5263870000000  0.5805770000000  0.5249730000000 1.0
C      1  0.5248720000000  0.5154970000000  0.4113350000000 1.0
C      1  0.4789740000000  0.5245880000000  0.5986880000000 1.0
C      1  0.5385310000000  0.5501770000000  0.4848840000000 1.0
C      1  0.4442660000000  0.5509090000000  0.5763650000000 1.0
C      1  0.5072790000000  0.4072090000000  0.4423210000000 1.0
C      1  0.4644060000000  0.4568810000000  0.4016710000000 1.0
C      1  0.4868430000000  0.5670150000000  0.4991450000000 1.0
C      1  0.5467170000000  0.5645820000000  0.5113220000000 1.0
C      1  0.4150410000000  0.5364720000000  0.5299000000000 1.0
C      1  0.5176960000000  0.3913410000000  0.5303820000000 1.0
C      1  0.4963350000000  0.5652140000000  0.5747830000000 1.0
C      1  0.5344460000000  0.4719470000000  0.5116390000000 1.0
C      1  0.4306040000000  0.4912960000000  0.4039000000000 1.0
C      1  0.4842400000000  0.4039640000000  0.4634400000000 1.0
C      1  0.4916060000000  0.4063180000000  0.4921540000000 1.0
C      1  0.4759530000000  0.5871900000000  0.4514450000000 1.0
C      1  0.4928130000000  0.4044610000000  0.5398460000000 1.0
C      1  0.5059030000000  0.5886110000000  0.4843300000000 1.0
C      1  0.4373890000000  0.4348630000000  0.4562450000000 1.0
C      1  0.5673980000000  0.5062310000000  0.4319030000000 1.0
C      1  0.5127880000000  0.3896050000000  0.5012240000000 1.0
C      1  0.4900790000000  0.5662280000000  0.4372340000000 1.0
C      1  0.4821590000000  0.4590060000000  0.5407890000000 1.0
C      1  0.4326540000000  0.4337770000000  0.5521810000000 1.0
C      1  0.5545400000000  0.5898320000000  0.4602590000000 1.0
C      1  0.4781120000000  0.5024240000000  0.4034130000000 1.0
C      1  0.5525490000000  0.4810590000000  0.4400940000000 1.0
C      1  0.5039670000000  0.5108330000000  0.6034030000000 1.0
C      1  0.5659950000000  0.5327710000000  0.4759340000000 1.0
C      1  0.5899270000000  0.5481930000000  0.5302190000000 1.0
C      1  0.4944070000000  0.4977220000000  0.4755600000000 1.0
C      1  0.5691190000000  0.4556420000000  0.4497940000000 1.0
C      1  0.5017530000000  0.5226320000000  0.5543860000000 1.0
C      1  0.4503670000000  0.5353240000000  0.4238190000000 1.0
C      1  0.5307010000000  0.4690240000000  0.5911070000000 1.0
C      1  0.5071410000000  0.5349490000000  0.5294480000000 1.0
C      1  0.5121960000000  0.4950660000000  0.5491370000000 1.0
C      1  0.5210950000000  0.4483070000000  0.4208740000000 1.0
C      1  0.5367030000000  0.5724420000000  0.4195770000000 1.0
C      1  0.5519990000000  0.4883810000000  0.5804580000000 1.0
C      1  0.3949250000000  0.4620060000000  0.5085020000000 1.0
C      1  0.5987330000000  0.5552500000000  0.5048350000000 1.0
C      1  0.4195260000000  0.5027900000000  0.5679490000000 1.0
C      1  0.5653840000000  0.4271140000000  0.5518860000000 1.0
C      1  0.4700480000000  0.4957040000000  0.4578250000000 1.0
C      1  0.4963320000000  0.5214060000000  0.4140770000000 1.0
C      1  0.5349170000000  0.4175090000000  0.4508040000000 1.0
C      1  0.4735670000000  0.4725430000000  0.4358040000000 1.0
C      1  0.5154780000000  0.4673050000000  0.3964480000000 1.0
C      1  0.5215990000000  0.5185910000000  0.5109600000000 1.0
END
