TITL C-950527-2551-424 -1.61437198074387e-06 125000 -313.235909535575 0 0 51 (C1) n - 1
REM
REM in /home/bkarasulu/work/CARBON/AIRSS/Generating-Clusters/EDIP-Nigel-Params/with-SteepDescent/Only-C1/SD-CG/HFTN-CG
REM
REM
REM
REM
REM
REM ./C.cell (11c1c37f851c82e70ff6c80c92926a4b)
REM
REM compiler GCC version 9.2.1 20190827 (Red Hat 9.2.1-1)
REM options -cpp -mtune=generic -march=x86-64 -g -O0 -fpre-include=/usr/include/finclude/math-vector-fortran.h
REM seed -1911481965 971072579 841779210 -610896289 918640654 1507074289 -724430877 2049711702 201073424 1570190574 -617975463 391385345 1316326214 -1594168194 -249046156 138324402 265845779 -859239719 -2049530786 -621811836 490738133 430415375 387526405 -1948711690 -1262296733 1549390182 717117680 611992801 -1619040858 -1983478653 1117221103 -1480167131 1912182066
REM
CELL 1.54180   50.00000   50.00000   50.00000   90.00000   90.00000   90.00000
LATT -1
SFAC C  
C      1  0.4406790000000  0.5157210000000  0.4871100000000 1.0
C      1  0.4597180000000  0.4523750000000  0.5125920000000 1.0
C      1  0.5483020000000  0.4343000000000  0.4948530000000 1.0
C      1  0.5006780000000  0.4665330000000  0.5414490000000 1.0
C      1  0.4988780000000  0.5608240000000  0.4767420000000 1.0
C      1  0.5297970000000  0.5387450000000  0.5511980000000 1.0
C      1  0.4558710000000  0.4312750000000  0.4696410000000 1.0
C      1  0.5170450000000  0.4812290000000  0.4437640000000 1.0
C      1  0.5240920000000  0.4879490000000  0.4720000000000 1.0
C      1  0.4713280000000  0.5007510000000  0.4434790000000 1.0
C      1  0.4731030000000  0.5510970000000  0.4875370000000 1.0
C      1  0.5404030000000  0.4919560000000  0.5330040000000 1.0
C      1  0.4805180000000  0.5258680000000  0.5575660000000 1.0
C      1  0.4587090000000  0.4917360000000  0.4845510000000 1.0
C      1  0.5220330000000  0.4267450000000  0.4904860000000 1.0
C      1  0.5016610000000  0.5399940000000  0.5429380000000 1.0
C      1  0.5069800000000  0.4830480000000  0.5653540000000 1.0
C      1  0.4526350000000  0.4906120000000  0.5406340000000 1.0
C      1  0.5385700000000  0.5521910000000  0.5040310000000 1.0
C      1  0.5128940000000  0.5675470000000  0.5031340000000 1.0
C      1  0.5096430000000  0.5279680000000  0.4394230000000 1.0
C      1  0.4583520000000  0.4752510000000  0.4492250000000 1.0
C      1  0.5360300000000  0.5209970000000  0.5721760000000 1.0
C      1  0.5740210000000  0.5202810000000  0.5052660000000 1.0
C      1  0.5408470000000  0.4786380000000  0.4284740000000 1.0
C      1  0.4300280000000  0.4895880000000  0.5213750000000 1.0
C      1  0.5331490000000  0.4953960000000  0.5607400000000 1.0
C      1  0.5615250000000  0.4820580000000  0.4457610000000 1.0
C      1  0.5177910000000  0.5433510000000  0.4615020000000 1.0
C      1  0.5397170000000  0.4439580000000  0.5193690000000 1.0
C      1  0.5654490000000  0.5041900000000  0.5265700000000 1.0
C      1  0.4733170000000  0.4359440000000  0.4917220000000 1.0
C      1  0.4594970000000  0.5258840000000  0.4473850000000 1.0
C      1  0.5500320000000  0.5398420000000  0.5289510000000 1.0
C      1  0.4937060000000  0.5616170000000  0.5252040000000 1.0
C      1  0.5085130000000  0.4740010000000  0.4944490000000 1.0
C      1  0.5613610000000  0.5177460000000  0.4793160000000 1.0
C      1  0.4430630000000  0.4562820000000  0.4663830000000 1.0
C      1  0.4837990000000  0.4903110000000  0.5021320000000 1.0
C      1  0.5008590000000  0.4456880000000  0.4855650000000 1.0
C      1  0.4565400000000  0.5192010000000  0.5430640000000 1.0
C      1  0.4525120000000  0.5375980000000  0.4718800000000 1.0
C      1  0.4749740000000  0.4748410000000  0.5266400000000 1.0
C      1  0.4987180000000  0.5024900000000  0.4339480000000 1.0
C      1  0.5240730000000  0.4690250000000  0.5217070000000 1.0
C      1  0.5381390000000  0.5354190000000  0.4808420000000 1.0
C      1  0.5536680000000  0.4900580000000  0.4716220000000 1.0
C      1  0.4398420000000  0.4694650000000  0.4973470000000 1.0
C      1  0.4675500000000  0.5608380000000  0.5137140000000 1.0
C      1  0.4309560000000  0.5184100000000  0.5141780000000 1.0
C      1  0.4884380000000  0.5031670000000  0.5720060000000 1.0
END
