TITL C-951339-9237-566 -1.55676323545519e-06 125000 -353.498017345128 0 0 58 (C1) n - 1
REM
REM in /home/bkarasulu/work/CARBON/AIRSS/Generating-Clusters/EDIP-Nigel-Params/with-SteepDescent/Only-C1/SD-CG/HFTN-CG
REM
REM
REM
REM
REM
REM ./C.cell (11c1c37f851c82e70ff6c80c92926a4b)
REM
REM compiler GCC version 9.2.1 20190827 (Red Hat 9.2.1-1)
REM options -cpp -mtune=generic -march=x86-64 -g -O0 -fpre-include=/usr/include/finclude/math-vector-fortran.h
REM seed -1576878628 -401374148 1176031752 1170858467 -1118536224 1653085666 694735895 -1700196405 1697372675 -1769420785 -1150125238 -863945966 1582302261 272488861 1481651316 571386287 98830769 -1511091246 1514973117 494571222 -1608579372 1532856534 1642809265 -282680157 714798321 595745609 699437235 1491080094 -1719845901 -1542332388 1087339865 1699879232 -1584124710
REM
CELL 1.54180   50.00000   50.00000   50.00000   90.00000   90.00000   90.00000
LATT -1
SFAC C  
C      1  0.4577050000000  0.5274180000000  0.5568140000000 1.0
C      1  0.5311810000000  0.4563090000000  0.4913840000000 1.0
C      1  0.4970820000000  0.4289970000000  0.4732430000000 1.0
C      1  0.5224920000000  0.4605510000000  0.5618820000000 1.0
C      1  0.5141460000000  0.4320050000000  0.4967710000000 1.0
C      1  0.4392010000000  0.4996010000000  0.4675770000000 1.0
C      1  0.5356980000000  0.5246830000000  0.5533960000000 1.0
C      1  0.5136570000000  0.5492950000000  0.4545450000000 1.0
C      1  0.4939690000000  0.5428270000000  0.5312290000000 1.0
C      1  0.5425290000000  0.5652120000000  0.4940110000000 1.0
C      1  0.5483130000000  0.4497900000000  0.4685030000000 1.0
C      1  0.5009510000000  0.4282970000000  0.5211640000000 1.0
C      1  0.4437490000000  0.5471160000000  0.4623270000000 1.0
C      1  0.4405200000000  0.4698150000000  0.5045960000000 1.0
C      1  0.4597130000000  0.4428090000000  0.4528540000000 1.0
C      1  0.4678310000000  0.4560190000000  0.5009910000000 1.0
C      1  0.4821040000000  0.5142260000000  0.5629080000000 1.0
C      1  0.5315190000000  0.4556560000000  0.4468510000000 1.0
C      1  0.4800240000000  0.4503190000000  0.4354730000000 1.0
C      1  0.5467620000000  0.5384980000000  0.5292780000000 1.0
C      1  0.5304310000000  0.5047060000000  0.4535310000000 1.0
C      1  0.4749560000000  0.4921510000000  0.5256400000000 1.0
C      1  0.4884000000000  0.5632360000000  0.4512690000000 1.0
C      1  0.5293280000000  0.4819860000000  0.5298070000000 1.0
C      1  0.4731410000000  0.5549090000000  0.4853500000000 1.0
C      1  0.5354830000000  0.5469950000000  0.4741550000000 1.0
C      1  0.4668080000000  0.5441950000000  0.4434000000000 1.0
C      1  0.4440200000000  0.5222470000000  0.5091020000000 1.0
C      1  0.4685240000000  0.4345970000000  0.4787350000000 1.0
C      1  0.5694210000000  0.5228520000000  0.5181950000000 1.0
C      1  0.5441800000000  0.5652870000000  0.5210500000000 1.0
C      1  0.4802470000000  0.4854500000000  0.5633420000000 1.0
C      1  0.5133690000000  0.4817570000000  0.4873030000000 1.0
C      1  0.4914100000000  0.5168960000000  0.5156320000000 1.0
C      1  0.4958390000000  0.4646780000000  0.5508850000000 1.0
C      1  0.4700150000000  0.5599380000000  0.5291970000000 1.0
C      1  0.5476850000000  0.4635340000000  0.5151130000000 1.0
C      1  0.4458320000000  0.4939600000000  0.5207450000000 1.0
C      1  0.4279640000000  0.4777920000000  0.4809130000000 1.0
C      1  0.5717090000000  0.4790910000000  0.5122100000000 1.0
C      1  0.4673890000000  0.5743950000000  0.5052560000000 1.0
C      1  0.4832440000000  0.4811840000000  0.4895350000000 1.0
C      1  0.4478490000000  0.5409270000000  0.5338450000000 1.0
C      1  0.4690090000000  0.5039330000000  0.4712460000000 1.0
C      1  0.5359950000000  0.4817530000000  0.4382380000000 1.0
C      1  0.4801200000000  0.5169240000000  0.4451820000000 1.0
C      1  0.4834970000000  0.4488160000000  0.5279950000000 1.0
C      1  0.5460780000000  0.4966290000000  0.5503160000000 1.0
C      1  0.5486480000000  0.5212180000000  0.4706220000000 1.0
C      1  0.5666100000000  0.5108810000000  0.4913350000000 1.0
C      1  0.5412740000000  0.4785770000000  0.5728080000000 1.0
C      1  0.5725720000000  0.4981190000000  0.5347110000000 1.0
C      1  0.5036890000000  0.4467620000000  0.4508480000000 1.0
C      1  0.5081480000000  0.5290640000000  0.5634550000000 1.0
C      1  0.5171820000000  0.5014030000000  0.5090100000000 1.0
C      1  0.4712410000000  0.5252580000000  0.4938740000000 1.0
C      1  0.4299630000000  0.5257500000000  0.4768960000000 1.0
C      1  0.5095840000000  0.5227100000000  0.4434620000000 1.0
END
