TITL C-951342-2639-360 -4.75831732379813e-06 125000 -915.718997809603 0 0 147 (C1) n - 1
REM
REM in /home/bkarasulu/work/CARBON/AIRSS/Generating-Clusters/EDIP-Nigel-Params/with-SteepDescent/Only-C1/SD-CG/HFTN-CG
REM
REM
REM
REM
REM
REM ./C.cell (11c1c37f851c82e70ff6c80c92926a4b)
REM
REM compiler GCC version 9.2.1 20190827 (Red Hat 9.2.1-1)
REM options -cpp -mtune=generic -march=x86-64 -g -O0 -fpre-include=/usr/include/finclude/math-vector-fortran.h
REM seed 682334736 602674074 -1232146038 -955128646 -665763792 213617701 -1431803766 383560173 -1761436088 872279903 -698870706 42935984 204937063 1991326612 -307086016 -1258132833 -1413555634 1199965634 -121838196 -1197568818 -1726359396 279426147 1431996727 644810168 -1716732117 720120440 -318311497 -794272043 -1953906841 -312963958 -624318928 -1616502448 747228318
REM
CELL 1.54180   50.00000   50.00000   50.00000   90.00000   90.00000   90.00000
LATT -1
SFAC C  
C      1  0.5287540000000  0.5298530000000  0.5907320000000 1.0
C      1  0.5918840000000  0.5468730000000  0.5184120000000 1.0
C      1  0.4674880000000  0.5417280000000  0.5857630000000 1.0
C      1  0.4535850000000  0.5424120000000  0.5435580000000 1.0
C      1  0.3924660000000  0.4797200000000  0.5300800000000 1.0
C      1  0.5662550000000  0.5887630000000  0.5103730000000 1.0
C      1  0.5003320000000  0.5395810000000  0.4289120000000 1.0
C      1  0.4900180000000  0.4973290000000  0.4407900000000 1.0
C      1  0.4077960000000  0.5244670000000  0.5446240000000 1.0
C      1  0.4905850000000  0.5001380000000  0.4993110000000 1.0
C      1  0.4888800000000  0.5620510000000  0.5841300000000 1.0
C      1  0.4684560000000  0.4605070000000  0.4620550000000 1.0
C      1  0.5858600000000  0.4581960000000  0.5279160000000 1.0
C      1  0.5344060000000  0.5646170000000  0.4927540000000 1.0
C      1  0.4933600000000  0.5918860000000  0.5387990000000 1.0
C      1  0.4317170000000  0.5279870000000  0.5633820000000 1.0
C      1  0.5163390000000  0.4558590000000  0.5317320000000 1.0
C      1  0.4997710000000  0.5172270000000  0.5437680000000 1.0
C      1  0.4899940000000  0.5888220000000  0.4643690000000 1.0
C      1  0.4942710000000  0.4523890000000  0.4194720000000 1.0
C      1  0.5335210000000  0.4846160000000  0.4278010000000 1.0
C      1  0.4648740000000  0.4868680000000  0.5358120000000 1.0
C      1  0.5797460000000  0.5063400000000  0.4463890000000 1.0
C      1  0.4234380000000  0.4374720000000  0.4776020000000 1.0
C      1  0.4766360000000  0.4713810000000  0.4328960000000 1.0
C      1  0.4982010000000  0.5404630000000  0.4734320000000 1.0
C      1  0.5239860000000  0.6069190000000  0.4939800000000 1.0
C      1  0.5291740000000  0.4710130000000  0.5073160000000 1.0
C      1  0.4829110000000  0.4273020000000  0.4293860000000 1.0
C      1  0.5658360000000  0.4975320000000  0.4737700000000 1.0
C      1  0.4345190000000  0.4996290000000  0.5754730000000 1.0
C      1  0.4428840000000  0.5742590000000  0.4497850000000 1.0
C      1  0.5527730000000  0.6040860000000  0.4887230000000 1.0
C      1  0.4917050000000  0.4928170000000  0.5274600000000 1.0
C      1  0.4106300000000  0.5159230000000  0.4895970000000 1.0
C      1  0.5384690000000  0.3994720000000  0.4653740000000 1.0
C      1  0.5071020000000  0.4123650000000  0.4372220000000 1.0
C      1  0.5513400000000  0.5447890000000  0.4270070000000 1.0
C      1  0.5031990000000  0.5407270000000  0.6013280000000 1.0
C      1  0.4172690000000  0.4924360000000  0.4360360000000 1.0
C      1  0.5388750000000  0.4330970000000  0.5381500000000 1.0
C      1  0.4683400000000  0.4098240000000  0.5407570000000 1.0
C      1  0.5408760000000  0.5264730000000  0.4079260000000 1.0
C      1  0.5230660000000  0.4553930000000  0.4243210000000 1.0
C      1  0.4585010000000  0.4922230000000  0.5910900000000 1.0
C      1  0.4647980000000  0.4623290000000  0.5507100000000 1.0
C      1  0.4571820000000  0.5468180000000  0.4952780000000 1.0
C      1  0.4878600000000  0.5448910000000  0.5393300000000 1.0
C      1  0.4689320000000  0.5361310000000  0.4668080000000 1.0
C      1  0.6145950000000  0.4814020000000  0.4987640000000 1.0
C      1  0.5255390000000  0.4334530000000  0.5843580000000 1.0
C      1  0.5393730000000  0.4972040000000  0.5207220000000 1.0
C      1  0.5152840000000  0.4033580000000  0.5353210000000 1.0
C      1  0.5524040000000  0.4704660000000  0.4678290000000 1.0
C      1  0.4746910000000  0.4673430000000  0.5797830000000 1.0
C      1  0.4344490000000  0.4746160000000  0.4212360000000 1.0
C      1  0.5022470000000  0.4777170000000  0.5804970000000 1.0
C      1  0.5006400000000  0.5672150000000  0.5565760000000 1.0
C      1  0.4439400000000  0.5708610000000  0.5373430000000 1.0
C      1  0.5081800000000  0.5669490000000  0.4219370000000 1.0
C      1  0.4941760000000  0.5142010000000  0.4145080000000 1.0
C      1  0.4352170000000  0.4856760000000  0.4939640000000 1.0
C      1  0.5192250000000  0.4970960000000  0.4546720000000 1.0
C      1  0.5231080000000  0.5044400000000  0.4067750000000 1.0
C      1  0.5203950000000  0.4741940000000  0.5574060000000 1.0
C      1  0.4200500000000  0.5660120000000  0.5180620000000 1.0
C      1  0.4854110000000  0.4514990000000  0.5199470000000 1.0
C      1  0.4844580000000  0.5802330000000  0.4353440000000 1.0
C      1  0.5093220000000  0.3950440000000  0.4610930000000 1.0
C      1  0.4151110000000  0.4968800000000  0.5355860000000 1.0
C      1  0.5176570000000  0.5313730000000  0.4517280000000 1.0
C      1  0.5191360000000  0.4088670000000  0.5071910000000 1.0
C      1  0.4486540000000  0.4231180000000  0.4713200000000 1.0
C      1  0.4313480000000  0.4464780000000  0.4306100000000 1.0
C      1  0.5476110000000  0.5472190000000  0.4710720000000 1.0
C      1  0.5353760000000  0.5022410000000  0.5972060000000 1.0
C      1  0.4686270000000  0.4165980000000  0.4921340000000 1.0
C      1  0.5842810000000  0.5676900000000  0.5001110000000 1.0
C      1  0.6124040000000  0.5005350000000  0.5212420000000 1.0
C      1  0.4076350000000  0.5378860000000  0.5178350000000 1.0
C      1  0.4186660000000  0.4777250000000  0.5589360000000 1.0
C      1  0.4990090000000  0.4116010000000  0.4850400000000 1.0
C      1  0.5658910000000  0.4233170000000  0.4987000000000 1.0
C      1  0.5179020000000  0.5956920000000  0.5206520000000 1.0
C      1  0.4184660000000  0.5326840000000  0.4652730000000 1.0
C      1  0.4457160000000  0.5319640000000  0.4223600000000 1.0
C      1  0.4573920000000  0.4849260000000  0.4744890000000 1.0
C      1  0.5338490000000  0.5880260000000  0.4619180000000 1.0
C      1  0.5770050000000  0.5371410000000  0.4402880000000 1.0
C      1  0.4770820000000  0.4403550000000  0.5911580000000 1.0
C      1  0.5682600000000  0.5038810000000  0.5222610000000 1.0
C      1  0.4696420000000  0.5071360000000  0.4607570000000 1.0
C      1  0.5684610000000  0.5318740000000  0.5595630000000 1.0
C      1  0.5452130000000  0.4637390000000  0.5702010000000 1.0
C      1  0.5255020000000  0.5014120000000  0.5467250000000 1.0
C      1  0.5310330000000  0.5662020000000  0.5564100000000 1.0
C      1  0.4602900000000  0.5518380000000  0.4409120000000 1.0
C      1  0.4421740000000  0.4984850000000  0.5202130000000 1.0
C      1  0.6040570000000  0.4891940000000  0.4716760000000 1.0
C      1  0.4801830000000  0.5616740000000  0.5091390000000 1.0
C      1  0.4937170000000  0.4140500000000  0.5512920000000 1.0
C      1  0.4364690000000  0.4543280000000  0.5508310000000 1.0
C      1  0.5434720000000  0.5433620000000  0.5699080000000 1.0
C      1  0.5421530000000  0.5827190000000  0.5320460000000 1.0
C      1  0.4226830000000  0.4567790000000  0.5005280000000 1.0
C      1  0.6114110000000  0.5276820000000  0.5133810000000 1.0
C      1  0.4366710000000  0.5690760000000  0.4933680000000 1.0
C      1  0.4546790000000  0.4299120000000  0.4424530000000 1.0
C      1  0.5683730000000  0.5333870000000  0.5297310000000 1.0
C      1  0.3946960000000  0.4680600000000  0.5042280000000 1.0
C      1  0.4113330000000  0.4487670000000  0.4532030000000 1.0
C      1  0.4606760000000  0.5925640000000  0.4641990000000 1.0
C      1  0.5445230000000  0.4052350000000  0.4928400000000 1.0
C      1  0.5646000000000  0.4854700000000  0.4280760000000 1.0
C      1  0.5407630000000  0.5453390000000  0.5194960000000 1.0
C      1  0.4633660000000  0.4286310000000  0.5193860000000 1.0
C      1  0.4982470000000  0.4269030000000  0.5774030000000 1.0
C      1  0.5132960000000  0.4372940000000  0.4735600000000 1.0
C      1  0.5300850000000  0.4306010000000  0.4395600000000 1.0
C      1  0.5081750000000  0.4817680000000  0.4855200000000 1.0
C      1  0.5470220000000  0.5192740000000  0.4811500000000 1.0
C      1  0.5765100000000  0.5033420000000  0.5658610000000 1.0
C      1  0.5717790000000  0.4625640000000  0.4463290000000 1.0
C      1  0.5576860000000  0.4878080000000  0.5834700000000 1.0
C      1  0.5983880000000  0.4661940000000  0.4553920000000 1.0
C      1  0.5880630000000  0.4882000000000  0.5373550000000 1.0
C      1  0.4027670000000  0.4774700000000  0.4563920000000 1.0
C      1  0.5768070000000  0.5535240000000  0.4653760000000 1.0
C      1  0.4226090000000  0.5621170000000  0.4682280000000 1.0
C      1  0.5344400000000  0.5691540000000  0.4356340000000 1.0
C      1  0.3937300000000  0.4895740000000  0.4827330000000 1.0
C      1  0.4503820000000  0.5273950000000  0.5174010000000 1.0
C      1  0.5407060000000  0.4493980000000  0.4864740000000 1.0
C      1  0.6059720000000  0.4563960000000  0.5083470000000 1.0
C      1  0.5306820000000  0.5205900000000  0.5047940000000 1.0
C      1  0.5637930000000  0.4391720000000  0.5222820000000 1.0
C      1  0.5459240000000  0.4257690000000  0.5663350000000 1.0
C      1  0.4356100000000  0.4419630000000  0.5239610000000 1.0
C      1  0.5015260000000  0.5686680000000  0.4851110000000 1.0
C      1  0.4729830000000  0.5165590000000  0.5983430000000 1.0
C      1  0.5138280000000  0.4857800000000  0.6050260000000 1.0
C      1  0.4919320000000  0.4566210000000  0.4823000000000 1.0
C      1  0.5028850000000  0.5249970000000  0.4978590000000 1.0
C      1  0.4634960000000  0.5131710000000  0.4055590000000 1.0
C      1  0.4550300000000  0.4851490000000  0.4044610000000 1.0
C      1  0.4675880000000  0.5858120000000  0.5236020000000 1.0
C      1  0.4232790000000  0.5206810000000  0.4386860000000 1.0
END
