TITL C-951344-124-80 4.41326558313492e-06 125000 -1187.71179724679 0 0 189 (C1) n - 1
REM
REM in /home/bkarasulu/work/CARBON/AIRSS/Generating-Clusters/EDIP-Nigel-Params/with-SteepDescent/Only-C1/SD-CG/HFTN-CG
REM
REM
REM
REM
REM
REM ./C.cell (11c1c37f851c82e70ff6c80c92926a4b)
REM
REM compiler GCC version 9.2.1 20190827 (Red Hat 9.2.1-1)
REM options -cpp -mtune=generic -march=x86-64 -g -O0 -fpre-include=/usr/include/finclude/math-vector-fortran.h
REM seed -1965374560 -362242949 469070508 -495872513 -839608115 150871846 -132751227 -2036418197 -1151460318 -201589474 -419376889 846083435 1703874010 -2004185113 278126020 1562017039 -1125255260 -396775256 1582675802 -1384897539 -846640408 1629531267 -88674050 614857924 404478325 -197670213 1843854629 -1537804272 365608984 1818284005 -1633205756 -501484715 308188455
REM
CELL 1.54180   50.00000   50.00000   50.00000   90.00000   90.00000   90.00000
LATT -1
SFAC C  
C      1  0.5216370000000  0.5273330000000  0.3914550000000 1.0
C      1  0.5534910000000  0.5842620000000  0.5345330000000 1.0
C      1  0.6036950000000  0.5336170000000  0.5156460000000 1.0
C      1  0.6021640000000  0.4460360000000  0.5375800000000 1.0
C      1  0.5639300000000  0.4513360000000  0.5390670000000 1.0
C      1  0.5753090000000  0.4472850000000  0.5812420000000 1.0
C      1  0.5790760000000  0.5474020000000  0.5180320000000 1.0
C      1  0.5012220000000  0.5962660000000  0.5442360000000 1.0
C      1  0.5014490000000  0.6228180000000  0.5033060000000 1.0
C      1  0.4847650000000  0.5751440000000  0.4315080000000 1.0
C      1  0.5120460000000  0.5836880000000  0.4380660000000 1.0
C      1  0.5221490000000  0.5080730000000  0.6139480000000 1.0
C      1  0.5284650000000  0.4820930000000  0.4730510000000 1.0
C      1  0.3847910000000  0.5103090000000  0.4760590000000 1.0
C      1  0.4972940000000  0.4363730000000  0.4683150000000 1.0
C      1  0.5271040000000  0.4061680000000  0.5527150000000 1.0
C      1  0.5039230000000  0.5069830000000  0.4359590000000 1.0
C      1  0.6008900000000  0.4462000000000  0.4872210000000 1.0
C      1  0.4491500000000  0.6019160000000  0.4926560000000 1.0
C      1  0.5488340000000  0.5107200000000  0.4014330000000 1.0
C      1  0.3919060000000  0.5231990000000  0.5019530000000 1.0
C      1  0.4636980000000  0.5388790000000  0.5596390000000 1.0
C      1  0.4571160000000  0.6032940000000  0.5211590000000 1.0
C      1  0.4235180000000  0.5475110000000  0.4429620000000 1.0
C      1  0.5665350000000  0.5213770000000  0.4239900000000 1.0
C      1  0.4711390000000  0.5096280000000  0.3961550000000 1.0
C      1  0.5450980000000  0.4977160000000  0.5222300000000 1.0
C      1  0.4116280000000  0.4873030000000  0.4394300000000 1.0
C      1  0.4687580000000  0.5483960000000  0.4785260000000 1.0
C      1  0.4744340000000  0.5423990000000  0.5310990000000 1.0
C      1  0.4963010000000  0.6117540000000  0.4767330000000 1.0
C      1  0.4860550000000  0.4112540000000  0.5250570000000 1.0
C      1  0.4416960000000  0.5403050000000  0.4880320000000 1.0
C      1  0.5462330000000  0.4382960000000  0.5019680000000 1.0
C      1  0.5696910000000  0.4160180000000  0.5233380000000 1.0
C      1  0.4350660000000  0.4042930000000  0.5301590000000 1.0
C      1  0.4261810000000  0.5273300000000  0.5582180000000 1.0
C      1  0.5173050000000  0.5673580000000  0.5160430000000 1.0
C      1  0.6015710000000  0.4715630000000  0.4706460000000 1.0
C      1  0.5588130000000  0.5718850000000  0.4212050000000 1.0
C      1  0.5381780000000  0.5729260000000  0.4914770000000 1.0
C      1  0.4685050000000  0.4613270000000  0.3990830000000 1.0
C      1  0.4501400000000  0.5329500000000  0.5155730000000 1.0
C      1  0.5675060000000  0.5982410000000  0.5119420000000 1.0
C      1  0.6053020000000  0.4939800000000  0.5530470000000 1.0
C      1  0.4768640000000  0.5001190000000  0.4938980000000 1.0
C      1  0.4187310000000  0.5162170000000  0.4065870000000 1.0
C      1  0.4798910000000  0.4146180000000  0.5741670000000 1.0
C      1  0.6080950000000  0.5074140000000  0.5069160000000 1.0
C      1  0.5504980000000  0.6150280000000  0.4955280000000 1.0
C      1  0.4735580000000  0.4522210000000  0.5447370000000 1.0
C      1  0.5361030000000  0.4314010000000  0.4202390000000 1.0
C      1  0.5401290000000  0.4831210000000  0.4039330000000 1.0
C      1  0.4564400000000  0.4105870000000  0.5118180000000 1.0
C      1  0.5085400000000  0.4356010000000  0.4097270000000 1.0
C      1  0.5536020000000  0.5648670000000  0.5871590000000 1.0
C      1  0.4264800000000  0.5680160000000  0.5289920000000 1.0
C      1  0.5872060000000  0.4767600000000  0.4438290000000 1.0
C      1  0.5108430000000  0.5131780000000  0.5565520000000 1.0
C      1  0.5134280000000  0.4808070000000  0.3930160000000 1.0
C      1  0.6052090000000  0.5192800000000  0.4565810000000 1.0
C      1  0.4200950000000  0.4234220000000  0.4715910000000 1.0
C      1  0.4370850000000  0.5702150000000  0.4562690000000 1.0
C      1  0.5388530000000  0.4047820000000  0.4340610000000 1.0
C      1  0.4383200000000  0.5296290000000  0.4237330000000 1.0
C      1  0.4893870000000  0.4734890000000  0.6092230000000 1.0
C      1  0.4613930000000  0.3927080000000  0.4877220000000 1.0
C      1  0.3833570000000  0.4815760000000  0.4829100000000 1.0
C      1  0.6007990000000  0.5653570000000  0.4833720000000 1.0
C      1  0.6034630000000  0.4996970000000  0.4793440000000 1.0
C      1  0.4948710000000  0.4757650000000  0.4367610000000 1.0
C      1  0.4590660000000  0.4952180000000  0.5376870000000 1.0
C      1  0.5053190000000  0.5588520000000  0.5869990000000 1.0
C      1  0.4465820000000  0.4456650000000  0.4379020000000 1.0
C      1  0.5659020000000  0.5490300000000  0.5679380000000 1.0
C      1  0.4350320000000  0.5121840000000  0.4709770000000 1.0
C      1  0.4032200000000  0.5019150000000  0.5195560000000 1.0
C      1  0.4851540000000  0.6133570000000  0.5264950000000 1.0
C      1  0.5572030000000  0.4738350000000  0.4692470000000 1.0
C      1  0.4983650000000  0.4982890000000  0.5127240000000 1.0
C      1  0.4135390000000  0.5702700000000  0.5032240000000 1.0
C      1  0.5451740000000  0.6038220000000  0.4696160000000 1.0
C      1  0.4533940000000  0.5056270000000  0.4454550000000 1.0
C      1  0.4580300000000  0.4327190000000  0.5640830000000 1.0
C      1  0.4690620000000  0.6025900000000  0.4708220000000 1.0
C      1  0.5218520000000  0.5398380000000  0.5230430000000 1.0
C      1  0.4038050000000  0.5470210000000  0.4913920000000 1.0
C      1  0.5672050000000  0.4750420000000  0.5760060000000 1.0
C      1  0.5266150000000  0.3985990000000  0.5033730000000 1.0
C      1  0.4857400000000  0.5702090000000  0.5198270000000 1.0
C      1  0.4846760000000  0.5239780000000  0.4760920000000 1.0
C      1  0.5259790000000  0.4566310000000  0.5515670000000 1.0
C      1  0.4620310000000  0.5360140000000  0.4055550000000 1.0
C      1  0.4784000000000  0.4476480000000  0.4899080000000 1.0
C      1  0.4265760000000  0.5716210000000  0.5728330000000 1.0
C      1  0.5370700000000  0.5023850000000  0.5518580000000 1.0
C      1  0.4799800000000  0.5178370000000  0.4486350000000 1.0
C      1  0.5339270000000  0.3912550000000  0.4764960000000 1.0
C      1  0.4727940000000  0.4981520000000  0.6101650000000 1.0
C      1  0.5725190000000  0.5488500000000  0.4173870000000 1.0
C      1  0.5732480000000  0.4536130000000  0.4288570000000 1.0
C      1  0.4969430000000  0.4663090000000  0.5585100000000 1.0
C      1  0.5948140000000  0.4327580000000  0.5134980000000 1.0
C      1  0.4531760000000  0.5051990000000  0.5111480000000 1.0
C      1  0.4253230000000  0.4890760000000  0.4122890000000 1.0
C      1  0.4603550000000  0.4371630000000  0.4138670000000 1.0
C      1  0.4664780000000  0.4122610000000  0.4657420000000 1.0
C      1  0.4713780000000  0.4746880000000  0.4790770000000 1.0
C      1  0.4549710000000  0.4863760000000  0.4056930000000 1.0
C      1  0.5590690000000  0.4265980000000  0.4692150000000 1.0
C      1  0.5367160000000  0.5268250000000  0.5029820000000 1.0
C      1  0.4923190000000  0.4417810000000  0.5175270000000 1.0
C      1  0.5057230000000  0.5535370000000  0.3910420000000 1.0
C      1  0.5764090000000  0.5239890000000  0.5743230000000 1.0
C      1  0.4835110000000  0.5556310000000  0.4095770000000 1.0
C      1  0.5174480000000  0.4002360000000  0.4535090000000 1.0
C      1  0.4509740000000  0.4488770000000  0.5883360000000 1.0
C      1  0.4076320000000  0.4697580000000  0.4704920000000 1.0
C      1  0.5889450000000  0.5855540000000  0.4978930000000 1.0
C      1  0.5930960000000  0.5468900000000  0.4628090000000 1.0
C      1  0.5533320000000  0.4491450000000  0.4511540000000 1.0
C      1  0.5572060000000  0.4597380000000  0.4054590000000 1.0
C      1  0.4975870000000  0.4072320000000  0.5523200000000 1.0
C      1  0.4669730000000  0.5072470000000  0.5647510000000 1.0
C      1  0.4998390000000  0.5226230000000  0.5307250000000 1.0
C      1  0.5148950000000  0.5300150000000  0.4790120000000 1.0
C      1  0.4519210000000  0.4375570000000  0.4987900000000 1.0
C      1  0.5923880000000  0.4359980000000  0.5616490000000 1.0
C      1  0.5288450000000  0.5890980000000  0.5520690000000 1.0
C      1  0.4855990000000  0.5708070000000  0.4879170000000 1.0
C      1  0.5668010000000  0.5377070000000  0.4694490000000 1.0
C      1  0.5917170000000  0.5053270000000  0.4326540000000 1.0
C      1  0.5664190000000  0.4614270000000  0.4953560000000 1.0
C      1  0.4909340000000  0.4238980000000  0.5984770000000 1.0
C      1  0.5289880000000  0.5726680000000  0.5762940000000 1.0
C      1  0.5575770000000  0.5476850000000  0.4953500000000 1.0
C      1  0.4121740000000  0.4457420000000  0.5452710000000 1.0
C      1  0.4498720000000  0.5004140000000  0.5898580000000 1.0
C      1  0.4759110000000  0.4475020000000  0.6039780000000 1.0
C      1  0.4763900000000  0.5592000000000  0.5799830000000 1.0
C      1  0.5403910000000  0.4108020000000  0.5765630000000 1.0
C      1  0.4852470000000  0.4200540000000  0.4186200000000 1.0
C      1  0.4612390000000  0.5584220000000  0.6040450000000 1.0
C      1  0.4350860000000  0.5536420000000  0.5947710000000 1.0
C      1  0.3909590000000  0.4771870000000  0.5115400000000 1.0
C      1  0.5325120000000  0.5650210000000  0.4281780000000 1.0
C      1  0.4844570000000  0.3773080000000  0.4905170000000 1.0
C      1  0.4243110000000  0.4732630000000  0.5560190000000 1.0
C      1  0.5181600000000  0.6025160000000  0.4597530000000 1.0
C      1  0.4656750000000  0.4754880000000  0.4493480000000 1.0
C      1  0.4296450000000  0.4844130000000  0.4890190000000 1.0
C      1  0.4081800000000  0.5145760000000  0.4551490000000 1.0
C      1  0.5694430000000  0.4775540000000  0.5210240000000 1.0
C      1  0.4319990000000  0.4236320000000  0.5502110000000 1.0
C      1  0.4361710000000  0.4739850000000  0.5837040000000 1.0
C      1  0.4398780000000  0.5900990000000  0.5414790000000 1.0
C      1  0.4968470000000  0.4628420000000  0.4083970000000 1.0
C      1  0.5214710000000  0.5365870000000  0.4220290000000 1.0
C      1  0.4304030000000  0.5248010000000  0.5875180000000 1.0
C      1  0.5116840000000  0.4611410000000  0.4568000000000 1.0
C      1  0.5709870000000  0.5620490000000  0.5424460000000 1.0
C      1  0.4621680000000  0.5843300000000  0.4478810000000 1.0
C      1  0.4364810000000  0.4604510000000  0.5102850000000 1.0
C      1  0.5615420000000  0.4025890000000  0.4532000000000 1.0
C      1  0.5519000000000  0.5222040000000  0.4500450000000 1.0
C      1  0.4124680000000  0.5017460000000  0.5472940000000 1.0
C      1  0.4035740000000  0.4419010000000  0.4832420000000 1.0
C      1  0.5257190000000  0.5103020000000  0.4582610000000 1.0
C      1  0.5285570000000  0.6263900000000  0.5085770000000 1.0
C      1  0.5000610000000  0.3912310000000  0.5091230000000 1.0
C      1  0.5549400000000  0.4297440000000  0.5886730000000 1.0
C      1  0.4947680000000  0.4941180000000  0.5718430000000 1.0
C      1  0.4416490000000  0.4226080000000  0.4542290000000 1.0
C      1  0.5424820000000  0.4029190000000  0.5274150000000 1.0
C      1  0.5223110000000  0.4538100000000  0.5190400000000 1.0
C      1  0.5383130000000  0.4792490000000  0.5705420000000 1.0
C      1  0.5083290000000  0.5438920000000  0.6112100000000 1.0
C      1  0.5137730000000  0.5616430000000  0.4759450000000 1.0
C      1  0.4490050000000  0.4693890000000  0.5373860000000 1.0
C      1  0.5226610000000  0.4827150000000  0.5065110000000 1.0
C      1  0.4297230000000  0.5825960000000  0.4828060000000 1.0
C      1  0.4071030000000  0.4514260000000  0.5141580000000 1.0
C      1  0.4949080000000  0.5180040000000  0.6092600000000 1.0
C      1  0.5862640000000  0.4977710000000  0.5729750000000 1.0
C      1  0.4151310000000  0.5545370000000  0.5519060000000 1.0
C      1  0.5979850000000  0.4885480000000  0.5263620000000 1.0
C      1  0.5191160000000  0.4822290000000  0.5998390000000 1.0
C      1  0.4887090000000  0.4062030000000  0.4450500000000 1.0
C      1  0.5005060000000  0.5063920000000  0.3916910000000 1.0
END
