TITL C-951342-2639-129 -2.51473506844114e-06 125000 -472.735876378027 0 0 77 (C1) n - 1
REM
REM in /home/bkarasulu/work/CARBON/AIRSS/Generating-Clusters/EDIP-Nigel-Params/with-SteepDescent/Only-C1/SD-CG/HFTN-CG
REM
REM
REM
REM
REM
REM ./C.cell (11c1c37f851c82e70ff6c80c92926a4b)
REM
REM compiler GCC version 9.2.1 20190827 (Red Hat 9.2.1-1)
REM options -cpp -mtune=generic -march=x86-64 -g -O0 -fpre-include=/usr/include/finclude/math-vector-fortran.h
REM seed 848573800 4140614 1949285651 593393134 -1797487890 -51581291 -223752961 2107067996 -587694819 -1585419881 -1756493544 1486578001 738580815 1722028902 65878610 -255654779 -1164961351 -693906093 920891725 -1937936149 1028319466 -1468170985 -953636082 -1878003265 787171496 1669300781 -1204275227 1860052750 -1891864475 32350082 878642989 -215524437 -702356975
REM
CELL 1.54180   50.00000   50.00000   50.00000   90.00000   90.00000   90.00000
LATT -1
SFAC C  
C      1  0.5391650000000  0.4390240000000  0.4508930000000 1.0
C      1  0.5667290000000  0.4874660000000  0.4639740000000 1.0
C      1  0.4858700000000  0.5323060000000  0.4294700000000 1.0
C      1  0.4399520000000  0.4414850000000  0.4698280000000 1.0
C      1  0.5744310000000  0.4676820000000  0.5366300000000 1.0
C      1  0.4697760000000  0.5322490000000  0.5112280000000 1.0
C      1  0.4229980000000  0.5059530000000  0.5143130000000 1.0
C      1  0.4147710000000  0.5091210000000  0.4853670000000 1.0
C      1  0.4497080000000  0.4619330000000  0.5270800000000 1.0
C      1  0.5127000000000  0.5181100000000  0.4340640000000 1.0
C      1  0.5118600000000  0.4417190000000  0.4455520000000 1.0
C      1  0.5139580000000  0.5563130000000  0.5394760000000 1.0
C      1  0.5694280000000  0.4630080000000  0.4818740000000 1.0
C      1  0.5743990000000  0.5314150000000  0.4902320000000 1.0
C      1  0.4467250000000  0.5420720000000  0.4577460000000 1.0
C      1  0.4243520000000  0.5313890000000  0.5266510000000 1.0
C      1  0.4965480000000  0.4333940000000  0.5406370000000 1.0
C      1  0.4731240000000  0.5433560000000  0.5608270000000 1.0
C      1  0.5544210000000  0.4806180000000  0.5534010000000 1.0
C      1  0.5486490000000  0.4846070000000  0.4423640000000 1.0
C      1  0.4999390000000  0.4956210000000  0.5199120000000 1.0
C      1  0.5234970000000  0.4734180000000  0.4869480000000 1.0
C      1  0.4276550000000  0.4870010000000  0.4693940000000 1.0
C      1  0.4646900000000  0.4621370000000  0.5506410000000 1.0
C      1  0.5217250000000  0.5403360000000  0.4983630000000 1.0
C      1  0.4661310000000  0.5611580000000  0.5370790000000 1.0
C      1  0.5295290000000  0.4762600000000  0.5174060000000 1.0
C      1  0.5292350000000  0.5211520000000  0.4750260000000 1.0
C      1  0.4537880000000  0.4884280000000  0.4825360000000 1.0
C      1  0.4726910000000  0.5560490000000  0.4672140000000 1.0
C      1  0.4446390000000  0.5485390000000  0.5178010000000 1.0
C      1  0.5562670000000  0.5081610000000  0.4831730000000 1.0
C      1  0.5413570000000  0.4494580000000  0.4780940000000 1.0
C      1  0.5218160000000  0.4899110000000  0.4350590000000 1.0
C      1  0.5173790000000  0.5632870000000  0.4497820000000 1.0
C      1  0.5256180000000  0.5303850000000  0.5282100000000 1.0
C      1  0.4705310000000  0.5820210000000  0.4808580000000 1.0
C      1  0.5322680000000  0.4285120000000  0.4978570000000 1.0
C      1  0.4922910000000  0.5679240000000  0.5232040000000 1.0
C      1  0.4744360000000  0.4711830000000  0.4422470000000 1.0
C      1  0.4254210000000  0.5332700000000  0.4744410000000 1.0
C      1  0.5391560000000  0.5646180000000  0.4952320000000 1.0
C      1  0.5033540000000  0.5424530000000  0.5640370000000 1.0
C      1  0.5083940000000  0.4826800000000  0.5738830000000 1.0
C      1  0.4394690000000  0.4255160000000  0.4925970000000 1.0
C      1  0.4918360000000  0.4312040000000  0.4647270000000 1.0
C      1  0.5294150000000  0.4663090000000  0.5604240000000 1.0
C      1  0.4937720000000  0.5082220000000  0.4724660000000 1.0
C      1  0.4721360000000  0.5068430000000  0.5267250000000 1.0
C      1  0.5550170000000  0.4934180000000  0.5109610000000 1.0
C      1  0.4693340000000  0.4973270000000  0.4572560000000 1.0
C      1  0.5549260000000  0.5284990000000  0.5371350000000 1.0
C      1  0.4666630000000  0.5150860000000  0.5560350000000 1.0
C      1  0.5197090000000  0.5809420000000  0.4811070000000 1.0
C      1  0.4730370000000  0.4984150000000  0.5782480000000 1.0
C      1  0.5308250000000  0.5366490000000  0.4485190000000 1.0
C      1  0.4942540000000  0.5814880000000  0.4965310000000 1.0
C      1  0.4597340000000  0.5208880000000  0.4405500000000 1.0
C      1  0.4839270000000  0.4267440000000  0.5163120000000 1.0
C      1  0.4971920000000  0.4868460000000  0.4916910000000 1.0
C      1  0.4188990000000  0.4602690000000  0.4680420000000 1.0
C      1  0.4492340000000  0.4898830000000  0.5135940000000 1.0
C      1  0.4891970000000  0.5590380000000  0.4423560000000 1.0
C      1  0.4574180000000  0.4385260000000  0.5104900000000 1.0
C      1  0.5765860000000  0.5265580000000  0.5184590000000 1.0
C      1  0.5399430000000  0.4392970000000  0.5235130000000 1.0
C      1  0.5823640000000  0.4672320000000  0.5089430000000 1.0
C      1  0.5023160000000  0.4249600000000  0.4929280000000 1.0
C      1  0.5552290000000  0.5102360000000  0.5607850000000 1.0
C      1  0.5639210000000  0.5570190000000  0.4843280000000 1.0
C      1  0.5322950000000  0.5188980000000  0.5767520000000 1.0
C      1  0.5027580000000  0.4674890000000  0.4346560000000 1.0
C      1  0.4788680000000  0.4708760000000  0.5730250000000 1.0
C      1  0.5224850000000  0.4427830000000  0.5451530000000 1.0
C      1  0.4673840000000  0.4478810000000  0.4599500000000 1.0
C      1  0.4878300000000  0.5362490000000  0.4867480000000 1.0
C      1  0.5106540000000  0.5112340000000  0.5589890000000 1.0
END
