TITL C-950526-5686-119 1.03943314260267e-07 125000 -107.282658555926 0 0 20 (C1) n - 1
REM
REM in /home/bkarasulu/work/CARBON/AIRSS/Generating-Clusters/EDIP-Nigel-Params/with-SteepDescent/Only-C1/SD-CG/HFTN-CG
REM
REM
REM
REM
REM
REM ./C.cell (11c1c37f851c82e70ff6c80c92926a4b)
REM
REM compiler GCC version 9.2.1 20190827 (Red Hat 9.2.1-1)
REM options -cpp -mtune=generic -march=x86-64 -g -O0 -fpre-include=/usr/include/finclude/math-vector-fortran.h
REM seed -661243970 -2087772803 134405927 -400249884 -77027382 -1438535345 1788959297 -2094602200 2048218956 1528580191 -1399022774 1346974113 595646493 502732809 -1549607964 1006105413 137915127 -1682984028 -1038745073 1128084013 -2121527689 -506829007 591923971 1752507949 988443690 -1706056479 521793984 224285873 1394714152 1920685686 1118588977 1194251797 -239669665
REM
CELL 1.54180   50.00000   50.00000   50.00000   90.00000   90.00000   90.00000
LATT -1
SFAC C  
C      1  0.4436250000000  0.5124210000000  0.4715430000000 1.0
C      1  0.4995850000000  0.5030220000000  0.5366200000000 1.0
C      1  0.4688670000000  0.4730640000000  0.5036290000000 1.0
C      1  0.4715640000000  0.5142770000000  0.4762930000000 1.0
C      1  0.4882070000000  0.4768200000000  0.5792370000000 1.0
C      1  0.4547550000000  0.4529270000000  0.4894030000000 1.0
C      1  0.5224610000000  0.4758040000000  0.4526760000000 1.0
C      1  0.5276820000000  0.5489650000000  0.5205910000000 1.0
C      1  0.5034190000000  0.4814780000000  0.5579240000000 1.0
C      1  0.5447380000000  0.5253770000000  0.4812990000000 1.0
C      1  0.5451480000000  0.4891330000000  0.4486350000000 1.0
C      1  0.4749620000000  0.4453660000000  0.5054170000000 1.0
C      1  0.5195620000000  0.5052100000000  0.5571520000000 1.0
C      1  0.4521860000000  0.5290510000000  0.4908220000000 1.0
C      1  0.5070640000000  0.5038490000000  0.5086560000000 1.0
C      1  0.5014150000000  0.4780070000000  0.4688310000000 1.0
C      1  0.4871640000000  0.4921280000000  0.4892320000000 1.0
C      1  0.5099780000000  0.5544310000000  0.5006870000000 1.0
C      1  0.5542940000000  0.5107070000000  0.4612910000000 1.0
C      1  0.5233260000000  0.5279610000000  0.5000630000000 1.0
END
