TITL C-950530-3293-197 8.89920817931193e-07 125000 -239.56017639853 0 0 40 (C1) n - 1
REM
REM in /home/bkarasulu/work/CARBON/AIRSS/Generating-Clusters/EDIP-Nigel-Params/with-SteepDescent/Only-C1/SD-CG/HFTN-CG
REM
REM
REM
REM
REM
REM ./C.cell (11c1c37f851c82e70ff6c80c92926a4b)
REM
REM compiler GCC version 9.2.1 20190827 (Red Hat 9.2.1-1)
REM options -cpp -mtune=generic -march=x86-64 -g -O0 -fpre-include=/usr/include/finclude/math-vector-fortran.h
REM seed 373629737 -2058983072 -355697615 -1202639541 727677229 -308417419 -310175932 -1467852068 -942132824 -1538741250 181364051 2144527925 -1394669098 -825073094 1796917332 -712787655 -1955539927 715381607 -1822639286 -127277238 62885048 -306777095 -1154282518 309533448 461639683 -891434369 1511396515 671372303 -1491091372 1924049214 1146250241 -1802944084 1360415732
REM
CELL 1.54180   50.00000   50.00000   50.00000   90.00000   90.00000   90.00000
LATT -1
SFAC C  
C      1  0.4630000000000  0.4486490000000  0.4968440000000 1.0
C      1  0.5449620000000  0.5426140000000  0.4805120000000 1.0
C      1  0.5201150000000  0.4905450000000  0.4387820000000 1.0
C      1  0.5187370000000  0.4641130000000  0.4497740000000 1.0
C      1  0.4829180000000  0.5476980000000  0.5273130000000 1.0
C      1  0.5376220000000  0.5044350000000  0.4803770000000 1.0
C      1  0.4522580000000  0.4866520000000  0.4481910000000 1.0
C      1  0.4693400000000  0.4844220000000  0.5633900000000 1.0
C      1  0.5464760000000  0.4628450000000  0.5025330000000 1.0
C      1  0.4504160000000  0.5249700000000  0.4433810000000 1.0
C      1  0.4738520000000  0.4526030000000  0.5222490000000 1.0
C      1  0.4939610000000  0.5470860000000  0.4770180000000 1.0
C      1  0.4889760000000  0.4633710000000  0.5683630000000 1.0
C      1  0.4789250000000  0.4563200000000  0.4763840000000 1.0
C      1  0.5062110000000  0.4655240000000  0.4762210000000 1.0
C      1  0.5410100000000  0.5189170000000  0.5236740000000 1.0
C      1  0.4708150000000  0.5052780000000  0.4343250000000 1.0
C      1  0.5428660000000  0.5064950000000  0.4493570000000 1.0
C      1  0.5308320000000  0.5397950000000  0.5056550000000 1.0
C      1  0.5201450000000  0.4540600000000  0.5000520000000 1.0
C      1  0.4798360000000  0.5110010000000  0.5541810000000 1.0
C      1  0.4586810000000  0.4651720000000  0.5434380000000 1.0
C      1  0.4657790000000  0.5058450000000  0.5097100000000 1.0
C      1  0.4973680000000  0.5092680000000  0.4469870000000 1.0
C      1  0.5116510000000  0.4620810000000  0.5502550000000 1.0
C      1  0.5021600000000  0.4579570000000  0.5231060000000 1.0
C      1  0.4379710000000  0.5075040000000  0.4639000000000 1.0
C      1  0.5352100000000  0.5371750000000  0.4528150000000 1.0
C      1  0.5050480000000  0.5376100000000  0.4527810000000 1.0
C      1  0.5287380000000  0.4839210000000  0.5530810000000 1.0
C      1  0.5008920000000  0.5379980000000  0.5036750000000 1.0
C      1  0.4473970000000  0.5109830000000  0.4895400000000 1.0
C      1  0.5080890000000  0.4953200000000  0.4816600000000 1.0
C      1  0.5648190000000  0.5048240000000  0.5170190000000 1.0
C      1  0.5568600000000  0.4879160000000  0.4961250000000 1.0
C      1  0.4967860000000  0.5076700000000  0.5069000000000 1.0
C      1  0.4907590000000  0.5317300000000  0.5704810000000 1.0
C      1  0.5189600000000  0.5030220000000  0.5344850000000 1.0
C      1  0.4947880000000  0.5525930000000  0.5527140000000 1.0
C      1  0.4647690000000  0.5240200000000  0.5327500000000 1.0
END
