TITL C-950529-3362-414 -2.91752511342016e-07 125000 -364.102875347976 0 0 60 (C1) n - 1
REM
REM in /home/bkarasulu/work/CARBON/AIRSS/Generating-Clusters/EDIP-Nigel-Params/with-SteepDescent/Only-C1/SD-CG/HFTN-CG
REM
REM
REM
REM
REM
REM ./C.cell (11c1c37f851c82e70ff6c80c92926a4b)
REM
REM compiler GCC version 9.2.1 20190827 (Red Hat 9.2.1-1)
REM options -cpp -mtune=generic -march=x86-64 -g -O0 -fpre-include=/usr/include/finclude/math-vector-fortran.h
REM seed -60791326 -1103790048 1169738072 465363100 -524678173 260021433 158462826 -2055288440 1068839016 500690435 -887490698 -450488461 129268647 1565885771 -831870673 569450544 -308891093 329633832 -934950825 -1406621947 -708619408 -595968986 -190279343 1249350723 2003677140 -969337598 879908264 1819309147 -1417647400 408474178 -251664944 -634211051 1437295041
REM
CELL 1.54180   50.00000   50.00000   50.00000   90.00000   90.00000   90.00000
LATT -1
SFAC C  
C      1  0.5342770000000  0.5134080000000  0.4320330000000 1.0
C      1  0.5386950000000  0.4983340000000  0.4903260000000 1.0
C      1  0.5229280000000  0.5677230000000  0.4699970000000 1.0
C      1  0.4861430000000  0.4390230000000  0.4587280000000 1.0
C      1  0.4647610000000  0.5304940000000  0.4347720000000 1.0
C      1  0.5427880000000  0.4444820000000  0.4930360000000 1.0
C      1  0.4371810000000  0.5119660000000  0.4961470000000 1.0
C      1  0.5264470000000  0.4308460000000  0.4745500000000 1.0
C      1  0.4490780000000  0.5538340000000  0.4871330000000 1.0
C      1  0.4705720000000  0.5525800000000  0.5044310000000 1.0
C      1  0.4604310000000  0.4733180000000  0.4374550000000 1.0
C      1  0.4907840000000  0.4026010000000  0.4899410000000 1.0
C      1  0.5521920000000  0.4711180000000  0.4895680000000 1.0
C      1  0.4600790000000  0.5196150000000  0.5681230000000 1.0
C      1  0.5692370000000  0.4811630000000  0.5335910000000 1.0
C      1  0.4678640000000  0.4613170000000  0.4618630000000 1.0
C      1  0.5701120000000  0.4653720000000  0.5111410000000 1.0
C      1  0.5688260000000  0.5231780000000  0.4579770000000 1.0
C      1  0.5356770000000  0.5570570000000  0.5177590000000 1.0
C      1  0.4322780000000  0.5169840000000  0.5651000000000 1.0
C      1  0.4474430000000  0.5197510000000  0.4537180000000 1.0
C      1  0.4759780000000  0.5371990000000  0.5508380000000 1.0
C      1  0.5521010000000  0.5022930000000  0.5386860000000 1.0
C      1  0.4276310000000  0.5026240000000  0.5429830000000 1.0
C      1  0.5012870000000  0.5041440000000  0.5858910000000 1.0
C      1  0.5327010000000  0.4865630000000  0.4241070000000 1.0
C      1  0.4918170000000  0.4531410000000  0.5644770000000 1.0
C      1  0.5627340000000  0.5518450000000  0.5222770000000 1.0
C      1  0.4844490000000  0.4860680000000  0.4291110000000 1.0
C      1  0.4844840000000  0.4884940000000  0.5123530000000 1.0
C      1  0.4571350000000  0.5014000000000  0.4763570000000 1.0
C      1  0.5085350000000  0.4844610000000  0.5268670000000 1.0
C      1  0.5121310000000  0.4637430000000  0.5465150000000 1.0
C      1  0.4518530000000  0.4643530000000  0.4855340000000 1.0
C      1  0.5101570000000  0.4455410000000  0.4433690000000 1.0
C      1  0.5590650000000  0.5258220000000  0.4333300000000 1.0
C      1  0.4824910000000  0.4391710000000  0.5408650000000 1.0
C      1  0.4745830000000  0.4972790000000  0.5804780000000 1.0
C      1  0.5068260000000  0.5451110000000  0.4697170000000 1.0
C      1  0.5441880000000  0.5095210000000  0.5643180000000 1.0
C      1  0.5045630000000  0.5338600000000  0.5484640000000 1.0
C      1  0.4873500000000  0.5144090000000  0.4349320000000 1.0
C      1  0.5709130000000  0.5342190000000  0.5036200000000 1.0
C      1  0.5118070000000  0.5201760000000  0.4514870000000 1.0
C      1  0.4692840000000  0.4712660000000  0.5682590000000 1.0
C      1  0.4580920000000  0.4741170000000  0.5137550000000 1.0
C      1  0.5182520000000  0.5186830000000  0.5693390000000 1.0
C      1  0.4333630000000  0.5394550000000  0.4696120000000 1.0
C      1  0.5600940000000  0.5186500000000  0.4835500000000 1.0
C      1  0.4365310000000  0.4942880000000  0.5182470000000 1.0
C      1  0.5098070000000  0.4713560000000  0.4300540000000 1.0
C      1  0.5126170000000  0.4993730000000  0.4734030000000 1.0
C      1  0.5165530000000  0.5340140000000  0.5206870000000 1.0
C      1  0.4985920000000  0.4265910000000  0.4818230000000 1.0
C      1  0.4868220000000  0.5063540000000  0.4890690000000 1.0
C      1  0.4583710000000  0.4541890000000  0.5357390000000 1.0
C      1  0.4644490000000  0.5530110000000  0.5313540000000 1.0
C      1  0.5297000000000  0.5045820000000  0.5193040000000 1.0
C      1  0.4944160000000  0.5360070000000  0.4965300000000 1.0
C      1  0.5304850000000  0.5724600000000  0.4953130000000 1.0
END
