TITL C-950532-2784-670 5.04708950530111e-07 125000 -641.760309193356 0 0 104 (C1) n - 1
REM
REM in /home/bkarasulu/work/CARBON/AIRSS/Generating-Clusters/EDIP-Nigel-Params/with-SteepDescent/Only-C1/SD-CG/HFTN-CG
REM
REM
REM
REM
REM
REM ./C.cell (11c1c37f851c82e70ff6c80c92926a4b)
REM
REM compiler GCC version 9.2.1 20190827 (Red Hat 9.2.1-1)
REM options -cpp -mtune=generic -march=x86-64 -g -O0 -fpre-include=/usr/include/finclude/math-vector-fortran.h
REM seed 982473750 980561982 1536699138 1898160804 -274643602 -1903832753 790082988 230225592 -290122470 567594313 790220681 1456464986 -1712938458 1974564446 -1321815761 148164394 561161794 -1867120706 624811328 -1437937083 1119300408 -501832511 2107917691 1161757363 -1381222918 -82624091 -874006425 839793592 1303453981 -2098467321 9903990 -1882489770 844932767
REM
CELL 1.54180   50.00000   50.00000   50.00000   90.00000   90.00000   90.00000
LATT -1
SFAC C  
C      1  0.4380570000000  0.5309560000000  0.5701050000000 1.0
C      1  0.5363930000000  0.4761760000000  0.4790440000000 1.0
C      1  0.4162300000000  0.4862710000000  0.4597910000000 1.0
C      1  0.4926350000000  0.5200970000000  0.4643110000000 1.0
C      1  0.5605490000000  0.4528750000000  0.4503300000000 1.0
C      1  0.5641760000000  0.4861800000000  0.4839800000000 1.0
C      1  0.4947820000000  0.4929870000000  0.4260720000000 1.0
C      1  0.5050810000000  0.5005230000000  0.5402820000000 1.0
C      1  0.5016790000000  0.5628000000000  0.5245670000000 1.0
C      1  0.4464650000000  0.4691170000000  0.5465040000000 1.0
C      1  0.5357520000000  0.5811120000000  0.4612250000000 1.0
C      1  0.4928890000000  0.4780220000000  0.5036770000000 1.0
C      1  0.5911410000000  0.4994520000000  0.5457660000000 1.0
C      1  0.4339530000000  0.5000210000000  0.4407360000000 1.0
C      1  0.5299640000000  0.4963910000000  0.5831350000000 1.0
C      1  0.4654740000000  0.4833780000000  0.4275400000000 1.0
C      1  0.5517540000000  0.4807920000000  0.5706450000000 1.0
C      1  0.5295870000000  0.5263880000000  0.4290740000000 1.0
C      1  0.4921140000000  0.5687620000000  0.4771240000000 1.0
C      1  0.5280140000000  0.4487880000000  0.5297590000000 1.0
C      1  0.5078200000000  0.4897670000000  0.4559380000000 1.0
C      1  0.4314470000000  0.5537130000000  0.5536880000000 1.0
C      1  0.4534620000000  0.4447200000000  0.5334450000000 1.0
C      1  0.4834710000000  0.5494480000000  0.5677720000000 1.0
C      1  0.4761720000000  0.4975980000000  0.5843260000000 1.0
C      1  0.5016360000000  0.4512920000000  0.5126090000000 1.0
C      1  0.4164770000000  0.5084070000000  0.5483200000000 1.0
C      1  0.5009320000000  0.5356730000000  0.5097290000000 1.0
C      1  0.5508130000000  0.5481510000000  0.4281890000000 1.0
C      1  0.4267860000000  0.5523330000000  0.4892090000000 1.0
C      1  0.4772870000000  0.4329600000000  0.5447340000000 1.0
C      1  0.4493660000000  0.5641300000000  0.5341100000000 1.0
C      1  0.5441250000000  0.4987420000000  0.4322070000000 1.0
C      1  0.5930280000000  0.4935440000000  0.5170880000000 1.0
C      1  0.5784940000000  0.4634340000000  0.4715750000000 1.0
C      1  0.5205760000000  0.4919820000000  0.4995460000000 1.0
C      1  0.4230300000000  0.4548410000000  0.4958650000000 1.0
C      1  0.4800070000000  0.4498270000000  0.5689250000000 1.0
C      1  0.5658770000000  0.5118970000000  0.4687310000000 1.0
C      1  0.5704860000000  0.5549240000000  0.4788350000000 1.0
C      1  0.5241960000000  0.4483960000000  0.5586040000000 1.0
C      1  0.4902470000000  0.4266900000000  0.4661570000000 1.0
C      1  0.4136590000000  0.5296150000000  0.5027270000000 1.0
C      1  0.5408340000000  0.4689700000000  0.4357670000000 1.0
C      1  0.4401090000000  0.5459740000000  0.4637870000000 1.0
C      1  0.5412320000000  0.4225450000000  0.5205610000000 1.0
C      1  0.4574700000000  0.5646110000000  0.4493940000000 1.0
C      1  0.4594700000000  0.4826060000000  0.4677840000000 1.0
C      1  0.4660690000000  0.4545260000000  0.4342700000000 1.0
C      1  0.4304210000000  0.5250420000000  0.5278320000000 1.0
C      1  0.5801820000000  0.4471100000000  0.4973230000000 1.0
C      1  0.4466920000000  0.4429650000000  0.4537810000000 1.0
C      1  0.5695630000000  0.5070420000000  0.4401640000000 1.0
C      1  0.5522550000000  0.5637500000000  0.5021920000000 1.0
C      1  0.5342300000000  0.5845500000000  0.4918500000000 1.0
C      1  0.5147830000000  0.4092170000000  0.5130410000000 1.0
C      1  0.4877820000000  0.4769960000000  0.4739500000000 1.0
C      1  0.5584720000000  0.5641660000000  0.4513780000000 1.0
C      1  0.5983120000000  0.5163390000000  0.5013950000000 1.0
C      1  0.4302470000000  0.5274410000000  0.4452690000000 1.0
C      1  0.5363100000000  0.4430660000000  0.4786030000000 1.0
C      1  0.5481220000000  0.5518100000000  0.5291220000000 1.0
C      1  0.4428170000000  0.4376740000000  0.5081200000000 1.0
C      1  0.5239380000000  0.5598450000000  0.5437290000000 1.0
C      1  0.5786420000000  0.5238600000000  0.5504750000000 1.0
C      1  0.5380380000000  0.4977260000000  0.5394340000000 1.0
C      1  0.4625110000000  0.4735490000000  0.5709000000000 1.0
C      1  0.4772120000000  0.5643810000000  0.5425440000000 1.0
C      1  0.4398370000000  0.5688220000000  0.5080460000000 1.0
C      1  0.5454580000000  0.4727160000000  0.5218560000000 1.0
C      1  0.4147840000000  0.4796770000000  0.5086870000000 1.0
C      1  0.5565690000000  0.4289630000000  0.4957500000000 1.0
C      1  0.5878440000000  0.5288510000000  0.4790260000000 1.0
C      1  0.4614380000000  0.4234100000000  0.4705300000000 1.0
C      1  0.5063730000000  0.4537430000000  0.5797440000000 1.0
C      1  0.4857450000000  0.5163650000000  0.5248050000000 1.0
C      1  0.5094190000000  0.4313840000000  0.4900610000000 1.0
C      1  0.4510910000000  0.4143750000000  0.4950600000000 1.0
C      1  0.4568570000000  0.5087370000000  0.5177040000000 1.0
C      1  0.5129230000000  0.5439090000000  0.5676280000000 1.0
C      1  0.5776510000000  0.4768820000000  0.5580840000000 1.0
C      1  0.5758620000000  0.4666140000000  0.5213960000000 1.0
C      1  0.4470870000000  0.5073600000000  0.4841950000000 1.0
C      1  0.5286310000000  0.5215300000000  0.5039810000000 1.0
C      1  0.5165850000000  0.4554190000000  0.4313270000000 1.0
C      1  0.5055490000000  0.5823720000000  0.5011300000000 1.0
C      1  0.4748180000000  0.5500190000000  0.4297850000000 1.0
C      1  0.4709980000000  0.5234000000000  0.4422650000000 1.0
C      1  0.4994840000000  0.5227300000000  0.4170200000000 1.0
C      1  0.4159290000000  0.5020620000000  0.4876120000000 1.0
C      1  0.4662150000000  0.5256980000000  0.5745660000000 1.0
C      1  0.4586060000000  0.4785430000000  0.5058320000000 1.0
C      1  0.5408450000000  0.5297390000000  0.4771300000000 1.0
C      1  0.4948970000000  0.4131320000000  0.5333740000000 1.0
C      1  0.4222990000000  0.4825500000000  0.5374240000000 1.0
C      1  0.5122000000000  0.5647270000000  0.4556250000000 1.0
C      1  0.4927090000000  0.4453880000000  0.4431320000000 1.0
C      1  0.5189620000000  0.5351200000000  0.4564020000000 1.0
C      1  0.5078740000000  0.4794240000000  0.5942460000000 1.0
C      1  0.5081130000000  0.5126870000000  0.5675740000000 1.0
C      1  0.4855410000000  0.5403550000000  0.4856660000000 1.0
C      1  0.4232510000000  0.4577540000000  0.4664910000000 1.0
C      1  0.4695510000000  0.5835970000000  0.4662190000000 1.0
C      1  0.5562050000000  0.5230220000000  0.5319630000000 1.0
END
