TITL C-951340-9809-168 -6.27790955099133e-07 125000 -377.412040919881 0 0 63 (C1) n - 1
REM
REM in /home/bkarasulu/work/CARBON/AIRSS/Generating-Clusters/EDIP-Nigel-Params/with-SteepDescent/Only-C1/SD-CG/HFTN-CG
REM
REM
REM
REM
REM
REM ./C.cell (11c1c37f851c82e70ff6c80c92926a4b)
REM
REM compiler GCC version 9.2.1 20190827 (Red Hat 9.2.1-1)
REM options -cpp -mtune=generic -march=x86-64 -g -O0 -fpre-include=/usr/include/finclude/math-vector-fortran.h
REM seed 853751742 783888372 -1584886486 173912788 -238779726 -710550989 1812574471 272769181 571858209 488493553 -1680794307 -58353411 -348411425 -409773780 -929063943 1480155982 603368687 -1375768707 -1339667800 752147487 -725745398 -963025787 1107547460 -2111894410 -1763936292 -1648981610 2085086223 -1835143264 -96005813 -128687129 724062085 -1240153889 1699622063
REM
CELL 1.54180   50.00000   50.00000   50.00000   90.00000   90.00000   90.00000
LATT -1
SFAC C  
C      1  0.5395880000000  0.4895660000000  0.4785950000000 1.0
C      1  0.5213530000000  0.4291770000000  0.4864150000000 1.0
C      1  0.4594060000000  0.5740470000000  0.4950770000000 1.0
C      1  0.4796750000000  0.4314950000000  0.4591550000000 1.0
C      1  0.5327590000000  0.4833070000000  0.4500600000000 1.0
C      1  0.4295340000000  0.4954280000000  0.5336400000000 1.0
C      1  0.4690300000000  0.5070360000000  0.4274050000000 1.0
C      1  0.5202030000000  0.5025930000000  0.5208060000000 1.0
C      1  0.5398740000000  0.5256810000000  0.5117770000000 1.0
C      1  0.4688380000000  0.4967250000000  0.5057840000000 1.0
C      1  0.4637660000000  0.4405280000000  0.5246640000000 1.0
C      1  0.5226650000000  0.5063440000000  0.5713330000000 1.0
C      1  0.4849850000000  0.5810360000000  0.4665080000000 1.0
C      1  0.4456080000000  0.5018650000000  0.5558160000000 1.0
C      1  0.4592590000000  0.4954570000000  0.4511930000000 1.0
C      1  0.5356220000000  0.4424380000000  0.5302640000000 1.0
C      1  0.5088230000000  0.4309640000000  0.5321550000000 1.0
C      1  0.4336090000000  0.5299110000000  0.5009220000000 1.0
C      1  0.4594420000000  0.4256650000000  0.4792980000000 1.0
C      1  0.5359120000000  0.5383900000000  0.4853590000000 1.0
C      1  0.4828080000000  0.5313040000000  0.5495450000000 1.0
C      1  0.4401850000000  0.5470880000000  0.5351750000000 1.0
C      1  0.5148370000000  0.4891480000000  0.4952700000000 1.0
C      1  0.4669180000000  0.4848240000000  0.5624050000000 1.0
C      1  0.4548000000000  0.4488490000000  0.4977650000000 1.0
C      1  0.5148830000000  0.5650030000000  0.5366710000000 1.0
C      1  0.4928590000000  0.5575400000000  0.5519680000000 1.0
C      1  0.4529910000000  0.5496230000000  0.5092070000000 1.0
C      1  0.5315330000000  0.5662510000000  0.4895630000000 1.0
C      1  0.4898900000000  0.4704010000000  0.5560000000000 1.0
C      1  0.5040560000000  0.4150100000000  0.5074900000000 1.0
C      1  0.5166880000000  0.4818340000000  0.5590630000000 1.0
C      1  0.5639540000000  0.5474620000000  0.5325740000000 1.0
C      1  0.5568490000000  0.5291650000000  0.4685110000000 1.0
C      1  0.5703470000000  0.5081330000000  0.4870400000000 1.0
C      1  0.5333380000000  0.5307880000000  0.5672260000000 1.0
C      1  0.4955370000000  0.5235780000000  0.4748580000000 1.0
C      1  0.5021910000000  0.4475100000000  0.4717020000000 1.0
C      1  0.4946480000000  0.5371500000000  0.5011090000000 1.0
C      1  0.4896660000000  0.5166960000000  0.5224500000000 1.0
C      1  0.5073550000000  0.5646440000000  0.5066000000000 1.0
C      1  0.4860700000000  0.4886760000000  0.4165480000000 1.0
C      1  0.4515630000000  0.4687320000000  0.4469730000000 1.0
C      1  0.5456390000000  0.5278800000000  0.4418870000000 1.0
C      1  0.4933540000000  0.4628550000000  0.4257080000000 1.0
C      1  0.5444710000000  0.4429580000000  0.5016360000000 1.0
C      1  0.4885110000000  0.4518040000000  0.5339020000000 1.0
C      1  0.5726160000000  0.5231780000000  0.5164230000000 1.0
C      1  0.5284430000000  0.5070180000000  0.4344870000000 1.0
C      1  0.5017580000000  0.5637760000000  0.4522370000000 1.0
C      1  0.4866480000000  0.5843260000000  0.4953690000000 1.0
C      1  0.4693550000000  0.4487700000000  0.4370810000000 1.0
C      1  0.4537630000000  0.5305240000000  0.5553890000000 1.0
C      1  0.4772530000000  0.4998480000000  0.4749370000000 1.0
C      1  0.5382820000000  0.4690950000000  0.5430830000000 1.0
C      1  0.5388810000000  0.5505560000000  0.5478100000000 1.0
C      1  0.5132970000000  0.4619040000000  0.4476420000000 1.0
C      1  0.4390360000000  0.5023250000000  0.5080700000000 1.0
C      1  0.4918960000000  0.4683990000000  0.4931220000000 1.0
C      1  0.5578720000000  0.4721470000000  0.4972810000000 1.0
C      1  0.4726370000000  0.4153700000000  0.5064380000000 1.0
C      1  0.5537120000000  0.4843970000000  0.5246300000000 1.0
C      1  0.5086630000000  0.5358110000000  0.4509290000000 1.0
END
