TITL C-951336-9012-502 -3.16334436230393e-06 125000 -1136.32706563043 0 0 180 (C1) n - 1
REM
REM in /home/bkarasulu/work/CARBON/AIRSS/Generating-Clusters/EDIP-Nigel-Params/with-SteepDescent/Only-C1/SD-CG/HFTN-CG
REM
REM
REM
REM
REM
REM ./C.cell (11c1c37f851c82e70ff6c80c92926a4b)
REM
REM compiler GCC version 9.2.1 20190827 (Red Hat 9.2.1-1)
REM options -cpp -mtune=generic -march=x86-64 -g -O0 -fpre-include=/usr/include/finclude/math-vector-fortran.h
REM seed 108963307 1139155026 -298812767 279803106 -1587781138 509880249 1195668068 -1581427606 2121776603 1475352826 902326638 -1323872451 -937507232 -560544543 718965175 1503549070 786961589 -1156691020 1569988350 379608140 1022042370 983737388 -1151723389 -1717288012 -1970291261 1897779513 -1604271504 -1937514927 1295250238 -1181801530 -1223859298 -2053980162 1832968845
REM
CELL 1.54180   50.00000   50.00000   50.00000   90.00000   90.00000   90.00000
LATT -1
SFAC C  
C      1  0.4950590000000  0.6081730000000  0.4582630000000 1.0
C      1  0.5023850000000  0.4373580000000  0.4198140000000 1.0
C      1  0.5545240000000  0.4970920000000  0.4654520000000 1.0
C      1  0.4780080000000  0.4829650000000  0.5515590000000 1.0
C      1  0.4103620000000  0.4701400000000  0.5693310000000 1.0
C      1  0.5376200000000  0.3983160000000  0.5339440000000 1.0
C      1  0.5146780000000  0.5738930000000  0.5072360000000 1.0
C      1  0.5484760000000  0.4327650000000  0.4679180000000 1.0
C      1  0.5803760000000  0.4849700000000  0.5763560000000 1.0
C      1  0.5200800000000  0.4933750000000  0.5906830000000 1.0
C      1  0.5024410000000  0.4086920000000  0.5007810000000 1.0
C      1  0.5127150000000  0.4702170000000  0.3858430000000 1.0
C      1  0.4044990000000  0.5320230000000  0.4473430000000 1.0
C      1  0.5549410000000  0.4856580000000  0.5107640000000 1.0
C      1  0.4221400000000  0.5691200000000  0.5405370000000 1.0
C      1  0.4601760000000  0.5811560000000  0.5812750000000 1.0
C      1  0.5366560000000  0.4794030000000  0.4004870000000 1.0
C      1  0.5414940000000  0.5984650000000  0.4510810000000 1.0
C      1  0.6049610000000  0.5051400000000  0.4450590000000 1.0
C      1  0.4436680000000  0.4600560000000  0.5859210000000 1.0
C      1  0.5984690000000  0.5643680000000  0.5259500000000 1.0
C      1  0.4469830000000  0.4442030000000  0.5561880000000 1.0
C      1  0.4395050000000  0.5769190000000  0.4977010000000 1.0
C      1  0.4208260000000  0.5572480000000  0.5659190000000 1.0
C      1  0.5040280000000  0.5167780000000  0.4440840000000 1.0
C      1  0.4204010000000  0.4884790000000  0.4263350000000 1.0
C      1  0.5238670000000  0.4496290000000  0.4761760000000 1.0
C      1  0.5317070000000  0.4010880000000  0.5068310000000 1.0
C      1  0.4018200000000  0.4571000000000  0.5444260000000 1.0
C      1  0.5014450000000  0.4320980000000  0.5201720000000 1.0
C      1  0.4478340000000  0.5985120000000  0.4774890000000 1.0
C      1  0.5522130000000  0.5447140000000  0.5818230000000 1.0
C      1  0.5322990000000  0.4344040000000  0.4211220000000 1.0
C      1  0.4664520000000  0.4685690000000  0.3852560000000 1.0
C      1  0.4265940000000  0.4142500000000  0.5232790000000 1.0
C      1  0.4488850000000  0.4352530000000  0.4129040000000 1.0
C      1  0.4435920000000  0.4819540000000  0.5189560000000 1.0
C      1  0.4280090000000  0.4206710000000  0.4954280000000 1.0
C      1  0.4804610000000  0.5888040000000  0.5630100000000 1.0
C      1  0.5235970000000  0.5388880000000  0.4569730000000 1.0
C      1  0.5070260000000  0.4803040000000  0.5120510000000 1.0
C      1  0.4589490000000  0.5539360000000  0.4934450000000 1.0
C      1  0.4358390000000  0.5596770000000  0.4133070000000 1.0
C      1  0.4607900000000  0.5140950000000  0.4066140000000 1.0
C      1  0.3917510000000  0.4848680000000  0.4697970000000 1.0
C      1  0.5435410000000  0.4611720000000  0.5518710000000 1.0
C      1  0.5953920000000  0.4745650000000  0.5539760000000 1.0
C      1  0.5454020000000  0.5696840000000  0.5146550000000 1.0
C      1  0.5472470000000  0.4591040000000  0.4190730000000 1.0
C      1  0.4710700000000  0.5313740000000  0.5091350000000 1.0
C      1  0.5285840000000  0.5293890000000  0.5427800000000 1.0
C      1  0.5685640000000  0.4933210000000  0.4378000000000 1.0
C      1  0.4932940000000  0.4710080000000  0.4262020000000 1.0
C      1  0.4689030000000  0.3935080000000  0.5076090000000 1.0
C      1  0.4489580000000  0.5840250000000  0.4261460000000 1.0
C      1  0.6043940000000  0.5164090000000  0.4710440000000 1.0
C      1  0.4309670000000  0.5117510000000  0.4116970000000 1.0
C      1  0.5224640000000  0.6149570000000  0.4672870000000 1.0
C      1  0.5287290000000  0.4797340000000  0.4634330000000 1.0
C      1  0.4851410000000  0.4133130000000  0.5680040000000 1.0
C      1  0.4760230000000  0.4458420000000  0.5142430000000 1.0
C      1  0.5161930000000  0.5213680000000  0.6036520000000 1.0
C      1  0.4089990000000  0.5251750000000  0.5199360000000 1.0
C      1  0.4369500000000  0.5388250000000  0.5790210000000 1.0
C      1  0.5373120000000  0.5072110000000  0.4109740000000 1.0
C      1  0.5752660000000  0.5616730000000  0.4600380000000 1.0
C      1  0.4622520000000  0.4622800000000  0.5355860000000 1.0
C      1  0.5973660000000  0.5280690000000  0.5612380000000 1.0
C      1  0.4927300000000  0.5975770000000  0.5097380000000 1.0
C      1  0.4882980000000  0.5191550000000  0.6106750000000 1.0
C      1  0.4536840000000  0.5293590000000  0.4513490000000 1.0
C      1  0.5160740000000  0.4896400000000  0.4379370000000 1.0
C      1  0.5878280000000  0.5116470000000  0.4248240000000 1.0
C      1  0.4394120000000  0.5939030000000  0.4509820000000 1.0
C      1  0.4917130000000  0.4133510000000  0.4364170000000 1.0
C      1  0.4552610000000  0.5046030000000  0.5469670000000 1.0
C      1  0.5986570000000  0.4605190000000  0.5287480000000 1.0
C      1  0.5488000000000  0.5785990000000  0.5438950000000 1.0
C      1  0.4886640000000  0.4811700000000  0.3977290000000 1.0
C      1  0.5897280000000  0.5539270000000  0.5508190000000 1.0
C      1  0.4997140000000  0.5328140000000  0.5013510000000 1.0
C      1  0.5398700000000  0.4782330000000  0.6077480000000 1.0
C      1  0.5715190000000  0.4845370000000  0.4867680000000 1.0
C      1  0.4795330000000  0.5647750000000  0.4762630000000 1.0
C      1  0.5399100000000  0.4170500000000  0.4436620000000 1.0
C      1  0.4652120000000  0.5306750000000  0.5375370000000 1.0
C      1  0.4370270000000  0.5091330000000  0.5711630000000 1.0
C      1  0.5243450000000  0.5236840000000  0.5137820000000 1.0
C      1  0.6119540000000  0.5134490000000  0.5417410000000 1.0
C      1  0.4636430000000  0.5519860000000  0.5815420000000 1.0
C      1  0.5276670000000  0.6089020000000  0.4959670000000 1.0
C      1  0.5497090000000  0.4577390000000  0.5232450000000 1.0
C      1  0.5929080000000  0.5437430000000  0.5077940000000 1.0
C      1  0.5500990000000  0.5115020000000  0.5523400000000 1.0
C      1  0.4518970000000  0.4002490000000  0.5310890000000 1.0
C      1  0.5061780000000  0.5426180000000  0.3970030000000 1.0
C      1  0.5294140000000  0.4878610000000  0.5593640000000 1.0
C      1  0.5495510000000  0.5279460000000  0.4722180000000 1.0
C      1  0.4413630000000  0.5099040000000  0.4771050000000 1.0
C      1  0.5794510000000  0.4201940000000  0.5019960000000 1.0
C      1  0.5213900000000  0.4525470000000  0.5079420000000 1.0
C      1  0.5532750000000  0.4138360000000  0.4906460000000 1.0
C      1  0.4626900000000  0.4061850000000  0.4612270000000 1.0
C      1  0.4594510000000  0.4163110000000  0.5553460000000 1.0
C      1  0.5565670000000  0.5817580000000  0.4696030000000 1.0
C      1  0.5160170000000  0.4618760000000  0.6127950000000 1.0
C      1  0.4766550000000  0.5717490000000  0.4278980000000 1.0
C      1  0.5609510000000  0.4383790000000  0.5912730000000 1.0
C      1  0.4831130000000  0.5573840000000  0.4019990000000 1.0
C      1  0.5017180000000  0.4235810000000  0.4727930000000 1.0
C      1  0.4059740000000  0.5546200000000  0.5208220000000 1.0
C      1  0.4770630000000  0.4942320000000  0.6003880000000 1.0
C      1  0.5220870000000  0.5459500000000  0.5861340000000 1.0
C      1  0.4298550000000  0.5351150000000  0.4312510000000 1.0
C      1  0.5737170000000  0.4506980000000  0.4622610000000 1.0
C      1  0.4728280000000  0.5904880000000  0.5337810000000 1.0
C      1  0.5765940000000  0.4253560000000  0.5492430000000 1.0
C      1  0.5645640000000  0.5619790000000  0.5615120000000 1.0
C      1  0.5862270000000  0.5401850000000  0.4784670000000 1.0
C      1  0.5286690000000  0.4965390000000  0.5042550000000 1.0
C      1  0.5043740000000  0.4884220000000  0.5408330000000 1.0
C      1  0.5060500000000  0.4254660000000  0.5512530000000 1.0
C      1  0.4440120000000  0.5848850000000  0.5265280000000 1.0
C      1  0.4633100000000  0.4408170000000  0.3896000000000 1.0
C      1  0.4650590000000  0.4510620000000  0.4851780000000 1.0
C      1  0.4689240000000  0.4480910000000  0.6007560000000 1.0
C      1  0.5981240000000  0.4974640000000  0.4943710000000 1.0
C      1  0.4410310000000  0.4732260000000  0.4427010000000 1.0
C      1  0.4009040000000  0.5020680000000  0.5356290000000 1.0
C      1  0.5064560000000  0.5783460000000  0.5719640000000 1.0
C      1  0.5268660000000  0.5828210000000  0.4308110000000 1.0
C      1  0.4731730000000  0.5116580000000  0.4361920000000 1.0
C      1  0.4219320000000  0.4364630000000  0.5425230000000 1.0
C      1  0.5150720000000  0.4038100000000  0.4524240000000 1.0
C      1  0.4812550000000  0.5449670000000  0.5572020000000 1.0
C      1  0.5320300000000  0.4135100000000  0.5568320000000 1.0
C      1  0.4751930000000  0.5431240000000  0.6059840000000 1.0
C      1  0.4302440000000  0.4818830000000  0.4700410000000 1.0
C      1  0.5731980000000  0.5153480000000  0.5746670000000 1.0
C      1  0.4100030000000  0.5407810000000  0.4754810000000 1.0
C      1  0.5497330000000  0.5371530000000  0.5032250000000 1.0
C      1  0.4386240000000  0.4633150000000  0.4924970000000 1.0
C      1  0.5063170000000  0.5548110000000  0.4841460000000 1.0
C      1  0.4580600000000  0.5437110000000  0.3971050000000 1.0
C      1  0.5269140000000  0.5886240000000  0.5571250000000 1.0
C      1  0.5306130000000  0.5358350000000  0.4078450000000 1.0
C      1  0.4782430000000  0.5954030000000  0.4802980000000 1.0
C      1  0.5084340000000  0.5351290000000  0.5622000000000 1.0
C      1  0.5650670000000  0.5091160000000  0.5261150000000 1.0
C      1  0.4804200000000  0.4725590000000  0.4718480000000 1.0
C      1  0.5368650000000  0.5533880000000  0.4317650000000 1.0
C      1  0.4607660000000  0.5043400000000  0.5002820000000 1.0
C      1  0.5716840000000  0.4638430000000  0.4346740000000 1.0
C      1  0.3952810000000  0.4661030000000  0.4928470000000 1.0
C      1  0.6108000000000  0.4714010000000  0.5030920000000 1.0
C      1  0.4882490000000  0.4685680000000  0.6073710000000 1.0
C      1  0.4728200000000  0.5535270000000  0.4510840000000 1.0
C      1  0.5981650000000  0.4275530000000  0.4815520000000 1.0
C      1  0.4084130000000  0.5184010000000  0.4927140000000 1.0
C      1  0.4001890000000  0.4758090000000  0.5216940000000 1.0
C      1  0.6078950000000  0.4536650000000  0.4803790000000 1.0
C      1  0.4491670000000  0.4904960000000  0.5914930000000 1.0
C      1  0.4809650000000  0.4239090000000  0.5935830000000 1.0
C      1  0.5768060000000  0.4402180000000  0.5246380000000 1.0
C      1  0.4499820000000  0.4013890000000  0.4865790000000 1.0
C      1  0.4863280000000  0.4914260000000  0.4919940000000 1.0
C      1  0.3993590000000  0.5011080000000  0.4451780000000 1.0
C      1  0.4080480000000  0.4401560000000  0.4857940000000 1.0
C      1  0.5659010000000  0.5535170000000  0.4350930000000 1.0
C      1  0.5935810000000  0.5160750000000  0.5186640000000 1.0
C      1  0.4933700000000  0.4379910000000  0.3908640000000 1.0
C      1  0.5532700000000  0.5918560000000  0.4964460000000 1.0
C      1  0.5530870000000  0.4341570000000  0.5633820000000 1.0
C      1  0.4984890000000  0.5911580000000  0.4343430000000 1.0
C      1  0.4704300000000  0.4820140000000  0.4445880000000 1.0
C      1  0.4432150000000  0.4440360000000  0.4386790000000 1.0
C      1  0.4099050000000  0.4984050000000  0.5637370000000 1.0
C      1  0.4613610000000  0.4344050000000  0.4593090000000 1.0
C      1  0.5618250000000  0.4670250000000  0.5919180000000 1.0
C      1  0.4113260000000  0.5654280000000  0.4932100000000 1.0
END
