TITL C-950525-1983-391 2.05964059056394e-06 125000 -183.134946966981 0 0 31 (C1) n - 1
REM
REM in /home/bkarasulu/work/CARBON/AIRSS/Generating-Clusters/EDIP-Nigel-Params/with-SteepDescent/Only-C1/SD-CG/HFTN-CG
REM
REM
REM
REM
REM
REM ./C.cell (11c1c37f851c82e70ff6c80c92926a4b)
REM
REM compiler GCC version 9.2.1 20190827 (Red Hat 9.2.1-1)
REM options -cpp -mtune=generic -march=x86-64 -g -O0 -fpre-include=/usr/include/finclude/math-vector-fortran.h
REM seed 1307961502 -1830677366 143897134 -348217708 -668084108 703484411 -655895011 -1839856273 -1224624629 1112819372 -1613387118 1761043402 -1037311226 -1015628530 1617634250 861893742 -1712220248 -238342470 -1590499735 -85096018 2120392598 1687840155 -146471742 -51336250 818614793 -572090862 467453273 -1031355279 -837403317 474988988 1006080000 2054296891 1364712492
REM
CELL 1.54180   50.00000   50.00000   50.00000   90.00000   90.00000   90.00000
LATT -1
SFAC C  
C      1  0.5207580000000  0.4728410000000  0.5023760000000 1.0
C      1  0.5021840000000  0.4598900000000  0.5239640000000 1.0
C      1  0.5039780000000  0.5297870000000  0.4904960000000 1.0
C      1  0.5450160000000  0.5420500000000  0.4917620000000 1.0
C      1  0.5411560000000  0.5277370000000  0.4680840000000 1.0
C      1  0.4707910000000  0.5343840000000  0.5292590000000 1.0
C      1  0.5160560000000  0.5212160000000  0.4536230000000 1.0
C      1  0.5060270000000  0.4977590000000  0.4895260000000 1.0
C      1  0.4944800000000  0.5433500000000  0.5165100000000 1.0
C      1  0.4663030000000  0.5115750000000  0.4655870000000 1.0
C      1  0.5156300000000  0.5490570000000  0.5340860000000 1.0
C      1  0.5535400000000  0.5180150000000  0.5034100000000 1.0
C      1  0.4410680000000  0.5116630000000  0.4778150000000 1.0
C      1  0.5036630000000  0.5030000000000  0.5489850000000 1.0
C      1  0.5431800000000  0.4818070000000  0.5376310000000 1.0
C      1  0.5271280000000  0.4555760000000  0.4768580000000 1.0
C      1  0.5159480000000  0.4759450000000  0.5460300000000 1.0
C      1  0.5354880000000  0.4838520000000  0.4677240000000 1.0
C      1  0.4338820000000  0.4934110000000  0.5223280000000 1.0
C      1  0.4583140000000  0.4863030000000  0.5351830000000 1.0
C      1  0.4628870000000  0.4709030000000  0.4917170000000 1.0
C      1  0.4949550000000  0.4733740000000  0.4518910000000 1.0
C      1  0.4773170000000  0.5083230000000  0.5375920000000 1.0
C      1  0.4839990000000  0.5343440000000  0.4683450000000 1.0
C      1  0.4396490000000  0.4892090000000  0.4949670000000 1.0
C      1  0.5055320000000  0.4483520000000  0.4601950000000 1.0
C      1  0.5241080000000  0.5234440000000  0.5428780000000 1.0
C      1  0.5462990000000  0.5092490000000  0.5301190000000 1.0
C      1  0.5174460000000  0.4923410000000  0.4464300000000 1.0
C      1  0.4714960000000  0.4635370000000  0.5200780000000 1.0
C      1  0.4817220000000  0.4877070000000  0.4745510000000 1.0
END
