TITL C-951335-1172-716 -6.46035469172247e-06 125000 -1062.00637862155 0 0 173 (C1) n - 1
REM
REM in /home/bkarasulu/work/CARBON/AIRSS/Generating-Clusters/EDIP-Nigel-Params/with-SteepDescent/Only-C1/SD-CG/HFTN-CG
REM
REM
REM
REM
REM
REM ./C.cell (11c1c37f851c82e70ff6c80c92926a4b)
REM
REM compiler GCC version 9.2.1 20190827 (Red Hat 9.2.1-1)
REM options -cpp -mtune=generic -march=x86-64 -g -O0 -fpre-include=/usr/include/finclude/math-vector-fortran.h
REM seed -15396197 39253115 7806605 -1206296261 1838836972 1633817144 1054541701 -2124652873 -1544727367 2132438744 207783152 1251381229 99953975 1224863681 -2012305963 1334350415 853075150 473570478 -1251812141 1801086627 -748536542 -2015559969 -732933466 1229939694 -1045755127 -927178445 325280887 2075399430 -478848184 -941277912 -431803666 -1995905759 -1656487487
REM
CELL 1.54180   50.00000   50.00000   50.00000   90.00000   90.00000   90.00000
LATT -1
SFAC C  
C      1  0.4261940000000  0.5390150000000  0.5736500000000 1.0
C      1  0.5013700000000  0.4943030000000  0.5406440000000 1.0
C      1  0.4855910000000  0.4666800000000  0.3975210000000 1.0
C      1  0.6095820000000  0.4950830000000  0.5184750000000 1.0
C      1  0.4403010000000  0.4936330000000  0.4241120000000 1.0
C      1  0.5799580000000  0.5592880000000  0.4467460000000 1.0
C      1  0.4756210000000  0.5826710000000  0.5480990000000 1.0
C      1  0.5258050000000  0.4227150000000  0.5292490000000 1.0
C      1  0.4289880000000  0.4242520000000  0.5562860000000 1.0
C      1  0.5423900000000  0.5318110000000  0.5102600000000 1.0
C      1  0.4970640000000  0.5931660000000  0.4424160000000 1.0
C      1  0.4398070000000  0.4286820000000  0.4980110000000 1.0
C      1  0.5450720000000  0.5257880000000  0.5408360000000 1.0
C      1  0.4502280000000  0.5246280000000  0.5837330000000 1.0
C      1  0.4685820000000  0.5896730000000  0.4353830000000 1.0
C      1  0.5006570000000  0.4092750000000  0.4383170000000 1.0
C      1  0.4111810000000  0.4927360000000  0.4352390000000 1.0
C      1  0.4170810000000  0.4764750000000  0.5659060000000 1.0
C      1  0.4844330000000  0.4929560000000  0.5656460000000 1.0
C      1  0.4668030000000  0.5820780000000  0.5014280000000 1.0
C      1  0.4608030000000  0.5726660000000  0.5730460000000 1.0
C      1  0.5028310000000  0.5272950000000  0.4495810000000 1.0
C      1  0.5728650000000  0.5038460000000  0.4278310000000 1.0
C      1  0.5660310000000  0.4878540000000  0.5247990000000 1.0
C      1  0.4434900000000  0.4029590000000  0.5125430000000 1.0
C      1  0.5300890000000  0.4912760000000  0.4818210000000 1.0
C      1  0.4034170000000  0.5193290000000  0.4457600000000 1.0
C      1  0.5155180000000  0.5105770000000  0.4043250000000 1.0
C      1  0.5669930000000  0.5066900000000  0.5495950000000 1.0
C      1  0.4948210000000  0.4209080000000  0.5731000000000 1.0
C      1  0.6008430000000  0.5135630000000  0.4691060000000 1.0
C      1  0.5154440000000  0.4634570000000  0.3939150000000 1.0
C      1  0.4782740000000  0.5068180000000  0.4397080000000 1.0
C      1  0.4774430000000  0.4328250000000  0.5355400000000 1.0
C      1  0.5430200000000  0.4668290000000  0.5232130000000 1.0
C      1  0.5638480000000  0.4853300000000  0.5703090000000 1.0
C      1  0.5039840000000  0.5538210000000  0.4038910000000 1.0
C      1  0.3869520000000  0.4815950000000  0.4995930000000 1.0
C      1  0.4663420000000  0.5592720000000  0.4331740000000 1.0
C      1  0.5120610000000  0.5618160000000  0.5367170000000 1.0
C      1  0.4623630000000  0.4957900000000  0.6217850000000 1.0
C      1  0.4715090000000  0.4059850000000  0.5223200000000 1.0
C      1  0.4353550000000  0.5217100000000  0.4760140000000 1.0
C      1  0.4775560000000  0.5277220000000  0.4935740000000 1.0
C      1  0.5126800000000  0.5616680000000  0.4841820000000 1.0
C      1  0.4086170000000  0.4658910000000  0.4854260000000 1.0
C      1  0.5926570000000  0.4230950000000  0.4638570000000 1.0
C      1  0.5158230000000  0.6130780000000  0.5097890000000 1.0
C      1  0.5493440000000  0.4446890000000  0.4785260000000 1.0
C      1  0.5827030000000  0.4638820000000  0.5585260000000 1.0
C      1  0.5875590000000  0.4739130000000  0.4851890000000 1.0
C      1  0.4626510000000  0.4251910000000  0.4611940000000 1.0
C      1  0.4225930000000  0.5399140000000  0.4379130000000 1.0
C      1  0.4443030000000  0.4892570000000  0.3953340000000 1.0
C      1  0.4086340000000  0.4331820000000  0.4892950000000 1.0
C      1  0.5106220000000  0.6122040000000  0.4599150000000 1.0
C      1  0.5181090000000  0.5022440000000  0.5925680000000 1.0
C      1  0.3989540000000  0.4485480000000  0.5324880000000 1.0
C      1  0.4122260000000  0.4487820000000  0.5573180000000 1.0
C      1  0.5157110000000  0.4681290000000  0.4419540000000 1.0
C      1  0.5501260000000  0.4412530000000  0.4235450000000 1.0
C      1  0.5886160000000  0.5247810000000  0.5619190000000 1.0
C      1  0.4730160000000  0.4522010000000  0.4532800000000 1.0
C      1  0.5091050000000  0.6000000000000  0.5373420000000 1.0
C      1  0.4970390000000  0.6107790000000  0.4863250000000 1.0
C      1  0.4810900000000  0.4682720000000  0.5826240000000 1.0
C      1  0.4348300000000  0.4522780000000  0.5197190000000 1.0
C      1  0.4212660000000  0.4079000000000  0.5324790000000 1.0
C      1  0.5229990000000  0.5155200000000  0.4952960000000 1.0
C      1  0.4857190000000  0.5127100000000  0.4016430000000 1.0
C      1  0.4360320000000  0.4742100000000  0.4993610000000 1.0
C      1  0.4483740000000  0.4664820000000  0.4401060000000 1.0
C      1  0.5121080000000  0.4057270000000  0.5525010000000 1.0
C      1  0.4463540000000  0.5478900000000  0.5222260000000 1.0
C      1  0.3919380000000  0.4908870000000  0.5256310000000 1.0
C      1  0.4714550000000  0.4904230000000  0.3875930000000 1.0
C      1  0.4511750000000  0.5426630000000  0.4914060000000 1.0
C      1  0.5968270000000  0.5212470000000  0.5172820000000 1.0
C      1  0.4611260000000  0.5098120000000  0.5606210000000 1.0
C      1  0.5231260000000  0.5600970000000  0.5935570000000 1.0
C      1  0.5296750000000  0.5592940000000  0.5098500000000 1.0
C      1  0.5255740000000  0.4053140000000  0.5049670000000 1.0
C      1  0.5973020000000  0.4456160000000  0.4476950000000 1.0
C      1  0.4705230000000  0.5508280000000  0.5899240000000 1.0
C      1  0.5308310000000  0.4859470000000  0.4042710000000 1.0
C      1  0.5679040000000  0.4384030000000  0.5566590000000 1.0
C      1  0.5360710000000  0.5351620000000  0.6014650000000 1.0
C      1  0.5305920000000  0.5669850000000  0.5621580000000 1.0
C      1  0.4168760000000  0.5451230000000  0.5271360000000 1.0
C      1  0.4887850000000  0.5824770000000  0.4847170000000 1.0
C      1  0.6134240000000  0.4918670000000  0.4890870000000 1.0
C      1  0.5308730000000  0.4529110000000  0.5872830000000 1.0
C      1  0.5317090000000  0.4637660000000  0.4945250000000 1.0
C      1  0.4317660000000  0.4793360000000  0.5901560000000 1.0
C      1  0.4554480000000  0.4552160000000  0.5712010000000 1.0
C      1  0.5453810000000  0.4593010000000  0.4479030000000 1.0
C      1  0.4561540000000  0.5505010000000  0.4069660000000 1.0
C      1  0.5954040000000  0.4261220000000  0.4915210000000 1.0
C      1  0.4454780000000  0.5854740000000  0.4531150000000 1.0
C      1  0.4786320000000  0.5068990000000  0.5153430000000 1.0
C      1  0.5707400000000  0.5007600000000  0.4968600000000 1.0
C      1  0.5517980000000  0.5808330000000  0.5078340000000 1.0
C      1  0.5263240000000  0.4001030000000  0.4457770000000 1.0
C      1  0.6007450000000  0.5382160000000  0.5399530000000 1.0
C      1  0.5037890000000  0.4442530000000  0.5249980000000 1.0
C      1  0.4873650000000  0.5462560000000  0.5496480000000 1.0
C      1  0.5504210000000  0.4351620000000  0.5783330000000 1.0
C      1  0.4114230000000  0.5274380000000  0.5508470000000 1.0
C      1  0.5757510000000  0.4462880000000  0.4976350000000 1.0
C      1  0.5377180000000  0.4155490000000  0.4790190000000 1.0
C      1  0.4371030000000  0.5311940000000  0.4147710000000 1.0
C      1  0.5921370000000  0.5659090000000  0.5399860000000 1.0
C      1  0.4771190000000  0.4763210000000  0.6100130000000 1.0
C      1  0.5069380000000  0.4858780000000  0.4649950000000 1.0
C      1  0.5614170000000  0.5886950000000  0.5351590000000 1.0
C      1  0.4006110000000  0.5505310000000  0.5046720000000 1.0
C      1  0.4572730000000  0.4543250000000  0.5398310000000 1.0
C      1  0.4856140000000  0.4677750000000  0.4778110000000 1.0
C      1  0.4955830000000  0.5574090000000  0.6013900000000 1.0
C      1  0.5571310000000  0.4794470000000  0.4169600000000 1.0
C      1  0.4780750000000  0.4033230000000  0.4533780000000 1.0
C      1  0.5611830000000  0.5248210000000  0.4745780000000 1.0
C      1  0.4987150000000  0.3841270000000  0.5378870000000 1.0
C      1  0.4336860000000  0.5659280000000  0.5693450000000 1.0
C      1  0.5315330000000  0.5629400000000  0.4595570000000 1.0
C      1  0.5034680000000  0.4478700000000  0.5800480000000 1.0
C      1  0.5018870000000  0.4349550000000  0.4269260000000 1.0
C      1  0.3980460000000  0.5193220000000  0.4738780000000 1.0
C      1  0.5236980000000  0.4395290000000  0.4087130000000 1.0
C      1  0.5545820000000  0.4386930000000  0.5294190000000 1.0
C      1  0.5775220000000  0.5704850000000  0.4941010000000 1.0
C      1  0.5027500000000  0.3879830000000  0.5095020000000 1.0
C      1  0.4061230000000  0.4980440000000  0.5486740000000 1.0
C      1  0.4568060000000  0.5761070000000  0.5260180000000 1.0
C      1  0.5535470000000  0.5506050000000  0.5553500000000 1.0
C      1  0.4424510000000  0.5028370000000  0.6033530000000 1.0
C      1  0.4062890000000  0.4685650000000  0.4536110000000 1.0
C      1  0.3783280000000  0.5020600000000  0.4832280000000 1.0
C      1  0.5194470000000  0.5155960000000  0.5507000000000 1.0
C      1  0.5030140000000  0.5328040000000  0.4807020000000 1.0
C      1  0.4003430000000  0.4243970000000  0.5176040000000 1.0
C      1  0.4796820000000  0.5404200000000  0.3926770000000 1.0
C      1  0.4255280000000  0.4488840000000  0.4433770000000 1.0
C      1  0.5467130000000  0.5440430000000  0.4225170000000 1.0
C      1  0.5561940000000  0.5770330000000  0.4507600000000 1.0
C      1  0.5241090000000  0.5157700000000  0.6173760000000 1.0
C      1  0.5740590000000  0.5456290000000  0.5751260000000 1.0
C      1  0.4631340000000  0.4861270000000  0.4901570000000 1.0
C      1  0.5915620000000  0.4720820000000  0.5296430000000 1.0
C      1  0.4635340000000  0.4234500000000  0.5709140000000 1.0
C      1  0.4555220000000  0.5022640000000  0.4647550000000 1.0
C      1  0.5365480000000  0.5949770000000  0.5527150000000 1.0
C      1  0.5834560000000  0.5470220000000  0.4734910000000 1.0
C      1  0.5954480000000  0.5776000000000  0.5151080000000 1.0
C      1  0.5937610000000  0.4962840000000  0.4455720000000 1.0
C      1  0.5384310000000  0.4806590000000  0.5849240000000 1.0
C      1  0.5408750000000  0.6056130000000  0.4958600000000 1.0
C      1  0.5277940000000  0.5364650000000  0.4011810000000 1.0
C      1  0.5372540000000  0.5347640000000  0.4505120000000 1.0
C      1  0.5162960000000  0.4687760000000  0.5379350000000 1.0
C      1  0.4297440000000  0.5613800000000  0.4578190000000 1.0
C      1  0.4327710000000  0.4252000000000  0.4597860000000 1.0
C      1  0.5696400000000  0.4077900000000  0.4581300000000 1.0
C      1  0.4969280000000  0.5555500000000  0.4335580000000 1.0
C      1  0.5047590000000  0.5310190000000  0.5710130000000 1.0
C      1  0.5511530000000  0.4127870000000  0.4370130000000 1.0
C      1  0.4881990000000  0.4767780000000  0.4265650000000 1.0
C      1  0.5869610000000  0.4702400000000  0.4561250000000 1.0
C      1  0.4663570000000  0.5270970000000  0.5368150000000 1.0
C      1  0.4171880000000  0.5608450000000  0.4841900000000 1.0
C      1  0.5383270000000  0.6059700000000  0.4669160000000 1.0
C      1  0.5036020000000  0.4512870000000  0.4958110000000 1.0
C      1  0.5735110000000  0.5326770000000  0.4215040000000 1.0
END
