TITL C-950524-1808-325 -3.33812665451275e-06 125000 -847.114201800299 0 0 137 (C1) n - 1
REM
REM in /home/bkarasulu/work/CARBON/AIRSS/Generating-Clusters/EDIP-Nigel-Params/with-SteepDescent/Only-C1/SD-CG/HFTN-CG
REM
REM
REM
REM
REM
REM ./C.cell (11c1c37f851c82e70ff6c80c92926a4b)
REM
REM compiler GCC version 9.2.1 20190827 (Red Hat 9.2.1-1)
REM options -cpp -mtune=generic -march=x86-64 -g -O0 -fpre-include=/usr/include/finclude/math-vector-fortran.h
REM seed -519829386 1769987252 39876165 -216554841 -702344571 1262244635 1038122730 -281602457 83917029 -1578688459 451364018 -1417508917 -1407858755 -146913366 820456185 -90702597 666318223 1670062585 160359271 1084741859 -1370157717 989938194 -1773257665 -734211647 -2002825145 -462604977 -1358459294 943793423 2022895210 -1913450286 1501303611 736715938 1191411795
REM
CELL 1.54180   50.00000   50.00000   50.00000   90.00000   90.00000   90.00000
LATT -1
SFAC C  
C      1  0.4831110000000  0.4631550000000  0.4566990000000 1.0
C      1  0.6007580000000  0.5073940000000  0.5271160000000 1.0
C      1  0.5397570000000  0.5545420000000  0.5722330000000 1.0
C      1  0.5020660000000  0.5029120000000  0.4765950000000 1.0
C      1  0.4527770000000  0.5125420000000  0.5503120000000 1.0
C      1  0.5088100000000  0.5647080000000  0.4821010000000 1.0
C      1  0.5774340000000  0.4277230000000  0.5206810000000 1.0
C      1  0.5026330000000  0.4281670000000  0.5104220000000 1.0
C      1  0.4777900000000  0.4345210000000  0.4484480000000 1.0
C      1  0.5518470000000  0.5008380000000  0.4993440000000 1.0
C      1  0.4377170000000  0.4882560000000  0.4924780000000 1.0
C      1  0.4599490000000  0.5773610000000  0.4874920000000 1.0
C      1  0.4950940000000  0.5021370000000  0.5275400000000 1.0
C      1  0.4732710000000  0.5091590000000  0.4372420000000 1.0
C      1  0.4849640000000  0.5268440000000  0.4168020000000 1.0
C      1  0.5183890000000  0.5210650000000  0.6033730000000 1.0
C      1  0.4314060000000  0.4190050000000  0.4571480000000 1.0
C      1  0.4064170000000  0.4631430000000  0.4772840000000 1.0
C      1  0.5779610000000  0.5478740000000  0.5164220000000 1.0
C      1  0.4801040000000  0.5192670000000  0.4635270000000 1.0
C      1  0.5354640000000  0.5457150000000  0.4804300000000 1.0
C      1  0.5705260000000  0.5700610000000  0.4989840000000 1.0
C      1  0.5795940000000  0.4879100000000  0.5207740000000 1.0
C      1  0.4250010000000  0.4781820000000  0.4561390000000 1.0
C      1  0.4324830000000  0.4194460000000  0.4849400000000 1.0
C      1  0.4622130000000  0.5546310000000  0.5726580000000 1.0
C      1  0.4364230000000  0.4597270000000  0.4331900000000 1.0
C      1  0.4791700000000  0.5784720000000  0.5723480000000 1.0
C      1  0.5933420000000  0.5125850000000  0.4794910000000 1.0
C      1  0.5372230000000  0.4784990000000  0.5114960000000 1.0
C      1  0.5551570000000  0.5156130000000  0.5449180000000 1.0
C      1  0.5041620000000  0.5210020000000  0.5514280000000 1.0
C      1  0.5096770000000  0.4767880000000  0.5225860000000 1.0
C      1  0.4941460000000  0.5632650000000  0.5924540000000 1.0
C      1  0.4426940000000  0.4366860000000  0.5605990000000 1.0
C      1  0.5497870000000  0.5785280000000  0.4528120000000 1.0
C      1  0.5010820000000  0.4279630000000  0.4277200000000 1.0
C      1  0.5481140000000  0.5825210000000  0.5146450000000 1.0
C      1  0.4383110000000  0.5346610000000  0.4288760000000 1.0
C      1  0.4479710000000  0.4332540000000  0.4397920000000 1.0
C      1  0.5546980000000  0.4313110000000  0.4344500000000 1.0
C      1  0.4616360000000  0.5437980000000  0.4123080000000 1.0
C      1  0.5514360000000  0.5377630000000  0.5270100000000 1.0
C      1  0.5600110000000  0.5227560000000  0.4134150000000 1.0
C      1  0.5300390000000  0.5606500000000  0.4095490000000 1.0
C      1  0.4254960000000  0.5170610000000  0.5884370000000 1.0
C      1  0.3870720000000  0.5007800000000  0.5269220000000 1.0
C      1  0.5426820000000  0.5112310000000  0.5908080000000 1.0
C      1  0.5751410000000  0.4343710000000  0.4593350000000 1.0
C      1  0.5053820000000  0.5183760000000  0.5035470000000 1.0
C      1  0.4569040000000  0.5256760000000  0.4808570000000 1.0
C      1  0.5022460000000  0.4722530000000  0.5937900000000 1.0
C      1  0.5296080000000  0.5346140000000  0.4536460000000 1.0
C      1  0.4873350000000  0.4832630000000  0.4340890000000 1.0
C      1  0.5521160000000  0.4996820000000  0.4694340000000 1.0
C      1  0.4175760000000  0.4471660000000  0.5488780000000 1.0
C      1  0.5377810000000  0.4760510000000  0.5554300000000 1.0
C      1  0.5755170000000  0.4465580000000  0.4962810000000 1.0
C      1  0.5007360000000  0.5708850000000  0.4500470000000 1.0
C      1  0.5743320000000  0.4818410000000  0.4353860000000 1.0
C      1  0.4835070000000  0.5940390000000  0.4834390000000 1.0
C      1  0.4950180000000  0.4578520000000  0.5051620000000 1.0
C      1  0.4797560000000  0.4588730000000  0.5807620000000 1.0
C      1  0.5388900000000  0.5981000000000  0.4697800000000 1.0
C      1  0.4622360000000  0.4934470000000  0.5290000000000 1.0
C      1  0.4641830000000  0.5394540000000  0.5482710000000 1.0
C      1  0.5282710000000  0.4229770000000  0.4694700000000 1.0
C      1  0.5044990000000  0.4510580000000  0.4082470000000 1.0
C      1  0.5181120000000  0.4425340000000  0.5592920000000 1.0
C      1  0.4630110000000  0.5503720000000  0.5004180000000 1.0
C      1  0.5352130000000  0.5332930000000  0.4056160000000 1.0
C      1  0.5964590000000  0.5261940000000  0.5063550000000 1.0
C      1  0.4189800000000  0.5582000000000  0.4735810000000 1.0
C      1  0.4771120000000  0.5728420000000  0.4330200000000 1.0
C      1  0.5535550000000  0.4119480000000  0.4816080000000 1.0
C      1  0.3958130000000  0.4976260000000  0.5553760000000 1.0
C      1  0.4605220000000  0.5026230000000  0.4995480000000 1.0
C      1  0.4793700000000  0.4705600000000  0.4082290000000 1.0
C      1  0.5052420000000  0.5523550000000  0.5364430000000 1.0
C      1  0.5275960000000  0.5622860000000  0.4387220000000 1.0
C      1  0.5930740000000  0.4689570000000  0.5030640000000 1.0
C      1  0.5276030000000  0.4685350000000  0.4178110000000 1.0
C      1  0.5837060000000  0.4889320000000  0.5692750000000 1.0
C      1  0.4493450000000  0.5042160000000  0.5782930000000 1.0
C      1  0.5755380000000  0.5110770000000  0.4335550000000 1.0
C      1  0.3999130000000  0.5257800000000  0.5160990000000 1.0
C      1  0.5445160000000  0.4592180000000  0.4403920000000 1.0
C      1  0.5131150000000  0.5431240000000  0.5829180000000 1.0
C      1  0.5022730000000  0.4687710000000  0.4779200000000 1.0
C      1  0.5359490000000  0.5256080000000  0.5040270000000 1.0
C      1  0.5714980000000  0.5221390000000  0.4613290000000 1.0
C      1  0.4898510000000  0.4390550000000  0.5632010000000 1.0
C      1  0.4318590000000  0.4790890000000  0.5830820000000 1.0
C      1  0.5609140000000  0.5342200000000  0.5844660000000 1.0
C      1  0.5755250000000  0.4442090000000  0.5440820000000 1.0
C      1  0.4143650000000  0.4747730000000  0.5594720000000 1.0
C      1  0.5326950000000  0.5063110000000  0.5616940000000 1.0
C      1  0.4487280000000  0.5701020000000  0.4396590000000 1.0
C      1  0.4516280000000  0.4659000000000  0.4101210000000 1.0
C      1  0.5359970000000  0.5599090000000  0.5400460000000 1.0
C      1  0.5977150000000  0.4819890000000  0.4780480000000 1.0
C      1  0.5532440000000  0.4117130000000  0.5113950000000 1.0
C      1  0.3997640000000  0.4781370000000  0.5118740000000 1.0
C      1  0.4466240000000  0.5495550000000  0.5269090000000 1.0
C      1  0.4949750000000  0.6009170000000  0.5305140000000 1.0
C      1  0.5695600000000  0.4728920000000  0.5482270000000 1.0
C      1  0.4328230000000  0.5159440000000  0.4525840000000 1.0
C      1  0.5027670000000  0.4979920000000  0.6053740000000 1.0
C      1  0.5325690000000  0.4321090000000  0.5189960000000 1.0
C      1  0.4071440000000  0.5228390000000  0.5664700000000 1.0
C      1  0.4093480000000  0.4376910000000  0.5234020000000 1.0
C      1  0.5120990000000  0.5159700000000  0.4105120000000 1.0
C      1  0.4506430000000  0.4551360000000  0.5829430000000 1.0
C      1  0.4744140000000  0.4181060000000  0.5209200000000 1.0
C      1  0.4679600000000  0.4324110000000  0.5454700000000 1.0
C      1  0.4941250000000  0.5475940000000  0.5052760000000 1.0
C      1  0.4155380000000  0.4403240000000  0.4956800000000 1.0
C      1  0.5847010000000  0.4653250000000  0.4570480000000 1.0
C      1  0.5158920000000  0.4931450000000  0.4294380000000 1.0
C      1  0.5313380000000  0.5988340000000  0.4970080000000 1.0
C      1  0.5048120000000  0.4140100000000  0.4845280000000 1.0
C      1  0.4602480000000  0.4198330000000  0.4941190000000 1.0
C      1  0.4294840000000  0.4762800000000  0.5177840000000 1.0
C      1  0.4147690000000  0.5310710000000  0.4696860000000 1.0
C      1  0.5299200000000  0.4540990000000  0.4712610000000 1.0
C      1  0.4195400000000  0.5370170000000  0.5349140000000 1.0
C      1  0.5625110000000  0.5580160000000  0.4722090000000 1.0
C      1  0.4790900000000  0.4156860000000  0.4721280000000 1.0
C      1  0.5776970000000  0.5169440000000  0.5638100000000 1.0
C      1  0.5026750000000  0.6021790000000  0.5037340000000 1.0
C      1  0.4104330000000  0.5150920000000  0.4918550000000 1.0
C      1  0.5276920000000  0.4174970000000  0.4398930000000 1.0
C      1  0.4933830000000  0.5783710000000  0.5466050000000 1.0
C      1  0.5256240000000  0.5058270000000  0.4569640000000 1.0
C      1  0.5447390000000  0.4537470000000  0.4992120000000 1.0
C      1  0.5267180000000  0.4611770000000  0.5803410000000 1.0
C      1  0.4394480000000  0.5757700000000  0.4668650000000 1.0
END
