TITL C-951339-9237-482 -5.75320662294552e-06 125000 -1169.18511636668 0 0 188 (C1) n - 1
REM
REM in /home/bkarasulu/work/CARBON/AIRSS/Generating-Clusters/EDIP-Nigel-Params/with-SteepDescent/Only-C1/SD-CG/HFTN-CG
REM
REM
REM
REM
REM
REM ./C.cell (11c1c37f851c82e70ff6c80c92926a4b)
REM
REM compiler GCC version 9.2.1 20190827 (Red Hat 9.2.1-1)
REM options -cpp -mtune=generic -march=x86-64 -g -O0 -fpre-include=/usr/include/finclude/math-vector-fortran.h
REM seed 174535109 -1066690688 -427223076 -583680691 -1505498274 1241354433 2060278225 624578891 -1797934461 1265842758 728807738 -1637655873 1974323973 926464985 1140351609 -806188254 378780317 215284815 675255766 -1027129228 -1474198196 -1107461634 -1147882899 702462945 644608229 -1008214988 -621910851 -392030859 1229787427 -769200682 1064091875 1666751173 -1454687870
REM
CELL 1.54180   50.00000   50.00000   50.00000   90.00000   90.00000   90.00000
LATT -1
SFAC C  
C      1  0.5278680000000  0.6023880000000  0.4800170000000 1.0
C      1  0.3937020000000  0.5423890000000  0.4773520000000 1.0
C      1  0.5072640000000  0.4743500000000  0.4740320000000 1.0
C      1  0.4143980000000  0.5806580000000  0.4915260000000 1.0
C      1  0.4411530000000  0.5063380000000  0.4446220000000 1.0
C      1  0.4650880000000  0.3906320000000  0.5431080000000 1.0
C      1  0.4621530000000  0.5275400000000  0.4449650000000 1.0
C      1  0.4996130000000  0.5551200000000  0.4506240000000 1.0
C      1  0.5008540000000  0.4498230000000  0.4917860000000 1.0
C      1  0.5146000000000  0.3964600000000  0.4557970000000 1.0
C      1  0.4197180000000  0.5208920000000  0.4289550000000 1.0
C      1  0.4874220000000  0.5786350000000  0.4940580000000 1.0
C      1  0.4009520000000  0.5389570000000  0.5054590000000 1.0
C      1  0.4085900000000  0.4407840000000  0.4887350000000 1.0
C      1  0.4332830000000  0.5105410000000  0.5377650000000 1.0
C      1  0.5600450000000  0.5670360000000  0.4866710000000 1.0
C      1  0.4500470000000  0.4874280000000  0.5556120000000 1.0
C      1  0.5396370000000  0.4039790000000  0.5231890000000 1.0
C      1  0.5062560000000  0.5726120000000  0.5170730000000 1.0
C      1  0.4765030000000  0.4295830000000  0.4302060000000 1.0
C      1  0.4719060000000  0.4808320000000  0.5077450000000 1.0
C      1  0.5342450000000  0.4841320000000  0.4383380000000 1.0
C      1  0.4758590000000  0.4040440000000  0.5210540000000 1.0
C      1  0.5939060000000  0.5537880000000  0.5389120000000 1.0
C      1  0.3869690000000  0.4580530000000  0.4804160000000 1.0
C      1  0.4313690000000  0.4478960000000  0.5508620000000 1.0
C      1  0.4880410000000  0.5110120000000  0.5420490000000 1.0
C      1  0.5710430000000  0.4816720000000  0.4144560000000 1.0
C      1  0.4026570000000  0.4993090000000  0.4749780000000 1.0
C      1  0.5680310000000  0.4933690000000  0.5141770000000 1.0
C      1  0.5309980000000  0.5024910000000  0.5460300000000 1.0
C      1  0.5794450000000  0.4312380000000  0.4727770000000 1.0
C      1  0.5283230000000  0.5124810000000  0.4513200000000 1.0
C      1  0.5450810000000  0.4443960000000  0.4967030000000 1.0
C      1  0.5544260000000  0.5212680000000  0.3933050000000 1.0
C      1  0.5886020000000  0.4653980000000  0.4324630000000 1.0
C      1  0.5891530000000  0.4483860000000  0.4957820000000 1.0
C      1  0.5323990000000  0.5036730000000  0.5919220000000 1.0
C      1  0.4542490000000  0.5857190000000  0.4577650000000 1.0
C      1  0.5138120000000  0.4619580000000  0.5260020000000 1.0
C      1  0.4835450000000  0.4115180000000  0.4731530000000 1.0
C      1  0.4564000000000  0.5440510000000  0.4187500000000 1.0
C      1  0.6207740000000  0.4913370000000  0.4698510000000 1.0
C      1  0.4103040000000  0.4688210000000  0.5483680000000 1.0
C      1  0.4235320000000  0.4794300000000  0.4132900000000 1.0
C      1  0.5120870000000  0.5656830000000  0.4027930000000 1.0
C      1  0.5438510000000  0.5357140000000  0.4402170000000 1.0
C      1  0.4332980000000  0.4999450000000  0.4737250000000 1.0
C      1  0.5815180000000  0.4287780000000  0.5342320000000 1.0
C      1  0.5229110000000  0.4240810000000  0.4537770000000 1.0
C      1  0.4274480000000  0.4568450000000  0.5044920000000 1.0
C      1  0.5323470000000  0.5767860000000  0.4218630000000 1.0
C      1  0.5267560000000  0.5167850000000  0.3929590000000 1.0
C      1  0.5288540000000  0.5359790000000  0.5821900000000 1.0
C      1  0.5637130000000  0.5028580000000  0.5874490000000 1.0
C      1  0.5264710000000  0.5865960000000  0.5588010000000 1.0
C      1  0.5443870000000  0.5811300000000  0.4645580000000 1.0
C      1  0.5291030000000  0.5602050000000  0.4466160000000 1.0
C      1  0.5744110000000  0.5288040000000  0.5775710000000 1.0
C      1  0.4447440000000  0.5231630000000  0.4874080000000 1.0
C      1  0.4611460000000  0.4701720000000  0.6051910000000 1.0
C      1  0.5841390000000  0.4775190000000  0.4944330000000 1.0
C      1  0.5237150000000  0.4870390000000  0.5683890000000 1.0
C      1  0.5422140000000  0.4492480000000  0.5456270000000 1.0
C      1  0.5685510000000  0.4483830000000  0.4493580000000 1.0
C      1  0.4569450000000  0.5430830000000  0.4698570000000 1.0
C      1  0.5620100000000  0.5854130000000  0.5118870000000 1.0
C      1  0.4822620000000  0.4916490000000  0.6130340000000 1.0
C      1  0.5667140000000  0.5679180000000  0.5371790000000 1.0
C      1  0.4725280000000  0.4445380000000  0.5963760000000 1.0
C      1  0.6138620000000  0.4791510000000  0.4965470000000 1.0
C      1  0.3905620000000  0.4896600000000  0.5020370000000 1.0
C      1  0.5274110000000  0.3912350000000  0.5460160000000 1.0
C      1  0.4553000000000  0.4707130000000  0.4489310000000 1.0
C      1  0.4998530000000  0.4501560000000  0.5880690000000 1.0
C      1  0.4088390000000  0.4899970000000  0.5705490000000 1.0
C      1  0.5385990000000  0.4713680000000  0.4825880000000 1.0
C      1  0.5533180000000  0.4729530000000  0.4580270000000 1.0
C      1  0.5745630000000  0.4784290000000  0.5726060000000 1.0
C      1  0.4449190000000  0.5887440000000  0.5510710000000 1.0
C      1  0.4443660000000  0.5149090000000  0.5938310000000 1.0
C      1  0.5133910000000  0.4348430000000  0.3997070000000 1.0
C      1  0.4842430000000  0.5520840000000  0.4770380000000 1.0
C      1  0.4368500000000  0.4874320000000  0.5831990000000 1.0
C      1  0.6083320000000  0.4794520000000  0.4473020000000 1.0
C      1  0.3824630000000  0.5182360000000  0.5428790000000 1.0
C      1  0.6165970000000  0.5014390000000  0.5179750000000 1.0
C      1  0.5687660000000  0.4548790000000  0.5882510000000 1.0
C      1  0.5489930000000  0.5445090000000  0.5294970000000 1.0
C      1  0.4790180000000  0.5933070000000  0.5679140000000 1.0
C      1  0.5222440000000  0.4300400000000  0.4840250000000 1.0
C      1  0.5213120000000  0.4906380000000  0.5218350000000 1.0
C      1  0.5299470000000  0.5554470000000  0.5081460000000 1.0
C      1  0.5913530000000  0.5285120000000  0.5536200000000 1.0
C      1  0.5377330000000  0.6032980000000  0.5094370000000 1.0
C      1  0.4928710000000  0.5020570000000  0.4747720000000 1.0
C      1  0.4321350000000  0.4301000000000  0.5724820000000 1.0
C      1  0.5432140000000  0.3929970000000  0.4959240000000 1.0
C      1  0.4310440000000  0.5347630000000  0.4072780000000 1.0
C      1  0.4806730000000  0.4849850000000  0.4355050000000 1.0
C      1  0.4381480000000  0.4113940000000  0.4558360000000 1.0
C      1  0.4828010000000  0.4605960000000  0.5302950000000 1.0
C      1  0.5729670000000  0.5257250000000  0.5134190000000 1.0
C      1  0.4974710000000  0.6010130000000  0.4773780000000 1.0
C      1  0.4748420000000  0.5116720000000  0.5923180000000 1.0
C      1  0.5453200000000  0.4702200000000  0.4034530000000 1.0
C      1  0.5587610000000  0.5887100000000  0.4290760000000 1.0
C      1  0.5059200000000  0.4691940000000  0.4439970000000 1.0
C      1  0.4994810000000  0.5362510000000  0.5487040000000 1.0
C      1  0.3890850000000  0.4894570000000  0.4484480000000 1.0
C      1  0.4606010000000  0.5844240000000  0.5073220000000 1.0
C      1  0.5574630000000  0.4363660000000  0.5704620000000 1.0
C      1  0.5634020000000  0.5354920000000  0.4865430000000 1.0
C      1  0.4683310000000  0.4332490000000  0.5178310000000 1.0
C      1  0.5042690000000  0.5807460000000  0.5771810000000 1.0
C      1  0.4798850000000  0.5412890000000  0.5942510000000 1.0
C      1  0.6050020000000  0.5037100000000  0.5451580000000 1.0
C      1  0.6156350000000  0.5248540000000  0.5015770000000 1.0
C      1  0.4594920000000  0.6038390000000  0.5300100000000 1.0
C      1  0.5416180000000  0.4936040000000  0.5005150000000 1.0
C      1  0.5895440000000  0.4578620000000  0.5336250000000 1.0
C      1  0.4777410000000  0.4946090000000  0.5645720000000 1.0
C      1  0.5634410000000  0.4728080000000  0.5431230000000 1.0
C      1  0.6043020000000  0.5486450000000  0.5124130000000 1.0
C      1  0.5062160000000  0.5369690000000  0.4003990000000 1.0
C      1  0.5727920000000  0.5420320000000  0.4394560000000 1.0
C      1  0.5171640000000  0.3861800000000  0.4825790000000 1.0
C      1  0.4827200000000  0.3907470000000  0.4958830000000 1.0
C      1  0.4453440000000  0.5404350000000  0.5757960000000 1.0
C      1  0.4150260000000  0.5695490000000  0.4439460000000 1.0
C      1  0.4412640000000  0.5724490000000  0.4350120000000 1.0
C      1  0.5285230000000  0.5313700000000  0.5514160000000 1.0
C      1  0.4984440000000  0.4708180000000  0.5649050000000 1.0
C      1  0.5477920000000  0.4310050000000  0.4353220000000 1.0
C      1  0.5781990000000  0.4194190000000  0.5607610000000 1.0
C      1  0.4879480000000  0.5563380000000  0.5326070000000 1.0
C      1  0.4342210000000  0.4599470000000  0.4302550000000 1.0
C      1  0.4578730000000  0.5560920000000  0.5248800000000 1.0
C      1  0.4489710000000  0.4729630000000  0.4869610000000 1.0
C      1  0.5121600000000  0.4857270000000  0.6114610000000 1.0
C      1  0.4745870000000  0.4988860000000  0.4004380000000 1.0
C      1  0.4651330000000  0.4100160000000  0.4489110000000 1.0
C      1  0.5545300000000  0.5509070000000  0.5821510000000 1.0
C      1  0.4859390000000  0.6089850000000  0.5434190000000 1.0
C      1  0.5895430000000  0.5253290000000  0.4244560000000 1.0
C      1  0.5763310000000  0.5090120000000  0.4061120000000 1.0
C      1  0.4037740000000  0.4977160000000  0.4225360000000 1.0
C      1  0.5395010000000  0.4412050000000  0.4084370000000 1.0
C      1  0.4079910000000  0.5175780000000  0.5557750000000 1.0
C      1  0.4895430000000  0.5754710000000  0.4326910000000 1.0
C      1  0.5526730000000  0.4308050000000  0.5237640000000 1.0
C      1  0.5388940000000  0.5179110000000  0.4823120000000 1.0
C      1  0.4761100000000  0.5091990000000  0.5150510000000 1.0
C      1  0.4783620000000  0.5280910000000  0.4016020000000 1.0
C      1  0.4314730000000  0.5316740000000  0.5115650000000 1.0
C      1  0.5011100000000  0.4401130000000  0.4419300000000 1.0
C      1  0.3876280000000  0.4599960000000  0.4517170000000 1.0
C      1  0.4915640000000  0.5250130000000  0.4929980000000 1.0
C      1  0.4749840000000  0.4046800000000  0.5652590000000 1.0
C      1  0.4894820000000  0.5122110000000  0.4474670000000 1.0
C      1  0.5532120000000  0.5740840000000  0.5628000000000 1.0
C      1  0.4218420000000  0.5695080000000  0.5456370000000 1.0
C      1  0.5163150000000  0.4579350000000  0.6099060000000 1.0
C      1  0.4175530000000  0.5467080000000  0.5655340000000 1.0
C      1  0.4553400000000  0.5307160000000  0.5479010000000 1.0
C      1  0.4900330000000  0.4502420000000  0.4003450000000 1.0
C      1  0.4114190000000  0.4767730000000  0.5196260000000 1.0
C      1  0.4812130000000  0.5965850000000  0.4513230000000 1.0
C      1  0.4067860000000  0.5675060000000  0.5186920000000 1.0
C      1  0.4396270000000  0.4386270000000  0.5242670000000 1.0
C      1  0.5010100000000  0.3958990000000  0.5739300000000 1.0
C      1  0.5190820000000  0.5317730000000  0.4968400000000 1.0
C      1  0.5771700000000  0.5697140000000  0.4373040000000 1.0
C      1  0.4593550000000  0.4262770000000  0.5777230000000 1.0
C      1  0.5630090000000  0.4080510000000  0.4801600000000 1.0
C      1  0.4945950000000  0.4786040000000  0.3944920000000 1.0
C      1  0.4018000000000  0.5674850000000  0.4685980000000 1.0
C      1  0.5217410000000  0.4884620000000  0.3966880000000 1.0
C      1  0.6028010000000  0.4801800000000  0.5619250000000 1.0
C      1  0.4745780000000  0.4371470000000  0.4883740000000 1.0
C      1  0.5049380000000  0.5536710000000  0.5892160000000 1.0
C      1  0.5273540000000  0.4037350000000  0.5706620000000 1.0
C      1  0.5148970000000  0.5976360000000  0.5325030000000 1.0
C      1  0.6205170000000  0.5193410000000  0.4742410000000 1.0
C      1  0.4417080000000  0.5896080000000  0.4852090000000 1.0
C      1  0.4189680000000  0.4198440000000  0.4729230000000 1.0
C      1  0.4108820000000  0.4476480000000  0.4406530000000 1.0
C      1  0.3838150000000  0.5166120000000  0.5157290000000 1.0
END
