TITL C-950534-5965-674 2.36538232404087e-06 125000 -1004.85067523649 0 0 161 (C1) n - 1
REM
REM in /home/bkarasulu/work/CARBON/AIRSS/Generating-Clusters/EDIP-Nigel-Params/with-SteepDescent/Only-C1/SD-CG/HFTN-CG
REM
REM
REM
REM
REM
REM ./C.cell (11c1c37f851c82e70ff6c80c92926a4b)
REM
REM compiler GCC version 9.2.1 20190827 (Red Hat 9.2.1-1)
REM options -cpp -mtune=generic -march=x86-64 -g -O0 -fpre-include=/usr/include/finclude/math-vector-fortran.h
REM seed -585768828 2787768 -250000971 -230253040 457042829 -1690031315 137569725 838988270 399518926 -52445312 -159090296 -1503866497 344898659 -2047206189 -81082422 1495679854 473879205 1525510263 876599430 269709063 1336380198 -377618309 1033568274 1926699079 -106474030 -515084929 -279114744 269133246 -527207834 -1215044708 -1499817719 29805896 -753864635
REM
CELL 1.54180   50.00000   50.00000   50.00000   90.00000   90.00000   90.00000
LATT -1
SFAC C  
C      1  0.5886510000000  0.5310450000000  0.4383870000000 1.0
C      1  0.4772470000000  0.5049140000000  0.5543970000000 1.0
C      1  0.4663940000000  0.5450180000000  0.5285580000000 1.0
C      1  0.3916680000000  0.5206310000000  0.4918440000000 1.0
C      1  0.5367450000000  0.4095940000000  0.5463300000000 1.0
C      1  0.4322030000000  0.4900040000000  0.5783680000000 1.0
C      1  0.5226730000000  0.4632030000000  0.4745390000000 1.0
C      1  0.5314890000000  0.5077120000000  0.4548480000000 1.0
C      1  0.4251130000000  0.4278070000000  0.4589120000000 1.0
C      1  0.4454050000000  0.4083800000000  0.5251480000000 1.0
C      1  0.5247150000000  0.5284160000000  0.5688440000000 1.0
C      1  0.5094310000000  0.5526610000000  0.4997010000000 1.0
C      1  0.4755280000000  0.4897070000000  0.6063290000000 1.0
C      1  0.5196640000000  0.5824200000000  0.5618560000000 1.0
C      1  0.5500480000000  0.5127000000000  0.4289540000000 1.0
C      1  0.5375350000000  0.5595120000000  0.5728950000000 1.0
C      1  0.5687680000000  0.5623280000000  0.5500470000000 1.0
C      1  0.4743430000000  0.5576180000000  0.5003000000000 1.0
C      1  0.5428140000000  0.5586620000000  0.6012160000000 1.0
C      1  0.4275840000000  0.4095590000000  0.5032860000000 1.0
C      1  0.4854560000000  0.4557310000000  0.4472470000000 1.0
C      1  0.5586800000000  0.5330910000000  0.5464940000000 1.0
C      1  0.5402410000000  0.5321190000000  0.6076110000000 1.0
C      1  0.5927310000000  0.5687230000000  0.5013720000000 1.0
C      1  0.5337010000000  0.5780820000000  0.4383180000000 1.0
C      1  0.5404750000000  0.4506810000000  0.5210190000000 1.0
C      1  0.5486690000000  0.4554270000000  0.5851120000000 1.0
C      1  0.5462610000000  0.5553000000000  0.4972870000000 1.0
C      1  0.4635260000000  0.4528910000000  0.5209580000000 1.0
C      1  0.5249580000000  0.3913910000000  0.4933560000000 1.0
C      1  0.4078000000000  0.5137820000000  0.5415270000000 1.0
C      1  0.4978830000000  0.4252990000000  0.4962960000000 1.0
C      1  0.5810440000000  0.4318620000000  0.4976430000000 1.0
C      1  0.5060810000000  0.4822260000000  0.5185220000000 1.0
C      1  0.5232890000000  0.4496100000000  0.4180400000000 1.0
C      1  0.4842540000000  0.5975450000000  0.5164340000000 1.0
C      1  0.5565880000000  0.4937300000000  0.4962850000000 1.0
C      1  0.5071070000000  0.5039980000000  0.4119960000000 1.0
C      1  0.5592560000000  0.4739670000000  0.5175720000000 1.0
C      1  0.5287090000000  0.5863850000000  0.5346150000000 1.0
C      1  0.5323680000000  0.5163600000000  0.4031720000000 1.0
C      1  0.5813360000000  0.5144100000000  0.5549890000000 1.0
C      1  0.4346810000000  0.5298720000000  0.5449750000000 1.0
C      1  0.4870190000000  0.4506470000000  0.5435130000000 1.0
C      1  0.4026350000000  0.5074700000000  0.4667750000000 1.0
C      1  0.5177070000000  0.5294550000000  0.4733400000000 1.0
C      1  0.5696690000000  0.5455770000000  0.4219740000000 1.0
C      1  0.5783200000000  0.4207620000000  0.5232430000000 1.0
C      1  0.4729810000000  0.5924270000000  0.5434760000000 1.0
C      1  0.4910110000000  0.4215650000000  0.5550940000000 1.0
C      1  0.5210630000000  0.5068180000000  0.5288700000000 1.0
C      1  0.4580330000000  0.5793880000000  0.4535990000000 1.0
C      1  0.4235050000000  0.5578750000000  0.4920650000000 1.0
C      1  0.4311600000000  0.4723260000000  0.4892110000000 1.0
C      1  0.5118600000000  0.4658440000000  0.4441800000000 1.0
C      1  0.5256690000000  0.5457630000000  0.3998480000000 1.0
C      1  0.4696120000000  0.4675420000000  0.5874320000000 1.0
C      1  0.5337490000000  0.5047920000000  0.6048290000000 1.0
C      1  0.4221170000000  0.5294890000000  0.4446590000000 1.0
C      1  0.5590420000000  0.4399960000000  0.4537200000000 1.0
C      1  0.3907610000000  0.4791880000000  0.4642370000000 1.0
C      1  0.5536800000000  0.4852250000000  0.5898660000000 1.0
C      1  0.4369450000000  0.5570820000000  0.5592480000000 1.0
C      1  0.5560810000000  0.5781290000000  0.4574940000000 1.0
C      1  0.5130760000000  0.4795650000000  0.5748760000000 1.0
C      1  0.5673770000000  0.4713640000000  0.4553270000000 1.0
C      1  0.4290920000000  0.5853640000000  0.4960490000000 1.0
C      1  0.3945900000000  0.4628770000000  0.4885600000000 1.0
C      1  0.4427600000000  0.4633580000000  0.5818350000000 1.0
C      1  0.5572440000000  0.5338180000000  0.5153790000000 1.0
C      1  0.4649290000000  0.5004930000000  0.5026710000000 1.0
C      1  0.5756770000000  0.4909610000000  0.5709370000000 1.0
C      1  0.5641240000000  0.5799220000000  0.5035540000000 1.0
C      1  0.5175530000000  0.4198020000000  0.5680640000000 1.0
C      1  0.4960780000000  0.5524010000000  0.4006970000000 1.0
C      1  0.4576970000000  0.4995000000000  0.4331000000000 1.0
C      1  0.4288730000000  0.5034330000000  0.4312300000000 1.0
C      1  0.5829230000000  0.5359520000000  0.4673920000000 1.0
C      1  0.5364170000000  0.4297140000000  0.4367770000000 1.0
C      1  0.5569830000000  0.5834310000000  0.5319430000000 1.0
C      1  0.3985590000000  0.4669380000000  0.4401120000000 1.0
C      1  0.4854000000000  0.4749600000000  0.5634620000000 1.0
C      1  0.4931020000000  0.4018680000000  0.5331720000000 1.0
C      1  0.4378020000000  0.4376880000000  0.5284240000000 1.0
C      1  0.5915880000000  0.4776380000000  0.4741930000000 1.0
C      1  0.4778020000000  0.5151080000000  0.5250920000000 1.0
C      1  0.5050340000000  0.4976470000000  0.5985960000000 1.0
C      1  0.4518720000000  0.5342360000000  0.6033230000000 1.0
C      1  0.5966670000000  0.5019360000000  0.5330220000000 1.0
C      1  0.5496820000000  0.5960340000000  0.4806610000000 1.0
C      1  0.4982180000000  0.4719240000000  0.4912460000000 1.0
C      1  0.5930770000000  0.5044080000000  0.4300750000000 1.0
C      1  0.5400530000000  0.5128230000000  0.5076630000000 1.0
C      1  0.4816320000000  0.4917390000000  0.4787460000000 1.0
C      1  0.4641530000000  0.4119420000000  0.4403540000000 1.0
C      1  0.5080030000000  0.5759540000000  0.4557060000000 1.0
C      1  0.5986580000000  0.5202490000000  0.5113910000000 1.0
C      1  0.4398100000000  0.4122330000000  0.4776360000000 1.0
C      1  0.5666010000000  0.4451250000000  0.5639800000000 1.0
C      1  0.5563290000000  0.4306480000000  0.5391190000000 1.0
C      1  0.5228800000000  0.4438380000000  0.5840740000000 1.0
C      1  0.5565120000000  0.4264700000000  0.4807310000000 1.0
C      1  0.6008820000000  0.5562470000000  0.4775650000000 1.0
C      1  0.4875430000000  0.5759720000000  0.4138770000000 1.0
C      1  0.4491260000000  0.4778190000000  0.5136350000000 1.0
C      1  0.4220260000000  0.4744390000000  0.4264350000000 1.0
C      1  0.4109880000000  0.4873180000000  0.5556530000000 1.0
C      1  0.5852820000000  0.5084590000000  0.4865360000000 1.0
C      1  0.4807480000000  0.4835190000000  0.3933660000000 1.0
C      1  0.4937410000000  0.5275320000000  0.5681390000000 1.0
C      1  0.5561290000000  0.5499980000000  0.4690700000000 1.0
C      1  0.4106940000000  0.4634140000000  0.5371770000000 1.0
C      1  0.4478090000000  0.5537290000000  0.5850390000000 1.0
C      1  0.5697950000000  0.4888920000000  0.4301150000000 1.0
C      1  0.4853200000000  0.5271550000000  0.4128680000000 1.0
C      1  0.5121180000000  0.5947260000000  0.5122010000000 1.0
C      1  0.5204560000000  0.5917720000000  0.4840390000000 1.0
C      1  0.4452440000000  0.5811690000000  0.5429130000000 1.0
C      1  0.4457370000000  0.4556110000000  0.4221370000000 1.0
C      1  0.3990400000000  0.5040340000000  0.5152290000000 1.0
C      1  0.4903840000000  0.5500010000000  0.5493820000000 1.0
C      1  0.5853340000000  0.4663580000000  0.5575610000000 1.0
C      1  0.4720970000000  0.4584780000000  0.4050140000000 1.0
C      1  0.4884500000000  0.4274490000000  0.4355160000000 1.0
C      1  0.4755840000000  0.5313380000000  0.4435920000000 1.0
C      1  0.4953500000000  0.4384110000000  0.4076720000000 1.0
C      1  0.4717800000000  0.4036610000000  0.5150220000000 1.0
C      1  0.5442640000000  0.4842480000000  0.4710450000000 1.0
C      1  0.3976840000000  0.5476490000000  0.4936020000000 1.0
C      1  0.4656200000000  0.4006420000000  0.4677030000000 1.0
C      1  0.4490550000000  0.5094350000000  0.5616030000000 1.0
C      1  0.4840300000000  0.5862870000000  0.4400320000000 1.0
C      1  0.4296600000000  0.4984650000000  0.4751520000000 1.0
C      1  0.4996340000000  0.5457430000000  0.4577010000000 1.0
C      1  0.4493590000000  0.5469060000000  0.4520810000000 1.0
C      1  0.4445650000000  0.5166070000000  0.4908550000000 1.0
C      1  0.5315800000000  0.4393110000000  0.4934620000000 1.0
C      1  0.4770220000000  0.4481690000000  0.4932660000000 1.0
C      1  0.4282070000000  0.5919140000000  0.5230720000000 1.0
C      1  0.4490700000000  0.4546520000000  0.4721820000000 1.0
C      1  0.4703000000000  0.6102340000000  0.4951440000000 1.0
C      1  0.5421300000000  0.5553990000000  0.4219010000000 1.0
C      1  0.4666180000000  0.4767300000000  0.4568290000000 1.0
C      1  0.5875390000000  0.4733440000000  0.5281840000000 1.0
C      1  0.4484040000000  0.5440110000000  0.4829920000000 1.0
C      1  0.5000820000000  0.4027220000000  0.4748500000000 1.0
C      1  0.5496750000000  0.3983170000000  0.4813430000000 1.0
C      1  0.5342910000000  0.5001720000000  0.5583660000000 1.0
C      1  0.4562350000000  0.5877880000000  0.4837620000000 1.0
C      1  0.5951740000000  0.4583740000000  0.4970740000000 1.0
C      1  0.4906740000000  0.5771520000000  0.5623730000000 1.0
C      1  0.4502410000000  0.5063580000000  0.6055730000000 1.0
C      1  0.5143990000000  0.4595740000000  0.5331270000000 1.0
C      1  0.4414560000000  0.4299710000000  0.4360260000000 1.0
C      1  0.3956280000000  0.4750850000000  0.5149800000000 1.0
C      1  0.5206370000000  0.3990870000000  0.5232160000000 1.0
C      1  0.5927000000000  0.5482480000000  0.5224970000000 1.0
C      1  0.5106690000000  0.5389770000000  0.5278070000000 1.0
C      1  0.5102450000000  0.4946320000000  0.4395710000000 1.0
C      1  0.4648000000000  0.5057070000000  0.4021440000000 1.0
C      1  0.5121410000000  0.4154960000000  0.4492850000000 1.0
END
