TITL C-950521-2237-460 -1.6979890370263e-06 125000 -1008.01944690405 0 0 162 (C1) n - 1
REM
REM in /home/bkarasulu/work/CARBON/AIRSS/Generating-Clusters/EDIP-Nigel-Params/with-SteepDescent/Only-C1/SD-CG/HFTN-CG
REM
REM
REM
REM
REM
REM ./C.cell (11c1c37f851c82e70ff6c80c92926a4b)
REM
REM compiler GCC version 9.2.1 20190827 (Red Hat 9.2.1-1)
REM options -cpp -mtune=generic -march=x86-64 -g -O0 -fpre-include=/usr/include/finclude/math-vector-fortran.h
REM seed 304080289 -1633551408 -761588324 -705280992 387546978 -946133654 -104467151 -763872359 1068107078 -123144103 -665073201 -679875979 -1616091995 179315840 -548737975 -1698456187 598972255 -1449728432 1008166664 228723392 1697265662 -1425574090 1701046583 201584323 40256644 1754296429 -1092648010 -112893439 163995977 945985015 1303686104 2037014106 -388244895
REM
CELL 1.54180   50.00000   50.00000   50.00000   90.00000   90.00000   90.00000
LATT -1
SFAC C  
C      1  0.5590940000000  0.4374510000000  0.5623060000000 1.0
C      1  0.5158710000000  0.4568000000000  0.3968430000000 1.0
C      1  0.4150220000000  0.5496950000000  0.4941890000000 1.0
C      1  0.4525680000000  0.5365250000000  0.5891490000000 1.0
C      1  0.5066790000000  0.5332440000000  0.4117920000000 1.0
C      1  0.4703460000000  0.5472960000000  0.4069310000000 1.0
C      1  0.3891160000000  0.5140270000000  0.5123160000000 1.0
C      1  0.4676440000000  0.5136660000000  0.4938460000000 1.0
C      1  0.4753810000000  0.5482770000000  0.5599320000000 1.0
C      1  0.5193500000000  0.4092670000000  0.4535520000000 1.0
C      1  0.4792150000000  0.4288460000000  0.5916760000000 1.0
C      1  0.5008340000000  0.4552030000000  0.4844780000000 1.0
C      1  0.4562880000000  0.5975370000000  0.4748180000000 1.0
C      1  0.4786380000000  0.4011150000000  0.5352930000000 1.0
C      1  0.4114070000000  0.4796750000000  0.5372900000000 1.0
C      1  0.4585330000000  0.5666130000000  0.5778020000000 1.0
C      1  0.4669650000000  0.4432760000000  0.5288290000000 1.0
C      1  0.6042090000000  0.4545060000000  0.4984360000000 1.0
C      1  0.5589730000000  0.5510310000000  0.5685560000000 1.0
C      1  0.4980610000000  0.5510260000000  0.4447020000000 1.0
C      1  0.4408260000000  0.5547570000000  0.4050200000000 1.0
C      1  0.5156980000000  0.5550480000000  0.5912450000000 1.0
C      1  0.4725300000000  0.6039700000000  0.4520280000000 1.0
C      1  0.4762420000000  0.5012500000000  0.4208690000000 1.0
C      1  0.5725020000000  0.5718470000000  0.4798280000000 1.0
C      1  0.4292130000000  0.4947650000000  0.4379500000000 1.0
C      1  0.5104590000000  0.5377050000000  0.4977090000000 1.0
C      1  0.5810360000000  0.4381850000000  0.4862280000000 1.0
C      1  0.4475460000000  0.5692010000000  0.4732500000000 1.0
C      1  0.4623420000000  0.5418130000000  0.5343610000000 1.0
C      1  0.5506250000000  0.4597420000000  0.4739830000000 1.0
C      1  0.5093040000000  0.5031020000000  0.5683720000000 1.0
C      1  0.4134600000000  0.4602530000000  0.4655050000000 1.0
C      1  0.4775170000000  0.5219670000000  0.5213260000000 1.0
C      1  0.5850890000000  0.5451530000000  0.4941890000000 1.0
C      1  0.4579820000000  0.4853610000000  0.5514600000000 1.0
C      1  0.4016300000000  0.4636390000000  0.5132040000000 1.0
C      1  0.5035830000000  0.5320910000000  0.6007560000000 1.0
C      1  0.5554240000000  0.4672140000000  0.5299450000000 1.0
C      1  0.5700360000000  0.4431970000000  0.4568540000000 1.0
C      1  0.4712560000000  0.5834580000000  0.4321930000000 1.0
C      1  0.5170370000000  0.4356450000000  0.5947930000000 1.0
C      1  0.5258990000000  0.4086590000000  0.4809480000000 1.0
C      1  0.4742520000000  0.6103870000000  0.5194630000000 1.0
C      1  0.5807370000000  0.4926420000000  0.4527010000000 1.0
C      1  0.5788120000000  0.4648630000000  0.4385230000000 1.0
C      1  0.5364040000000  0.4437900000000  0.4153490000000 1.0
C      1  0.5029870000000  0.4133500000000  0.5460840000000 1.0
C      1  0.5440260000000  0.5653730000000  0.5239380000000 1.0
C      1  0.5228140000000  0.5839070000000  0.4738660000000 1.0
C      1  0.5888910000000  0.4793560000000  0.5648900000000 1.0
C      1  0.5206180000000  0.5084250000000  0.6055470000000 1.0
C      1  0.5923770000000  0.4972140000000  0.5198090000000 1.0
C      1  0.6006100000000  0.5193560000000  0.5391980000000 1.0
C      1  0.4684250000000  0.4050720000000  0.4648570000000 1.0
C      1  0.4730290000000  0.4588380000000  0.5555510000000 1.0
C      1  0.5502530000000  0.5184490000000  0.4221850000000 1.0
C      1  0.4318180000000  0.5198140000000  0.5754820000000 1.0
C      1  0.5212000000000  0.4967520000000  0.5135290000000 1.0
C      1  0.4855080000000  0.5558490000000  0.4920570000000 1.0
C      1  0.5470070000000  0.4845880000000  0.5092000000000 1.0
C      1  0.5285210000000  0.5714700000000  0.4150380000000 1.0
C      1  0.5088940000000  0.5924000000000  0.5211810000000 1.0
C      1  0.5377330000000  0.4904990000000  0.4211910000000 1.0
C      1  0.5723700000000  0.5641650000000  0.4507080000000 1.0
C      1  0.5901840000000  0.5402230000000  0.4471170000000 1.0
C      1  0.4983010000000  0.4503110000000  0.5142180000000 1.0
C      1  0.5685830000000  0.5589540000000  0.5410060000000 1.0
C      1  0.4424180000000  0.4464180000000  0.4296460000000 1.0
C      1  0.5322780000000  0.5645330000000  0.5710320000000 1.0
C      1  0.5382170000000  0.5491960000000  0.4961230000000 1.0
C      1  0.5607550000000  0.5287260000000  0.4931840000000 1.0
C      1  0.5657820000000  0.5063950000000  0.5110480000000 1.0
C      1  0.4635330000000  0.5276930000000  0.4306370000000 1.0
C      1  0.4337870000000  0.4914200000000  0.5808000000000 1.0
C      1  0.5078950000000  0.5357040000000  0.5415790000000 1.0
C      1  0.4861960000000  0.5036120000000  0.4745980000000 1.0
C      1  0.5482050000000  0.5909020000000  0.4876820000000 1.0
C      1  0.5912560000000  0.5456460000000  0.5267290000000 1.0
C      1  0.5356140000000  0.4506350000000  0.5458330000000 1.0
C      1  0.4654450000000  0.4036030000000  0.5089950000000 1.0
C      1  0.5199830000000  0.5636540000000  0.5434490000000 1.0
C      1  0.5445290000000  0.5580780000000  0.4394660000000 1.0
C      1  0.5405040000000  0.5944050000000  0.5169210000000 1.0
C      1  0.5510950000000  0.4749220000000  0.5980070000000 1.0
C      1  0.4666590000000  0.5861000000000  0.5330010000000 1.0
C      1  0.6003010000000  0.4487170000000  0.5280520000000 1.0
C      1  0.4776500000000  0.5206620000000  0.5942720000000 1.0
C      1  0.4960560000000  0.5756390000000  0.4146980000000 1.0
C      1  0.4348310000000  0.4734210000000  0.4183900000000 1.0
C      1  0.5045740000000  0.4832210000000  0.6071670000000 1.0
C      1  0.4282490000000  0.4377830000000  0.4543020000000 1.0
C      1  0.4319250000000  0.5243800000000  0.4275870000000 1.0
C      1  0.4351130000000  0.4332230000000  0.5693960000000 1.0
C      1  0.5196310000000  0.4852340000000  0.4468480000000 1.0
C      1  0.5597480000000  0.5197040000000  0.5734600000000 1.0
C      1  0.4458330000000  0.4596230000000  0.5129720000000 1.0
C      1  0.4453420000000  0.4911740000000  0.4626640000000 1.0
C      1  0.6050330000000  0.5000380000000  0.4701960000000 1.0
C      1  0.4883600000000  0.4886360000000  0.4463120000000 1.0
C      1  0.4801490000000  0.4376470000000  0.4264870000000 1.0
C      1  0.5777920000000  0.4289260000000  0.5347780000000 1.0
C      1  0.5239330000000  0.5574820000000  0.4607980000000 1.0
C      1  0.5878830000000  0.5095360000000  0.5659080000000 1.0
C      1  0.4542170000000  0.4754420000000  0.5941110000000 1.0
C      1  0.4783040000000  0.3911190000000  0.4872040000000 1.0
C      1  0.4389740000000  0.4175640000000  0.5022600000000 1.0
C      1  0.5194000000000  0.4306980000000  0.5270360000000 1.0
C      1  0.4155050000000  0.4362820000000  0.5191470000000 1.0
C      1  0.6039610000000  0.5309670000000  0.4727630000000 1.0
C      1  0.5365870000000  0.4168650000000  0.5057820000000 1.0
C      1  0.4806710000000  0.6067590000000  0.4902600000000 1.0
C      1  0.6080510000000  0.4852270000000  0.4963790000000 1.0
C      1  0.5376340000000  0.5067600000000  0.5571830000000 1.0
C      1  0.5202070000000  0.4366880000000  0.4409750000000 1.0
C      1  0.4296150000000  0.5634590000000  0.5134710000000 1.0
C      1  0.4998810000000  0.5838110000000  0.4927370000000 1.0
C      1  0.4067660000000  0.4772070000000  0.4880900000000 1.0
C      1  0.4891580000000  0.4115360000000  0.4430760000000 1.0
C      1  0.4740970000000  0.4614320000000  0.4463430000000 1.0
C      1  0.4488250000000  0.4640290000000  0.4817120000000 1.0
C      1  0.5568120000000  0.4669350000000  0.4180500000000 1.0
C      1  0.5570150000000  0.4901180000000  0.4718670000000 1.0
C      1  0.5506770000000  0.5054770000000  0.5997230000000 1.0
C      1  0.4574430000000  0.4840880000000  0.4037500000000 1.0
C      1  0.5194760000000  0.4873050000000  0.3985840000000 1.0
C      1  0.4282530000000  0.5668990000000  0.4506100000000 1.0
C      1  0.5091640000000  0.4695810000000  0.5588330000000 1.0
C      1  0.5353620000000  0.5401570000000  0.4060530000000 1.0
C      1  0.5005510000000  0.4283090000000  0.5720340000000 1.0
C      1  0.4478630000000  0.4220150000000  0.5448460000000 1.0
C      1  0.4189430000000  0.5285080000000  0.5503460000000 1.0
C      1  0.4823560000000  0.4997810000000  0.5412610000000 1.0
C      1  0.4728330000000  0.5439980000000  0.4628880000000 1.0
C      1  0.4009080000000  0.5085530000000  0.5371760000000 1.0
C      1  0.4214730000000  0.5572870000000  0.5415990000000 1.0
C      1  0.5291190000000  0.5180810000000  0.5325780000000 1.0
C      1  0.5317620000000  0.5048370000000  0.4651700000000 1.0
C      1  0.4696890000000  0.4645290000000  0.3878670000000 1.0
C      1  0.5704640000000  0.4610810000000  0.5800700000000 1.0
C      1  0.4426570000000  0.5753440000000  0.4259200000000 1.0
C      1  0.4979220000000  0.5072690000000  0.4019390000000 1.0
C      1  0.5655400000000  0.4227180000000  0.5078360000000 1.0
C      1  0.5226420000000  0.4580420000000  0.4623210000000 1.0
C      1  0.5241410000000  0.4631200000000  0.5995630000000 1.0
C      1  0.4162650000000  0.5397320000000  0.4483590000000 1.0
C      1  0.4164520000000  0.5273930000000  0.4764500000000 1.0
C      1  0.4781830000000  0.4917600000000  0.5974200000000 1.0
C      1  0.4138170000000  0.4431130000000  0.5504790000000 1.0
C      1  0.5120750000000  0.5100160000000  0.4869860000000 1.0
C      1  0.4439530000000  0.4205720000000  0.4731300000000 1.0
C      1  0.4462310000000  0.5809400000000  0.5550950000000 1.0
C      1  0.4394690000000  0.4827440000000  0.5293050000000 1.0
C      1  0.4599820000000  0.5632070000000  0.5152830000000 1.0
C      1  0.4591440000000  0.4479630000000  0.5805410000000 1.0
C      1  0.5020600000000  0.4784170000000  0.5278720000000 1.0
C      1  0.4751860000000  0.4517540000000  0.4730600000000 1.0
C      1  0.5847790000000  0.4728060000000  0.5365260000000 1.0
C      1  0.4433720000000  0.5147650000000  0.4791700000000 1.0
C      1  0.5764330000000  0.5168080000000  0.4349660000000 1.0
C      1  0.3971520000000  0.5056060000000  0.4867040000000 1.0
C      1  0.4881960000000  0.4466930000000  0.3987850000000 1.0
END
