TITL C-950530-3293-183 -2.30291241994425e-06 125000 -465.085624037362 0 0 78 (C1) n - 1
REM
REM in /home/bkarasulu/work/CARBON/AIRSS/Generating-Clusters/EDIP-Nigel-Params/with-SteepDescent/Only-C1/SD-CG/HFTN-CG
REM
REM
REM
REM
REM
REM ./C.cell (11c1c37f851c82e70ff6c80c92926a4b)
REM
REM compiler GCC version 9.2.1 20190827 (Red Hat 9.2.1-1)
REM options -cpp -mtune=generic -march=x86-64 -g -O0 -fpre-include=/usr/include/finclude/math-vector-fortran.h
REM seed -1046300033 -40580990 2007305745 -1876255337 875520279 -1660294390 1528625725 -1937238496 -211935252 -953510030 -416843617 1019130766 915248711 -1827898509 1400278789 1391468474 -849302308 958388743 406990746 1418281565 1570831914 1162510610 -496135963 425696756 -1754656012 211472935 2048851805 1461926209 -350602885 98563339 1459185052 1704465122 -611988447
REM
CELL 1.54180   50.00000   50.00000   50.00000   90.00000   90.00000   90.00000
LATT -1
SFAC C  
C      1  0.4481060000000  0.4976360000000  0.4996230000000 1.0
C      1  0.5331220000000  0.5080280000000  0.4268520000000 1.0
C      1  0.4921440000000  0.4895470000000  0.4826080000000 1.0
C      1  0.4753940000000  0.5862580000000  0.5172160000000 1.0
C      1  0.4650200000000  0.5435710000000  0.5547170000000 1.0
C      1  0.5660980000000  0.5032200000000  0.4660880000000 1.0
C      1  0.4263000000000  0.4741370000000  0.5361330000000 1.0
C      1  0.5713660000000  0.4942880000000  0.5404420000000 1.0
C      1  0.4605430000000  0.4268240000000  0.5361940000000 1.0
C      1  0.5028140000000  0.5657400000000  0.4993630000000 1.0
C      1  0.4648650000000  0.4916630000000  0.5627360000000 1.0
C      1  0.4668660000000  0.5191010000000  0.5698640000000 1.0
C      1  0.4955910000000  0.5781810000000  0.5352650000000 1.0
C      1  0.5517510000000  0.5367310000000  0.5386660000000 1.0
C      1  0.5214260000000  0.4951910000000  0.5394240000000 1.0
C      1  0.4868300000000  0.5217730000000  0.5192900000000 1.0
C      1  0.4323060000000  0.4739870000000  0.5087820000000 1.0
C      1  0.4656810000000  0.5454770000000  0.4693030000000 1.0
C      1  0.5646880000000  0.4385830000000  0.4834640000000 1.0
C      1  0.5467070000000  0.5121180000000  0.5803200000000 1.0
C      1  0.5090510000000  0.4238220000000  0.5302270000000 1.0
C      1  0.5031320000000  0.5002170000000  0.5871960000000 1.0
C      1  0.4982300000000  0.5148970000000  0.5464000000000 1.0
C      1  0.4888450000000  0.5131730000000  0.4399730000000 1.0
C      1  0.5720870000000  0.4864800000000  0.4891090000000 1.0
C      1  0.5239350000000  0.5699060000000  0.4549230000000 1.0
C      1  0.4780610000000  0.4939460000000  0.5075170000000 1.0
C      1  0.4396770000000  0.4281310000000  0.5187700000000 1.0
C      1  0.5747830000000  0.5265700000000  0.5209800000000 1.0
C      1  0.4376530000000  0.5218460000000  0.5149400000000 1.0
C      1  0.5494910000000  0.4901110000000  0.4448430000000 1.0
C      1  0.5126390000000  0.5384210000000  0.5591810000000 1.0
C      1  0.5651590000000  0.5419390000000  0.4970660000000 1.0
C      1  0.5070000000000  0.4699160000000  0.5500480000000 1.0
C      1  0.4457500000000  0.5600110000000  0.4861980000000 1.0
C      1  0.5822200000000  0.4603010000000  0.4903640000000 1.0
C      1  0.5369050000000  0.4417100000000  0.4981440000000 1.0
C      1  0.4407810000000  0.4783480000000  0.5583850000000 1.0
C      1  0.4728690000000  0.5565660000000  0.4434110000000 1.0
C      1  0.5192050000000  0.4795230000000  0.4833420000000 1.0
C      1  0.4896250000000  0.4670140000000  0.5245110000000 1.0
C      1  0.5205580000000  0.5223710000000  0.5838880000000 1.0
C      1  0.4562040000000  0.5656020000000  0.5128290000000 1.0
C      1  0.5470020000000  0.4440000000000  0.4606860000000 1.0
C      1  0.5209100000000  0.4177550000000  0.5040110000000 1.0
C      1  0.5086400000000  0.4655300000000  0.4385160000000 1.0
C      1  0.5245190000000  0.4443970000000  0.5467840000000 1.0
C      1  0.4798080000000  0.4296810000000  0.4920150000000 1.0
C      1  0.4493890000000  0.4786390000000  0.4530280000000 1.0
C      1  0.5255600000000  0.4690210000000  0.5097820000000 1.0
C      1  0.5053860000000  0.4930720000000  0.4228860000000 1.0
C      1  0.4895870000000  0.4799910000000  0.5727170000000 1.0
C      1  0.5516060000000  0.5280070000000  0.4744680000000 1.0
C      1  0.4608500000000  0.5386810000000  0.5252740000000 1.0
C      1  0.4775340000000  0.4901990000000  0.4572030000000 1.0
C      1  0.5665610000000  0.4704250000000  0.5243570000000 1.0
C      1  0.5317400000000  0.4691370000000  0.4572250000000 1.0
C      1  0.4682630000000  0.5315200000000  0.4270820000000 1.0
C      1  0.5473720000000  0.5087200000000  0.5510160000000 1.0
C      1  0.4423700000000  0.4901690000000  0.4270080000000 1.0
C      1  0.4279980000000  0.5349720000000  0.4896210000000 1.0
C      1  0.4476820000000  0.5201070000000  0.4673720000000 1.0
C      1  0.5208010000000  0.5230610000000  0.4797500000000 1.0
C      1  0.5018790000000  0.4304380000000  0.4738890000000 1.0
C      1  0.5510300000000  0.4500930000000  0.5378200000000 1.0
C      1  0.4702590000000  0.4775510000000  0.4208160000000 1.0
C      1  0.5094970000000  0.5368560000000  0.5040210000000 1.0
C      1  0.5259880000000  0.5750370000000  0.4841320000000 1.0
C      1  0.4393340000000  0.4476070000000  0.4983370000000 1.0
C      1  0.4897850000000  0.4483490000000  0.4533440000000 1.0
C      1  0.4979190000000  0.5705120000000  0.4426580000000 1.0
C      1  0.5080950000000  0.5319500000000  0.4544250000000 1.0
C      1  0.4425550000000  0.5187760000000  0.4358050000000 1.0
C      1  0.4909680000000  0.5593500000000  0.5573840000000 1.0
C      1  0.5427280000000  0.5552530000000  0.5124800000000 1.0
C      1  0.5310550000000  0.5363530000000  0.4361460000000 1.0
C      1  0.4834080000000  0.4365880000000  0.5209300000000 1.0
C      1  0.4604430000000  0.4453280000000  0.4784120000000 1.0
END
