TITL C-951344-124-492 -3.70644949199876e-06 125000 -869.852457879558 0 0 139 (C1) n - 1
REM
REM in /home/bkarasulu/work/CARBON/AIRSS/Generating-Clusters/EDIP-Nigel-Params/with-SteepDescent/Only-C1/SD-CG/HFTN-CG
REM
REM
REM
REM
REM
REM ./C.cell (11c1c37f851c82e70ff6c80c92926a4b)
REM
REM compiler GCC version 9.2.1 20190827 (Red Hat 9.2.1-1)
REM options -cpp -mtune=generic -march=x86-64 -g -O0 -fpre-include=/usr/include/finclude/math-vector-fortran.h
REM seed 1010969299 519238304 -1443237615 -925467706 -1570319882 -1552289017 -2145105445 809403186 1679459462 -1016112308 -1708254182 1355939180 371799675 -1268661587 749168188 -132257609 57780968 -644489267 311355032 -1155065354 -1837839118 -530438550 86421563 1823646369 1914212018 -745201912 804419839 -1936022472 171357069 1130715158 124024104 -729665118 569388756
REM
CELL 1.54180   50.00000   50.00000   50.00000   90.00000   90.00000   90.00000
LATT -1
SFAC C  
C      1  0.4865680000000  0.5677140000000  0.4265190000000 1.0
C      1  0.6193140000000  0.5155890000000  0.5415550000000 1.0
C      1  0.4983650000000  0.4500300000000  0.4012670000000 1.0
C      1  0.5468920000000  0.5579610000000  0.5827230000000 1.0
C      1  0.5888480000000  0.4975360000000  0.4807270000000 1.0
C      1  0.5694450000000  0.4662320000000  0.4166690000000 1.0
C      1  0.6119430000000  0.5188440000000  0.5145060000000 1.0
C      1  0.4678430000000  0.4369110000000  0.4458760000000 1.0
C      1  0.5179350000000  0.5148280000000  0.4689990000000 1.0
C      1  0.4601090000000  0.5611820000000  0.4170640000000 1.0
C      1  0.5516730000000  0.5594950000000  0.5541690000000 1.0
C      1  0.5344290000000  0.4681840000000  0.5920210000000 1.0
C      1  0.5306490000000  0.4759830000000  0.4520290000000 1.0
C      1  0.4002980000000  0.4917450000000  0.4593120000000 1.0
C      1  0.4555940000000  0.5708290000000  0.4968770000000 1.0
C      1  0.5218980000000  0.4495530000000  0.5243260000000 1.0
C      1  0.5382320000000  0.5168430000000  0.5151520000000 1.0
C      1  0.3815490000000  0.5395270000000  0.4899460000000 1.0
C      1  0.4238900000000  0.5545320000000  0.4962230000000 1.0
C      1  0.5583890000000  0.4700910000000  0.5619170000000 1.0
C      1  0.4267760000000  0.5285130000000  0.4805040000000 1.0
C      1  0.5556750000000  0.5208550000000  0.5749580000000 1.0
C      1  0.5318130000000  0.4525620000000  0.4355880000000 1.0
C      1  0.4537010000000  0.4507000000000  0.5786330000000 1.0
C      1  0.5806240000000  0.4841230000000  0.4384050000000 1.0
C      1  0.5372870000000  0.5477350000000  0.4268660000000 1.0
C      1  0.4771490000000  0.5527650000000  0.4857120000000 1.0
C      1  0.4727270000000  0.4847040000000  0.4649930000000 1.0
C      1  0.4690160000000  0.4988880000000  0.5359280000000 1.0
C      1  0.5073110000000  0.4141600000000  0.5465170000000 1.0
C      1  0.4780500000000  0.5488890000000  0.5684580000000 1.0
C      1  0.4268400000000  0.4926460000000  0.4496420000000 1.0
C      1  0.4795440000000  0.4745890000000  0.5207160000000 1.0
C      1  0.5870090000000  0.4717640000000  0.4658550000000 1.0
C      1  0.5716880000000  0.5630200000000  0.4607880000000 1.0
C      1  0.4968730000000  0.4141590000000  0.4951190000000 1.0
C      1  0.4793010000000  0.5272110000000  0.4999130000000 1.0
C      1  0.5420310000000  0.5064220000000  0.4849150000000 1.0
C      1  0.5739870000000  0.5420710000000  0.5419760000000 1.0
C      1  0.5407820000000  0.4960040000000  0.5628570000000 1.0
C      1  0.4294930000000  0.4508310000000  0.5649720000000 1.0
C      1  0.4792360000000  0.4551330000000  0.4667590000000 1.0
C      1  0.4987810000000  0.5178090000000  0.4237270000000 1.0
C      1  0.5174720000000  0.4114320000000  0.5173680000000 1.0
C      1  0.5747230000000  0.4532070000000  0.5099040000000 1.0
C      1  0.5027530000000  0.4426480000000  0.4783000000000 1.0
C      1  0.5729450000000  0.5837200000000  0.5153710000000 1.0
C      1  0.4776480000000  0.4184990000000  0.5511570000000 1.0
C      1  0.4386520000000  0.5824170000000  0.4403750000000 1.0
C      1  0.5021620000000  0.3971970000000  0.4708000000000 1.0
C      1  0.4407600000000  0.4750830000000  0.4318970000000 1.0
C      1  0.4709360000000  0.4740950000000  0.5725800000000 1.0
C      1  0.4587270000000  0.4185010000000  0.5281370000000 1.0
C      1  0.5234940000000  0.5910240000000  0.5270040000000 1.0
C      1  0.4628580000000  0.5760650000000  0.5276290000000 1.0
C      1  0.4392070000000  0.5789720000000  0.4129020000000 1.0
C      1  0.5145470000000  0.4341730000000  0.4502020000000 1.0
C      1  0.5148400000000  0.4488100000000  0.5821570000000 1.0
C      1  0.6007620000000  0.5460440000000  0.5023010000000 1.0
C      1  0.5040120000000  0.5967270000000  0.4683550000000 1.0
C      1  0.5284060000000  0.4106800000000  0.4604240000000 1.0
C      1  0.5456150000000  0.5177960000000  0.4267250000000 1.0
C      1  0.5454650000000  0.5639530000000  0.4503650000000 1.0
C      1  0.4898970000000  0.5209080000000  0.5722680000000 1.0
C      1  0.5212440000000  0.4634850000000  0.4103520000000 1.0
C      1  0.4708850000000  0.4086730000000  0.4582730000000 1.0
C      1  0.5655050000000  0.4547570000000  0.4811540000000 1.0
C      1  0.4673140000000  0.4263510000000  0.5761440000000 1.0
C      1  0.3985630000000  0.4657220000000  0.4726680000000 1.0
C      1  0.4489000000000  0.5458890000000  0.5653840000000 1.0
C      1  0.4170520000000  0.5062770000000  0.5514870000000 1.0
C      1  0.5226180000000  0.5452180000000  0.5150200000000 1.0
C      1  0.4222800000000  0.4476290000000  0.4683270000000 1.0
C      1  0.5222820000000  0.4927470000000  0.5998370000000 1.0
C      1  0.4961130000000  0.4563320000000  0.5381040000000 1.0
C      1  0.4952300000000  0.5944150000000  0.5177000000000 1.0
C      1  0.5703360000000  0.5118470000000  0.4418050000000 1.0
C      1  0.4881970000000  0.6047550000000  0.4913860000000 1.0
C      1  0.4002020000000  0.4901060000000  0.5094920000000 1.0
C      1  0.3992490000000  0.5183580000000  0.4764730000000 1.0
C      1  0.3964960000000  0.5638830000000  0.4907510000000 1.0
C      1  0.3852700000000  0.5175160000000  0.5135320000000 1.0
C      1  0.4398420000000  0.4405100000000  0.5164970000000 1.0
C      1  0.4562470000000  0.5154860000000  0.5142040000000 1.0
C      1  0.5071490000000  0.5460760000000  0.4248890000000 1.0
C      1  0.4681700000000  0.4872350000000  0.4347960000000 1.0
C      1  0.4225960000000  0.4551240000000  0.5382060000000 1.0
C      1  0.5409390000000  0.4746230000000  0.4800280000000 1.0
C      1  0.4031590000000  0.5283770000000  0.5359300000000 1.0
C      1  0.4597140000000  0.5983860000000  0.4837680000000 1.0
C      1  0.5465420000000  0.4780090000000  0.4000210000000 1.0
C      1  0.4461360000000  0.4811350000000  0.4812430000000 1.0
C      1  0.5481570000000  0.5948660000000  0.5134480000000 1.0
C      1  0.4391320000000  0.4473220000000  0.4431650000000 1.0
C      1  0.6013530000000  0.5035150000000  0.5601580000000 1.0
C      1  0.5869290000000  0.4778670000000  0.5521200000000 1.0
C      1  0.4344810000000  0.5046900000000  0.4972810000000 1.0
C      1  0.4172850000000  0.4835380000000  0.5323290000000 1.0
C      1  0.5893400000000  0.5623900000000  0.5245260000000 1.0
C      1  0.5142870000000  0.5181170000000  0.5904080000000 1.0
C      1  0.5886540000000  0.5012330000000  0.5102440000000 1.0
C      1  0.5476880000000  0.5063140000000  0.4000600000000 1.0
C      1  0.4867410000000  0.5909280000000  0.4454230000000 1.0
C      1  0.5275350000000  0.5640330000000  0.5382600000000 1.0
C      1  0.5183040000000  0.4627940000000  0.4960090000000 1.0
C      1  0.4397560000000  0.5629250000000  0.5430280000000 1.0
C      1  0.4446340000000  0.5158380000000  0.5616170000000 1.0
C      1  0.5661530000000  0.5194590000000  0.5229770000000 1.0
C      1  0.5797830000000  0.5434920000000  0.4791860000000 1.0
C      1  0.5055940000000  0.5641350000000  0.4889110000000 1.0
C      1  0.4956270000000  0.5359520000000  0.5246630000000 1.0
C      1  0.4823140000000  0.4392910000000  0.4205070000000 1.0
C      1  0.5214000000000  0.5038470000000  0.4410810000000 1.0
C      1  0.5248230000000  0.5581930000000  0.4683380000000 1.0
C      1  0.4717150000000  0.5120650000000  0.4231890000000 1.0
C      1  0.4696620000000  0.4056690000000  0.5046160000000 1.0
C      1  0.4515220000000  0.4073400000000  0.4817350000000 1.0
C      1  0.5459980000000  0.4154550000000  0.5081990000000 1.0
C      1  0.5007430000000  0.4850060000000  0.5030450000000 1.0
C      1  0.3861230000000  0.4676010000000  0.4977610000000 1.0
C      1  0.5896810000000  0.4744790000000  0.5233200000000 1.0
C      1  0.5241750000000  0.5003690000000  0.5373480000000 1.0
C      1  0.5310250000000  0.5401950000000  0.5978550000000 1.0
C      1  0.4291240000000  0.4275540000000  0.4893570000000 1.0
C      1  0.5627310000000  0.4321140000000  0.5259950000000 1.0
C      1  0.5450910000000  0.4454830000000  0.5460080000000 1.0
C      1  0.4593050000000  0.5973880000000  0.4539100000000 1.0
C      1  0.5595220000000  0.4427830000000  0.4301740000000 1.0
C      1  0.4659300000000  0.5023320000000  0.5790260000000 1.0
C      1  0.4928920000000  0.5044880000000  0.4826040000000 1.0
C      1  0.4225820000000  0.5477580000000  0.5254000000000 1.0
C      1  0.4571810000000  0.4624660000000  0.5043360000000 1.0
C      1  0.4838870000000  0.5584950000000  0.5408120000000 1.0
C      1  0.4965280000000  0.5123640000000  0.5431420000000 1.0
C      1  0.5493760000000  0.4222450000000  0.4797620000000 1.0
C      1  0.4991370000000  0.4675550000000  0.5650220000000 1.0
C      1  0.5275990000000  0.4280350000000  0.5644560000000 1.0
C      1  0.5697360000000  0.5165360000000  0.4710390000000 1.0
C      1  0.5850980000000  0.5234490000000  0.5727810000000 1.0
END
