TITL C-950532-2784-488 3.76813699746007e-07 125000 -1060.76128929666 0 0 167 (C1) n - 1
REM
REM in /home/bkarasulu/work/CARBON/AIRSS/Generating-Clusters/EDIP-Nigel-Params/with-SteepDescent/Only-C1/SD-CG/HFTN-CG
REM
REM
REM
REM
REM
REM ./C.cell (11c1c37f851c82e70ff6c80c92926a4b)
REM
REM compiler GCC version 9.2.1 20190827 (Red Hat 9.2.1-1)
REM options -cpp -mtune=generic -march=x86-64 -g -O0 -fpre-include=/usr/include/finclude/math-vector-fortran.h
REM seed 1673147107 57572418 -1037556992 -870714903 1995178268 -1059010808 1843577750 -27721714 -1502407978 813793021 -1819372169 -204991406 -532787648 -354344715 -1424568625 480610003 959919608 1099402015 12935112 1414803584 -2096235876 -1073593634 544828442 2044891921 -195800018 -371619217 1860873028 -1979739720 -989494200 -567983256 -287454966 601549966 -1081730670
REM
CELL 1.54180   50.00000   50.00000   50.00000   90.00000   90.00000   90.00000
LATT -1
SFAC C  
C      1  0.5208160000000  0.5934280000000  0.4687240000000 1.0
C      1  0.4878980000000  0.5717770000000  0.5805870000000 1.0
C      1  0.5578850000000  0.4648900000000  0.4190310000000 1.0
C      1  0.4647660000000  0.4797540000000  0.4469400000000 1.0
C      1  0.4960560000000  0.5597840000000  0.4407000000000 1.0
C      1  0.4957660000000  0.4968480000000  0.4767400000000 1.0
C      1  0.5354450000000  0.5695490000000  0.5752100000000 1.0
C      1  0.4917540000000  0.5332190000000  0.5021820000000 1.0
C      1  0.4904490000000  0.4777000000000  0.4339940000000 1.0
C      1  0.5366500000000  0.4793640000000  0.3793000000000 1.0
C      1  0.5045240000000  0.5255440000000  0.4762350000000 1.0
C      1  0.4232380000000  0.4585040000000  0.5381960000000 1.0
C      1  0.5796480000000  0.4937080000000  0.4537480000000 1.0
C      1  0.5268410000000  0.5278810000000  0.3952880000000 1.0
C      1  0.4173280000000  0.4431230000000  0.4882440000000 1.0
C      1  0.5225240000000  0.3901930000000  0.4985100000000 1.0
C      1  0.5259170000000  0.5445310000000  0.5865570000000 1.0
C      1  0.4190280000000  0.5813760000000  0.4608970000000 1.0
C      1  0.5324550000000  0.5548510000000  0.4055770000000 1.0
C      1  0.4922090000000  0.4650030000000  0.3971800000000 1.0
C      1  0.5102840000000  0.4609680000000  0.4531210000000 1.0
C      1  0.4999810000000  0.4372370000000  0.5888120000000 1.0
C      1  0.5553690000000  0.4871300000000  0.3990730000000 1.0
C      1  0.5199990000000  0.4304760000000  0.5249260000000 1.0
C      1  0.5178920000000  0.3977490000000  0.5287050000000 1.0
C      1  0.4741020000000  0.4270800000000  0.4303160000000 1.0
C      1  0.4662810000000  0.4935470000000  0.4724400000000 1.0
C      1  0.4501960000000  0.5666780000000  0.4281690000000 1.0
C      1  0.4341730000000  0.5197410000000  0.5727430000000 1.0
C      1  0.5665720000000  0.5429650000000  0.5460640000000 1.0
C      1  0.5002170000000  0.5110900000000  0.5202160000000 1.0
C      1  0.5530470000000  0.5157310000000  0.5019920000000 1.0
C      1  0.5260890000000  0.4939770000000  0.5560880000000 1.0
C      1  0.4084860000000  0.4618120000000  0.5108750000000 1.0
C      1  0.5462970000000  0.4242220000000  0.4571530000000 1.0
C      1  0.4972900000000  0.4529420000000  0.5316030000000 1.0
C      1  0.4780560000000  0.4937200000000  0.5543860000000 1.0
C      1  0.5255750000000  0.4955100000000  0.5877660000000 1.0
C      1  0.5271800000000  0.5051650000000  0.4401360000000 1.0
C      1  0.5416600000000  0.4697460000000  0.5927560000000 1.0
C      1  0.4503770000000  0.4698000000000  0.5231870000000 1.0
C      1  0.4819300000000  0.5252950000000  0.5896510000000 1.0
C      1  0.5775080000000  0.5226430000000  0.5662010000000 1.0
C      1  0.5410730000000  0.5286410000000  0.4487780000000 1.0
C      1  0.5019890000000  0.5588860000000  0.5132400000000 1.0
C      1  0.4528050000000  0.4331580000000  0.4514890000000 1.0
C      1  0.5332550000000  0.4819900000000  0.4578840000000 1.0
C      1  0.4400060000000  0.4399360000000  0.5775970000000 1.0
C      1  0.4569850000000  0.4965390000000  0.5339760000000 1.0
C      1  0.4992410000000  0.5085210000000  0.4320740000000 1.0
C      1  0.4150710000000  0.4874360000000  0.4934150000000 1.0
C      1  0.5016300000000  0.4187600000000  0.5668550000000 1.0
C      1  0.5890480000000  0.4927800000000  0.4811980000000 1.0
C      1  0.5547320000000  0.5756180000000  0.4989280000000 1.0
C      1  0.5451370000000  0.5757890000000  0.4686810000000 1.0
C      1  0.4579590000000  0.5233160000000  0.4678840000000 1.0
C      1  0.5234190000000  0.4492760000000  0.5980770000000 1.0
C      1  0.5362600000000  0.4859990000000  0.4913890000000 1.0
C      1  0.4061850000000  0.4831310000000  0.4652700000000 1.0
C      1  0.4574880000000  0.5655680000000  0.5776320000000 1.0
C      1  0.4297940000000  0.5261010000000  0.4535660000000 1.0
C      1  0.4779490000000  0.4060270000000  0.5536310000000 1.0
C      1  0.5231070000000  0.4352300000000  0.4398060000000 1.0
C      1  0.4953620000000  0.4478890000000  0.4796510000000 1.0
C      1  0.6043760000000  0.4676840000000  0.5244140000000 1.0
C      1  0.5507770000000  0.4271930000000  0.5620400000000 1.0
C      1  0.4194850000000  0.4759470000000  0.5615770000000 1.0
C      1  0.4480520000000  0.4864880000000  0.6034270000000 1.0
C      1  0.4808280000000  0.4924840000000  0.3934330000000 1.0
C      1  0.5284050000000  0.4073290000000  0.5618650000000 1.0
C      1  0.4297260000000  0.4305520000000  0.5516160000000 1.0
C      1  0.4115410000000  0.5175130000000  0.5008880000000 1.0
C      1  0.5116290000000  0.5837890000000  0.5648780000000 1.0
C      1  0.4649290000000  0.4467960000000  0.4764720000000 1.0
C      1  0.4647130000000  0.6000210000000  0.5426820000000 1.0
C      1  0.4966210000000  0.3930860000000  0.4862660000000 1.0
C      1  0.4747450000000  0.4777550000000  0.6059730000000 1.0
C      1  0.5713010000000  0.5204220000000  0.4406870000000 1.0
C      1  0.5412480000000  0.4096680000000  0.4845980000000 1.0
C      1  0.5960000000000  0.5174810000000  0.4920130000000 1.0
C      1  0.5954600000000  0.5183040000000  0.5197970000000 1.0
C      1  0.4333600000000  0.6049950000000  0.4998400000000 1.0
C      1  0.5322140000000  0.5601710000000  0.5174490000000 1.0
C      1  0.5644680000000  0.4519740000000  0.5177660000000 1.0
C      1  0.5213260000000  0.5969800000000  0.5396630000000 1.0
C      1  0.4225360000000  0.5726020000000  0.5341670000000 1.0
C      1  0.5658930000000  0.5677850000000  0.4453760000000 1.0
C      1  0.5399130000000  0.5209620000000  0.5956710000000 1.0
C      1  0.4404080000000  0.4805680000000  0.4307670000000 1.0
C      1  0.4994570000000  0.4152750000000  0.4384200000000 1.0
C      1  0.5604780000000  0.4717970000000  0.4482970000000 1.0
C      1  0.4442180000000  0.5815930000000  0.5536010000000 1.0
C      1  0.4502470000000  0.5260410000000  0.4056740000000 1.0
C      1  0.4745150000000  0.5659470000000  0.5268810000000 1.0
C      1  0.5495060000000  0.5895350000000  0.5346710000000 1.0
C      1  0.4350880000000  0.5412060000000  0.4266050000000 1.0
C      1  0.4763840000000  0.5392110000000  0.4003540000000 1.0
C      1  0.5943710000000  0.4721490000000  0.5510980000000 1.0
C      1  0.5262090000000  0.4346300000000  0.4955950000000 1.0
C      1  0.4400220000000  0.4088740000000  0.4622630000000 1.0
C      1  0.4955680000000  0.3967230000000  0.4587770000000 1.0
C      1  0.5633050000000  0.4478830000000  0.4677390000000 1.0
C      1  0.5617070000000  0.4635100000000  0.5692720000000 1.0
C      1  0.4752100000000  0.3924400000000  0.5065350000000 1.0
C      1  0.4941740000000  0.4634970000000  0.5053180000000 1.0
C      1  0.4506550000000  0.4714990000000  0.4906890000000 1.0
C      1  0.5472900000000  0.4562950000000  0.4933170000000 1.0
C      1  0.5192060000000  0.5196410000000  0.5420050000000 1.0
C      1  0.5211430000000  0.4596560000000  0.3923860000000 1.0
C      1  0.4108320000000  0.4544260000000  0.4610360000000 1.0
C      1  0.4311910000000  0.4925200000000  0.5816220000000 1.0
C      1  0.4778680000000  0.5636650000000  0.4172290000000 1.0
C      1  0.4040100000000  0.5521300000000  0.5378380000000 1.0
C      1  0.4870750000000  0.5321390000000  0.4511190000000 1.0
C      1  0.4737520000000  0.4502190000000  0.5938380000000 1.0
C      1  0.5667480000000  0.4076450000000  0.4978570000000 1.0
C      1  0.5904110000000  0.4443080000000  0.4824900000000 1.0
C      1  0.4557870000000  0.4213900000000  0.5383960000000 1.0
C      1  0.4165760000000  0.5289920000000  0.5280240000000 1.0
C      1  0.5429720000000  0.5333240000000  0.5275500000000 1.0
C      1  0.4645910000000  0.5430010000000  0.5474140000000 1.0
C      1  0.4774210000000  0.6084370000000  0.5177140000000 1.0
C      1  0.5064470000000  0.6077660000000  0.5167470000000 1.0
C      1  0.5448990000000  0.4397280000000  0.5368850000000 1.0
C      1  0.4568520000000  0.5627740000000  0.5031650000000 1.0
C      1  0.4764120000000  0.4450310000000  0.4093820000000 1.0
C      1  0.4209400000000  0.4985840000000  0.4452330000000 1.0
C      1  0.5825460000000  0.4290430000000  0.5061700000000 1.0
C      1  0.4524610000000  0.4961780000000  0.4038170000000 1.0
C      1  0.4531140000000  0.4113810000000  0.5100230000000 1.0
C      1  0.5350420000000  0.5282130000000  0.4777050000000 1.0
C      1  0.4413510000000  0.5214720000000  0.5434160000000 1.0
C      1  0.4949420000000  0.5825600000000  0.4601790000000 1.0
C      1  0.4522970000000  0.5362800000000  0.5895180000000 1.0
C      1  0.5670460000000  0.5222760000000  0.5915550000000 1.0
C      1  0.4118050000000  0.5363020000000  0.4773770000000 1.0
C      1  0.4301560000000  0.5762580000000  0.5054240000000 1.0
C      1  0.4680310000000  0.4493990000000  0.5387970000000 1.0
C      1  0.4975720000000  0.5174390000000  0.4027320000000 1.0
C      1  0.4949910000000  0.4981440000000  0.5979500000000 1.0
C      1  0.4457660000000  0.5822260000000  0.4521670000000 1.0
C      1  0.4121630000000  0.5655610000000  0.4831860000000 1.0
C      1  0.4621550000000  0.5356110000000  0.4949940000000 1.0
C      1  0.5582340000000  0.5704340000000  0.5564590000000 1.0
C      1  0.5187570000000  0.6092940000000  0.4917080000000 1.0
C      1  0.4856280000000  0.5236740000000  0.5599010000000 1.0
C      1  0.5028130000000  0.4772340000000  0.5486370000000 1.0
C      1  0.5808690000000  0.5608260000000  0.5009580000000 1.0
C      1  0.5518060000000  0.4821980000000  0.5467460000000 1.0
C      1  0.4608480000000  0.6061090000000  0.4932690000000 1.0
C      1  0.5908490000000  0.4989520000000  0.5586040000000 1.0
C      1  0.4313450000000  0.4515050000000  0.4392970000000 1.0
C      1  0.4988760000000  0.5484240000000  0.5945830000000 1.0
C      1  0.5358530000000  0.4458980000000  0.4138930000000 1.0
C      1  0.5074110000000  0.4882300000000  0.5016480000000 1.0
C      1  0.4593140000000  0.4613080000000  0.5677490000000 1.0
C      1  0.5541460000000  0.5167260000000  0.4075760000000 1.0
C      1  0.5259650000000  0.5546850000000  0.4351240000000 1.0
C      1  0.4336190000000  0.4178810000000  0.4886160000000 1.0
C      1  0.4893220000000  0.3897550000000  0.5323710000000 1.0
C      1  0.5831990000000  0.5402720000000  0.4814500000000 1.0
C      1  0.5986150000000  0.4692970000000  0.4956950000000 1.0
C      1  0.5689580000000  0.4904680000000  0.5208350000000 1.0
C      1  0.5608450000000  0.5552840000000  0.4162120000000 1.0
C      1  0.5831550000000  0.5450790000000  0.4531130000000 1.0
C      1  0.5879190000000  0.5456460000000  0.5258610000000 1.0
C      1  0.4684730000000  0.5936070000000  0.4670800000000 1.0
END
