TITL C-951343-2256-216 -5.56589144140302e-06 125000 -875.25604656913 0 0 141 (C1) n - 1
REM
REM in /home/bkarasulu/work/CARBON/AIRSS/Generating-Clusters/EDIP-Nigel-Params/with-SteepDescent/Only-C1/SD-CG/HFTN-CG
REM
REM
REM
REM
REM
REM ./C.cell (11c1c37f851c82e70ff6c80c92926a4b)
REM
REM compiler GCC version 9.2.1 20190827 (Red Hat 9.2.1-1)
REM options -cpp -mtune=generic -march=x86-64 -g -O0 -fpre-include=/usr/include/finclude/math-vector-fortran.h
REM seed 1974518288 1264124888 -76908490 555782362 -1825468504 -1060950246 1603771348 1521679240 1538452326 -986585818 1255020476 250311110 614113880 -960216672 -1241127565 -1603170235 -1757800609 894691403 1589375877 -414133790 -102082448 2032975018 -1434783839 1235847550 1976418051 -226064959 260017036 499934399 -1214996340 -2124795684 1823041681 1638559951 -165778576
REM
CELL 1.54180   50.00000   50.00000   50.00000   90.00000   90.00000   90.00000
LATT -1
SFAC C  
C      1  0.4436930000000  0.5181190000000  0.5832200000000 1.0
C      1  0.5779850000000  0.5619790000000  0.4739660000000 1.0
C      1  0.4760040000000  0.5143670000000  0.4145280000000 1.0
C      1  0.4920470000000  0.5613780000000  0.4160680000000 1.0
C      1  0.4561810000000  0.5241800000000  0.4718490000000 1.0
C      1  0.5590330000000  0.5396830000000  0.5575070000000 1.0
C      1  0.5218840000000  0.3957250000000  0.5319920000000 1.0
C      1  0.5536640000000  0.5792860000000  0.4657570000000 1.0
C      1  0.5092680000000  0.4555730000000  0.5220080000000 1.0
C      1  0.5205150000000  0.4202610000000  0.4259880000000 1.0
C      1  0.5569180000000  0.4419610000000  0.4475690000000 1.0
C      1  0.4679170000000  0.4474700000000  0.5740640000000 1.0
C      1  0.5478030000000  0.5277400000000  0.5825480000000 1.0
C      1  0.4939890000000  0.5573170000000  0.5472680000000 1.0
C      1  0.4760500000000  0.5974280000000  0.5247180000000 1.0
C      1  0.5339450000000  0.5682140000000  0.5236070000000 1.0
C      1  0.4500770000000  0.5027550000000  0.4139720000000 1.0
C      1  0.4734200000000  0.5793250000000  0.5489260000000 1.0
C      1  0.4507010000000  0.4753730000000  0.4086370000000 1.0
C      1  0.4564670000000  0.4753320000000  0.5681460000000 1.0
C      1  0.5337430000000  0.5743530000000  0.4428590000000 1.0
C      1  0.4684790000000  0.4809090000000  0.5409870000000 1.0
C      1  0.4796450000000  0.4429980000000  0.4889340000000 1.0
C      1  0.4823120000000  0.4911970000000  0.4928130000000 1.0
C      1  0.4599810000000  0.5422800000000  0.5764820000000 1.0
C      1  0.4511350000000  0.4141340000000  0.5070550000000 1.0
C      1  0.4480680000000  0.4362390000000  0.5276810000000 1.0
C      1  0.5012020000000  0.5371570000000  0.6073010000000 1.0
C      1  0.5032320000000  0.4671040000000  0.4104220000000 1.0
C      1  0.4477830000000  0.5652350000000  0.5588580000000 1.0
C      1  0.5752310000000  0.5231970000000  0.4419520000000 1.0
C      1  0.4580940000000  0.5634260000000  0.4352010000000 1.0
C      1  0.4623090000000  0.4694240000000  0.4912270000000 1.0
C      1  0.4873900000000  0.5368170000000  0.4004710000000 1.0
C      1  0.4339490000000  0.5137690000000  0.4353370000000 1.0
C      1  0.4497070000000  0.4311260000000  0.4510190000000 1.0
C      1  0.5456900000000  0.5219380000000  0.5125620000000 1.0
C      1  0.5212730000000  0.4858370000000  0.4689050000000 1.0
C      1  0.5902910000000  0.4386420000000  0.4860110000000 1.0
C      1  0.5258690000000  0.4451860000000  0.4106310000000 1.0
C      1  0.4334670000000  0.4491420000000  0.4648200000000 1.0
C      1  0.4357040000000  0.5425690000000  0.4392650000000 1.0
C      1  0.5939000000000  0.5345260000000  0.5150750000000 1.0
C      1  0.5095360000000  0.4652770000000  0.5949950000000 1.0
C      1  0.5109060000000  0.4448750000000  0.4796130000000 1.0
C      1  0.5352310000000  0.5452380000000  0.3998770000000 1.0
C      1  0.5153320000000  0.4935640000000  0.5515090000000 1.0
C      1  0.5210560000000  0.4900540000000  0.6010120000000 1.0
C      1  0.5046310000000  0.4017680000000  0.5562860000000 1.0
C      1  0.6037300000000  0.4930860000000  0.4791810000000 1.0
C      1  0.5185720000000  0.5359520000000  0.5829580000000 1.0
C      1  0.5821070000000  0.5323280000000  0.5414320000000 1.0
C      1  0.5107070000000  0.4857890000000  0.4964530000000 1.0
C      1  0.5071240000000  0.5568060000000  0.5206990000000 1.0
C      1  0.5578090000000  0.4771150000000  0.5193400000000 1.0
C      1  0.5498640000000  0.4250860000000  0.5069270000000 1.0
C      1  0.5055710000000  0.5037690000000  0.4488360000000 1.0
C      1  0.5999400000000  0.4546700000000  0.5067280000000 1.0
C      1  0.4796400000000  0.5307290000000  0.5555070000000 1.0
C      1  0.5033620000000  0.6032960000000  0.5163410000000 1.0
C      1  0.4150750000000  0.5007060000000  0.4519820000000 1.0
C      1  0.4486560000000  0.4656440000000  0.5214790000000 1.0
C      1  0.5002830000000  0.5133340000000  0.5697070000000 1.0
C      1  0.5002700000000  0.5078510000000  0.6134740000000 1.0
C      1  0.5193710000000  0.4923490000000  0.4217370000000 1.0
C      1  0.5482590000000  0.4963470000000  0.4716880000000 1.0
C      1  0.4268130000000  0.4790230000000  0.5623350000000 1.0
C      1  0.5607680000000  0.5014620000000  0.4985350000000 1.0
C      1  0.5013060000000  0.4553810000000  0.4522110000000 1.0
C      1  0.4736840000000  0.3952110000000  0.5183380000000 1.0
C      1  0.5230280000000  0.5650680000000  0.4155070000000 1.0
C      1  0.4161880000000  0.4951780000000  0.4808630000000 1.0
C      1  0.4137470000000  0.5055160000000  0.5299130000000 1.0
C      1  0.5453040000000  0.4139980000000  0.5333340000000 1.0
C      1  0.4762250000000  0.5490030000000  0.6000490000000 1.0
C      1  0.5811420000000  0.5334740000000  0.4673170000000 1.0
C      1  0.4659930000000  0.5120550000000  0.5341410000000 1.0
C      1  0.5381030000000  0.4539860000000  0.5066430000000 1.0
C      1  0.5794420000000  0.4526040000000  0.4634250000000 1.0
C      1  0.4384900000000  0.5203120000000  0.5202420000000 1.0
C      1  0.5453090000000  0.4987080000000  0.5839150000000 1.0
C      1  0.4635260000000  0.4291430000000  0.5510040000000 1.0
C      1  0.5135750000000  0.5297090000000  0.3899530000000 1.0
C      1  0.5504890000000  0.4560570000000  0.4228620000000 1.0
C      1  0.4241900000000  0.4361990000000  0.4901130000000 1.0
C      1  0.5818870000000  0.4531750000000  0.5510170000000 1.0
C      1  0.4970080000000  0.5858980000000  0.4761610000000 1.0
C      1  0.5146860000000  0.4279050000000  0.5670130000000 1.0
C      1  0.4299840000000  0.5527830000000  0.5394090000000 1.0
C      1  0.5795760000000  0.5589800000000  0.5044150000000 1.0
C      1  0.5137910000000  0.5014180000000  0.3944710000000 1.0
C      1  0.4058170000000  0.5398220000000  0.4940380000000 1.0
C      1  0.5100630000000  0.5890220000000  0.4504690000000 1.0
C      1  0.5434590000000  0.5958380000000  0.4868710000000 1.0
C      1  0.5873790000000  0.5149390000000  0.4907130000000 1.0
C      1  0.5453830000000  0.4864980000000  0.5545600000000 1.0
C      1  0.4907340000000  0.4081890000000  0.4592090000000 1.0
C      1  0.4674550000000  0.4992000000000  0.5852290000000 1.0
C      1  0.5550160000000  0.4572560000000  0.5586780000000 1.0
C      1  0.4744930000000  0.4954030000000  0.6132480000000 1.0
C      1  0.5167310000000  0.4147510000000  0.4741570000000 1.0
C      1  0.4968710000000  0.5564300000000  0.4921450000000 1.0
C      1  0.4218530000000  0.4761790000000  0.5329110000000 1.0
C      1  0.5659950000000  0.4962230000000  0.4479290000000 1.0
C      1  0.4414850000000  0.5071920000000  0.4913070000000 1.0
C      1  0.4243410000000  0.5468550000000  0.4670460000000 1.0
C      1  0.4509810000000  0.5856480000000  0.4549390000000 1.0
C      1  0.4666750000000  0.4204300000000  0.4719490000000 1.0
C      1  0.5389600000000  0.4179050000000  0.4503050000000 1.0
C      1  0.4695640000000  0.5964650000000  0.4763370000000 1.0
C      1  0.4711000000000  0.4695690000000  0.4531920000000 1.0
C      1  0.5420180000000  0.5639170000000  0.5523210000000 1.0
C      1  0.4949750000000  0.4281010000000  0.4375350000000 1.0
C      1  0.4937610000000  0.5547130000000  0.4466200000000 1.0
C      1  0.4586310000000  0.5900900000000  0.5023900000000 1.0
C      1  0.5490900000000  0.4850150000000  0.4249550000000 1.0
C      1  0.5038680000000  0.4040110000000  0.5086440000000 1.0
C      1  0.4814530000000  0.5164970000000  0.5089090000000 1.0
C      1  0.5739920000000  0.4179360000000  0.4944800000000 1.0
C      1  0.4760080000000  0.4027260000000  0.5477480000000 1.0
C      1  0.5167740000000  0.5370740000000  0.4820920000000 1.0
C      1  0.5178040000000  0.5164340000000  0.5053360000000 1.0
C      1  0.4274670000000  0.5763820000000  0.4705270000000 1.0
C      1  0.4307050000000  0.5817720000000  0.4992960000000 1.0
C      1  0.4894640000000  0.4323820000000  0.5157050000000 1.0
C      1  0.5845890000000  0.4665130000000  0.5268790000000 1.0
C      1  0.4217560000000  0.5071510000000  0.5677550000000 1.0
C      1  0.5891260000000  0.4796790000000  0.4583110000000 1.0
C      1  0.4718730000000  0.5395770000000  0.4926140000000 1.0
C      1  0.4984680000000  0.4704710000000  0.5464070000000 1.0
C      1  0.5119330000000  0.5318410000000  0.4541540000000 1.0
C      1  0.4735510000000  0.5018190000000  0.4509040000000 1.0
C      1  0.3990090000000  0.5110460000000  0.5018720000000 1.0
C      1  0.4184740000000  0.4655660000000  0.4862200000000 1.0
C      1  0.4724030000000  0.4624100000000  0.4210080000000 1.0
C      1  0.5366450000000  0.4360580000000  0.5504000000000 1.0
C      1  0.5507190000000  0.5506610000000  0.5069080000000 1.0
C      1  0.5164320000000  0.5609770000000  0.5668430000000 1.0
C      1  0.5309430000000  0.5958150000000  0.5124640000000 1.0
C      1  0.4186380000000  0.5591290000000  0.5137830000000 1.0
C      1  0.4977690000000  0.4518750000000  0.5725360000000 1.0
END
