TITL C-950535-5962-18 -6.76121417790398e-06 125000 -875.167093858428 0 0 139 (C1) n - 1
REM
REM in /home/bkarasulu/work/CARBON/AIRSS/Generating-Clusters/EDIP-Nigel-Params/with-SteepDescent/Only-C1/SD-CG/HFTN-CG
REM
REM
REM
REM
REM
REM ./C.cell (11c1c37f851c82e70ff6c80c92926a4b)
REM
REM compiler GCC version 9.2.1 20190827 (Red Hat 9.2.1-1)
REM options -cpp -mtune=generic -march=x86-64 -g -O0 -fpre-include=/usr/include/finclude/math-vector-fortran.h
REM seed -928283124 -1118959784 -1286090942 -843484325 1373469792 123142362 -247745653 -469304427 28694270 1707771157 1823302832 -1332930794 882109887 576503576 363669604 -687053532 1746757586 871284332 -364288467 551356759 2049366188 1527827431 -1186330103 -1398964037 868363242 639279991 -1494556005 -1073273011 1306042163 223094446 1098510589 1097973686 868200262
REM
CELL 1.54180   50.00000   50.00000   50.00000   90.00000   90.00000   90.00000
LATT -1
SFAC C  
C      1  0.4097830000000  0.4842740000000  0.5216130000000 1.0
C      1  0.5406210000000  0.4849080000000  0.5883230000000 1.0
C      1  0.6015740000000  0.5094370000000  0.4911100000000 1.0
C      1  0.4662850000000  0.4766940000000  0.4717060000000 1.0
C      1  0.5039940000000  0.6027850000000  0.4968910000000 1.0
C      1  0.4307400000000  0.4912190000000  0.5629970000000 1.0
C      1  0.5856250000000  0.5104140000000  0.5143200000000 1.0
C      1  0.5591240000000  0.4629750000000  0.5753700000000 1.0
C      1  0.4503190000000  0.4539430000000  0.4548450000000 1.0
C      1  0.5269520000000  0.4911610000000  0.5523580000000 1.0
C      1  0.4040080000000  0.5214170000000  0.4778950000000 1.0
C      1  0.5203350000000  0.5272500000000  0.5996190000000 1.0
C      1  0.5614100000000  0.5180640000000  0.4315860000000 1.0
C      1  0.4929630000000  0.4677540000000  0.4829780000000 1.0
C      1  0.5030860000000  0.5201720000000  0.4049700000000 1.0
C      1  0.5090150000000  0.4482850000000  0.5250890000000 1.0
C      1  0.4774340000000  0.5589780000000  0.4246340000000 1.0
C      1  0.5573260000000  0.4429740000000  0.5340060000000 1.0
C      1  0.5844940000000  0.5357170000000  0.5311390000000 1.0
C      1  0.5464790000000  0.4385410000000  0.5617000000000 1.0
C      1  0.4508300000000  0.4948860000000  0.4933400000000 1.0
C      1  0.5018050000000  0.5986280000000  0.4585780000000 1.0
C      1  0.5576460000000  0.4983150000000  0.5118200000000 1.0
C      1  0.4936650000000  0.4949170000000  0.5238570000000 1.0
C      1  0.4462990000000  0.4197780000000  0.4873500000000 1.0
C      1  0.4198470000000  0.5602700000000  0.5088810000000 1.0
C      1  0.4699330000000  0.5106570000000  0.5918980000000 1.0
C      1  0.4800490000000  0.4428350000000  0.5841350000000 1.0
C      1  0.4646310000000  0.5140380000000  0.5478910000000 1.0
C      1  0.4582370000000  0.4618750000000  0.4268100000000 1.0
C      1  0.4245370000000  0.4403460000000  0.4974700000000 1.0
C      1  0.5790870000000  0.4700450000000  0.4742530000000 1.0
C      1  0.4361720000000  0.5455360000000  0.4450960000000 1.0
C      1  0.5366640000000  0.5210940000000  0.5073750000000 1.0
C      1  0.4572540000000  0.4878950000000  0.5779930000000 1.0
C      1  0.4452260000000  0.5834680000000  0.5435070000000 1.0
C      1  0.5490740000000  0.4160530000000  0.4407970000000 1.0
C      1  0.5531820000000  0.5472980000000  0.4289190000000 1.0
C      1  0.5403350000000  0.4229220000000  0.4944360000000 1.0
C      1  0.5464070000000  0.5149920000000  0.5909910000000 1.0
C      1  0.4074890000000  0.5129290000000  0.5269860000000 1.0
C      1  0.5052490000000  0.5559630000000  0.4803590000000 1.0
C      1  0.5537150000000  0.4686930000000  0.4246490000000 1.0
C      1  0.5655470000000  0.5606340000000  0.4527960000000 1.0
C      1  0.4555720000000  0.5342160000000  0.5968580000000 1.0
C      1  0.4635940000000  0.4949040000000  0.5229650000000 1.0
C      1  0.4543910000000  0.4694130000000  0.5321250000000 1.0
C      1  0.4694280000000  0.4076690000000  0.5028570000000 1.0
C      1  0.4443270000000  0.4204150000000  0.5397270000000 1.0
C      1  0.5209830000000  0.4260970000000  0.5640900000000 1.0
C      1  0.5220900000000  0.5241620000000  0.5399110000000 1.0
C      1  0.5858710000000  0.4234630000000  0.4761640000000 1.0
C      1  0.5677240000000  0.4115930000000  0.4972310000000 1.0
C      1  0.5527240000000  0.4758700000000  0.4906230000000 1.0
C      1  0.5195560000000  0.4045330000000  0.4925040000000 1.0
C      1  0.4209460000000  0.5179240000000  0.5516450000000 1.0
C      1  0.5651070000000  0.5124250000000  0.4607510000000 1.0
C      1  0.5165470000000  0.4950720000000  0.4167770000000 1.0
C      1  0.5550090000000  0.5313180000000  0.5683950000000 1.0
C      1  0.5377190000000  0.4480870000000  0.5111930000000 1.0
C      1  0.5041900000000  0.5300680000000  0.4660690000000 1.0
C      1  0.4863920000000  0.4526770000000  0.4196880000000 1.0
C      1  0.5682660000000  0.5396300000000  0.4735910000000 1.0
C      1  0.5331300000000  0.5686080000000  0.4874540000000 1.0
C      1  0.5650660000000  0.5560410000000  0.5206040000000 1.0
C      1  0.4473860000000  0.4903390000000  0.4236040000000 1.0
C      1  0.4258630000000  0.4685220000000  0.5412830000000 1.0
C      1  0.5109450000000  0.4624130000000  0.4592910000000 1.0
C      1  0.4776030000000  0.5990130000000  0.5114980000000 1.0
C      1  0.4598190000000  0.5148210000000  0.4128840000000 1.0
C      1  0.5001490000000  0.4554770000000  0.5982860000000 1.0
C      1  0.5397110000000  0.5556030000000  0.5655830000000 1.0
C      1  0.5077880000000  0.4908090000000  0.4462560000000 1.0
C      1  0.4986840000000  0.5063480000000  0.5983680000000 1.0
C      1  0.5470050000000  0.4965940000000  0.4168950000000 1.0
C      1  0.4852440000000  0.5778430000000  0.4737220000000 1.0
C      1  0.4238120000000  0.4377550000000  0.5290420000000 1.0
C      1  0.4751900000000  0.5230590000000  0.4594720000000 1.0
C      1  0.5419060000000  0.5702910000000  0.5357490000000 1.0
C      1  0.5973040000000  0.4487020000000  0.4885660000000 1.0
C      1  0.4118610000000  0.5316170000000  0.5045700000000 1.0
C      1  0.5984970000000  0.4431100000000  0.5186570000000 1.0
C      1  0.4450560000000  0.5706020000000  0.4917410000000 1.0
C      1  0.5778080000000  0.4224060000000  0.5235930000000 1.0
C      1  0.4618600000000  0.5360010000000  0.4337260000000 1.0
C      1  0.4440750000000  0.5697390000000  0.4604390000000 1.0
C      1  0.5339160000000  0.4510060000000  0.4107250000000 1.0
C      1  0.5393390000000  0.4946710000000  0.4690820000000 1.0
C      1  0.4930980000000  0.4075560000000  0.4846200000000 1.0
C      1  0.5469380000000  0.5814610000000  0.4637790000000 1.0
C      1  0.4786090000000  0.4669540000000  0.5676970000000 1.0
C      1  0.4891430000000  0.4473170000000  0.5035180000000 1.0
C      1  0.4236840000000  0.4976840000000  0.4405370000000 1.0
C      1  0.5028900000000  0.4245910000000  0.5424190000000 1.0
C      1  0.5118520000000  0.4808740000000  0.5927390000000 1.0
C      1  0.3993200000000  0.4917930000000  0.4789250000000 1.0
C      1  0.4636760000000  0.4501290000000  0.5145140000000 1.0
C      1  0.5287120000000  0.5896320000000  0.5089030000000 1.0
C      1  0.4699770000000  0.5802290000000  0.4455300000000 1.0
C      1  0.4929390000000  0.5661080000000  0.5460400000000 1.0
C      1  0.5254260000000  0.5856790000000  0.4445410000000 1.0
C      1  0.4538710000000  0.5979590000000  0.4972220000000 1.0
C      1  0.4905440000000  0.5481530000000  0.5682380000000 1.0
C      1  0.5268740000000  0.4271650000000  0.4274080000000 1.0
C      1  0.4859260000000  0.4189440000000  0.4583770000000 1.0
C      1  0.5085760000000  0.4675610000000  0.4042520000000 1.0
C      1  0.5755420000000  0.4772640000000  0.5537990000000 1.0
C      1  0.4705940000000  0.4106460000000  0.5327990000000 1.0
C      1  0.5026690000000  0.4733670000000  0.5431820000000 1.0
C      1  0.5025100000000  0.4389910000000  0.4419210000000 1.0
C      1  0.5949560000000  0.4630760000000  0.5386890000000 1.0
C      1  0.5157630000000  0.5526250000000  0.5842410000000 1.0
C      1  0.5714350000000  0.4300250000000  0.4505290000000 1.0
C      1  0.5899900000000  0.4972120000000  0.4689210000000 1.0
C      1  0.5194530000000  0.5106150000000  0.4844840000000 1.0
C      1  0.4218560000000  0.5462800000000  0.5576450000000 1.0
C      1  0.4578090000000  0.4262160000000  0.4610040000000 1.0
C      1  0.5038590000000  0.5480840000000  0.4167560000000 1.0
C      1  0.4788520000000  0.5138820000000  0.3927290000000 1.0
C      1  0.4561690000000  0.5421360000000  0.5401750000000 1.0
C      1  0.4574210000000  0.5234630000000  0.4849360000000 1.0
C      1  0.4948380000000  0.5193070000000  0.5568650000000 1.0
C      1  0.4216070000000  0.5684100000000  0.5381390000000 1.0
C      1  0.5707340000000  0.4585520000000  0.4472430000000 1.0
C      1  0.4619610000000  0.5510370000000  0.5758290000000 1.0
C      1  0.4070570000000  0.4777520000000  0.4538750000000 1.0
C      1  0.4235390000000  0.5219170000000  0.4564810000000 1.0
C      1  0.4641750000000  0.5454980000000  0.5063610000000 1.0
C      1  0.5260900000000  0.5585810000000  0.4319180000000 1.0
C      1  0.5124960000000  0.5536990000000  0.5286820000000 1.0
C      1  0.4763220000000  0.4952630000000  0.4492310000000 1.0
C      1  0.5029530000000  0.4907760000000  0.4970780000000 1.0
C      1  0.5514240000000  0.4820260000000  0.5361550000000 1.0
C      1  0.4214540000000  0.4792610000000  0.4956590000000 1.0
C      1  0.5810920000000  0.5313400000000  0.5587970000000 1.0
C      1  0.4213880000000  0.4536940000000  0.4615430000000 1.0
C      1  0.4945740000000  0.5480700000000  0.5054050000000 1.0
C      1  0.4721750000000  0.5830790000000  0.5350110000000 1.0
C      1  0.5512890000000  0.5461120000000  0.4970660000000 1.0
END
