TITL C-950521-2237-251 -8.40766550450693e-07 125000 -278.515167654077 0 0 47 (C1) n - 1
REM
REM in /home/bkarasulu/work/CARBON/AIRSS/Generating-Clusters/EDIP-Nigel-Params/with-SteepDescent/Only-C1/SD-CG/HFTN-CG
REM
REM
REM
REM
REM
REM ./C.cell (11c1c37f851c82e70ff6c80c92926a4b)
REM
REM compiler GCC version 9.2.1 20190827 (Red Hat 9.2.1-1)
REM options -cpp -mtune=generic -march=x86-64 -g -O0 -fpre-include=/usr/include/finclude/math-vector-fortran.h
REM seed 273215815 -202838249 1858963261 482190223 -953692545 570055797 -44643503 -1900733393 -1270347939 971552284 -474575329 1322623719 1879295826 -1622724814 -1891558556 -730379401 467788111 -134407807 2075699488 -1142396187 881143568 -147671606 -1542607565 -260966637 -1172530023 -1670404508 -73498325 -756922360 1073467454 627818765 1794040079 350180003 -1451100962
REM
CELL 1.54180   50.00000   50.00000   50.00000   90.00000   90.00000   90.00000
LATT -1
SFAC C  
C      1  0.5192190000000  0.5691190000000  0.4857290000000 1.0
C      1  0.5363050000000  0.4622330000000  0.5184320000000 1.0
C      1  0.5389840000000  0.5144330000000  0.5110090000000 1.0
C      1  0.5195380000000  0.5441090000000  0.5525020000000 1.0
C      1  0.4832040000000  0.4457140000000  0.5503550000000 1.0
C      1  0.4684700000000  0.5138970000000  0.4489680000000 1.0
C      1  0.4661070000000  0.5084030000000  0.5526550000000 1.0
C      1  0.5147820000000  0.5163350000000  0.5614410000000 1.0
C      1  0.4775540000000  0.5439580000000  0.4857830000000 1.0
C      1  0.5081660000000  0.4978680000000  0.4253900000000 1.0
C      1  0.5049900000000  0.4770160000000  0.5427300000000 1.0
C      1  0.4461400000000  0.5200320000000  0.5389190000000 1.0
C      1  0.5053630000000  0.4476750000000  0.4801920000000 1.0
C      1  0.5441160000000  0.5597560000000  0.4754130000000 1.0
C      1  0.5347630000000  0.5421400000000  0.5241260000000 1.0
C      1  0.4839720000000  0.4949840000000  0.4941110000000 1.0
C      1  0.5340870000000  0.5102690000000  0.4799160000000 1.0
C      1  0.5120260000000  0.5558670000000  0.5108780000000 1.0
C      1  0.5633390000000  0.4770970000000  0.4961520000000 1.0
C      1  0.4411030000000  0.4806810000000  0.5161720000000 1.0
C      1  0.5300880000000  0.4830740000000  0.4292650000000 1.0
C      1  0.4287480000000  0.4915010000000  0.4925900000000 1.0
C      1  0.4929860000000  0.5039990000000  0.5470780000000 1.0
C      1  0.4377360000000  0.4742890000000  0.4711280000000 1.0
C      1  0.4955240000000  0.5157330000000  0.4423220000000 1.0
C      1  0.4682070000000  0.4339020000000  0.5040990000000 1.0
C      1  0.5012690000000  0.4592460000000  0.5659620000000 1.0
C      1  0.5378550000000  0.5003180000000  0.5594450000000 1.0
C      1  0.5629170000000  0.4968640000000  0.5183950000000 1.0
C      1  0.5103100000000  0.5400210000000  0.4493350000000 1.0
C      1  0.4971670000000  0.5585090000000  0.4689760000000 1.0
C      1  0.4580900000000  0.4564050000000  0.4646160000000 1.0
C      1  0.4959590000000  0.5586440000000  0.5368390000000 1.0
C      1  0.4657430000000  0.4721140000000  0.5018800000000 1.0
C      1  0.5255890000000  0.4494030000000  0.4612120000000 1.0
C      1  0.5114820000000  0.4940720000000  0.5083640000000 1.0
C      1  0.4771130000000  0.4384300000000  0.4766000000000 1.0
C      1  0.4450160000000  0.5351180000000  0.5152710000000 1.0
C      1  0.5415060000000  0.4699440000000  0.4510080000000 1.0
C      1  0.5488440000000  0.4825170000000  0.5404380000000 1.0
C      1  0.5525670000000  0.4883490000000  0.4716040000000 1.0
C      1  0.4685880000000  0.5169670000000  0.4780540000000 1.0
C      1  0.5111640000000  0.4501480000000  0.5082420000000 1.0
C      1  0.5365440000000  0.5355590000000  0.4624590000000 1.0
C      1  0.4679320000000  0.5531660000000  0.5115050000000 1.0
C      1  0.4883240000000  0.4410210000000  0.5229320000000 1.0
C      1  0.4405040000000  0.5191020000000  0.4895080000000 1.0
END
