TITL C-950532-2784-216 -3.24523473951657e-06 125000 -885.671344972372 0 0 142 (C1) n - 1
REM
REM in /home/bkarasulu/work/CARBON/AIRSS/Generating-Clusters/EDIP-Nigel-Params/with-SteepDescent/Only-C1/SD-CG/HFTN-CG
REM
REM
REM
REM
REM
REM ./C.cell (11c1c37f851c82e70ff6c80c92926a4b)
REM
REM compiler GCC version 9.2.1 20190827 (Red Hat 9.2.1-1)
REM options -cpp -mtune=generic -march=x86-64 -g -O0 -fpre-include=/usr/include/finclude/math-vector-fortran.h
REM seed 114237223 -413043274 1626140933 861592350 -1548939906 -505561720 -1332750858 -484724049 752726528 -1611800336 1110742907 -1015278685 1255237426 -625314712 332313777 -49568521 -2052735049 -2024860535 2005875759 -812351532 -1859028417 -127632036 1260529946 1378970764 661098341 1284930434 -2846112 1142157787 147748233 -455856268 -1216551683 1969406612 -2107216587
REM
CELL 1.54180   50.00000   50.00000   50.00000   90.00000   90.00000   90.00000
LATT -1
SFAC C  
C      1  0.4765590000000  0.5042670000000  0.4872970000000 1.0
C      1  0.5530840000000  0.5057340000000  0.5208630000000 1.0
C      1  0.5018030000000  0.5078370000000  0.5066660000000 1.0
C      1  0.5666790000000  0.4848030000000  0.4799460000000 1.0
C      1  0.5533760000000  0.4796890000000  0.5063550000000 1.0
C      1  0.5871670000000  0.4439620000000  0.5073810000000 1.0
C      1  0.4638790000000  0.4311130000000  0.5299270000000 1.0
C      1  0.4977480000000  0.5978350000000  0.4331210000000 1.0
C      1  0.5650820000000  0.4276230000000  0.5003640000000 1.0
C      1  0.4837470000000  0.4471080000000  0.5992270000000 1.0
C      1  0.4809670000000  0.5954860000000  0.5043930000000 1.0
C      1  0.5138560000000  0.4819520000000  0.4647550000000 1.0
C      1  0.5037320000000  0.4489590000000  0.4178090000000 1.0
C      1  0.4824220000000  0.5739260000000  0.4217630000000 1.0
C      1  0.5415520000000  0.5055830000000  0.5502420000000 1.0
C      1  0.5737840000000  0.5604050000000  0.5196130000000 1.0
C      1  0.4832750000000  0.5405330000000  0.4603690000000 1.0
C      1  0.4254050000000  0.5055320000000  0.4804990000000 1.0
C      1  0.5673000000000  0.4410790000000  0.4529870000000 1.0
C      1  0.4253330000000  0.5554750000000  0.4637190000000 1.0
C      1  0.4277720000000  0.4527190000000  0.5143260000000 1.0
C      1  0.4336900000000  0.4905530000000  0.4395640000000 1.0
C      1  0.5052970000000  0.4066330000000  0.5367210000000 1.0
C      1  0.5473800000000  0.5822690000000  0.4448830000000 1.0
C      1  0.4609120000000  0.5469950000000  0.5063630000000 1.0
C      1  0.5218360000000  0.4274720000000  0.4637310000000 1.0
C      1  0.5120300000000  0.5062660000000  0.4077670000000 1.0
C      1  0.5824300000000  0.5121030000000  0.5276210000000 1.0
C      1  0.5277810000000  0.5144560000000  0.4573010000000 1.0
C      1  0.4663260000000  0.5367150000000  0.5936230000000 1.0
C      1  0.4686890000000  0.4516920000000  0.4004160000000 1.0
C      1  0.4888060000000  0.6130500000000  0.4798340000000 1.0
C      1  0.4306320000000  0.5382230000000  0.4424910000000 1.0
C      1  0.5042240000000  0.4612640000000  0.5175050000000 1.0
C      1  0.5140380000000  0.4782530000000  0.4208800000000 1.0
C      1  0.4161380000000  0.5420960000000  0.4881470000000 1.0
C      1  0.5294440000000  0.4426010000000  0.5838060000000 1.0
C      1  0.4523150000000  0.4033650000000  0.4802510000000 1.0
C      1  0.4800130000000  0.4130280000000  0.4888670000000 1.0
C      1  0.4054830000000  0.4890490000000  0.4458460000000 1.0
C      1  0.4897530000000  0.5242860000000  0.4137080000000 1.0
C      1  0.4107770000000  0.5016070000000  0.5214820000000 1.0
C      1  0.5716560000000  0.5415730000000  0.4957410000000 1.0
C      1  0.5084880000000  0.5846980000000  0.5107840000000 1.0
C      1  0.5511870000000  0.4298900000000  0.4743700000000 1.0
C      1  0.5349250000000  0.5532480000000  0.4061430000000 1.0
C      1  0.4808530000000  0.4086710000000  0.5204810000000 1.0
C      1  0.5932500000000  0.5207680000000  0.5002970000000 1.0
C      1  0.5075080000000  0.4280200000000  0.5591850000000 1.0
C      1  0.5745450000000  0.5369210000000  0.4424810000000 1.0
C      1  0.5404270000000  0.4724600000000  0.4307580000000 1.0
C      1  0.5550200000000  0.5621090000000  0.4249480000000 1.0
C      1  0.4718890000000  0.5682060000000  0.4512080000000 1.0
C      1  0.4761050000000  0.5178740000000  0.4398210000000 1.0
C      1  0.5234460000000  0.4294070000000  0.4329020000000 1.0
C      1  0.4758660000000  0.4532580000000  0.5113570000000 1.0
C      1  0.5121990000000  0.5586130000000  0.5235690000000 1.0
C      1  0.4287130000000  0.5441060000000  0.5363980000000 1.0
C      1  0.5095680000000  0.5187510000000  0.5861340000000 1.0
C      1  0.4818000000000  0.4291490000000  0.5754580000000 1.0
C      1  0.4619410000000  0.4438900000000  0.5596710000000 1.0
C      1  0.5832440000000  0.4669510000000  0.4605040000000 1.0
C      1  0.3997480000000  0.4829920000000  0.4994190000000 1.0
C      1  0.5132750000000  0.4558630000000  0.5446340000000 1.0
C      1  0.4229380000000  0.4761820000000  0.5666140000000 1.0
C      1  0.4861990000000  0.5600530000000  0.5404660000000 1.0
C      1  0.4510900000000  0.4871930000000  0.4877000000000 1.0
C      1  0.4899610000000  0.5725180000000  0.5669210000000 1.0
C      1  0.5362770000000  0.5245200000000  0.4096400000000 1.0
C      1  0.4978160000000  0.5522270000000  0.4099730000000 1.0
C      1  0.5605660000000  0.4920560000000  0.4273470000000 1.0
C      1  0.4519650000000  0.4721990000000  0.5134220000000 1.0
C      1  0.5180100000000  0.5687360000000  0.5705090000000 1.0
C      1  0.4788420000000  0.4449390000000  0.4822890000000 1.0
C      1  0.5745760000000  0.4645010000000  0.5229120000000 1.0
C      1  0.5308770000000  0.5987310000000  0.4994840000000 1.0
C      1  0.5534550000000  0.4898570000000  0.5955700000000 1.0
C      1  0.4585780000000  0.5308890000000  0.5665190000000 1.0
C      1  0.5494960000000  0.5180910000000  0.4354670000000 1.0
C      1  0.4664540000000  0.5843040000000  0.5389350000000 1.0
C      1  0.5505060000000  0.5352830000000  0.5577650000000 1.0
C      1  0.4369300000000  0.5736580000000  0.5374000000000 1.0
C      1  0.4457590000000  0.4661460000000  0.3985930000000 1.0
C      1  0.5063210000000  0.4038240000000  0.4755580000000 1.0
C      1  0.4569350000000  0.4900240000000  0.5371970000000 1.0
C      1  0.5208870000000  0.5928110000000  0.4508840000000 1.0
C      1  0.5954660000000  0.5136230000000  0.4490780000000 1.0
C      1  0.4666280000000  0.4916100000000  0.5924240000000 1.0
C      1  0.5487560000000  0.4450040000000  0.4302610000000 1.0
C      1  0.5376140000000  0.5118970000000  0.6012420000000 1.0
C      1  0.5748830000000  0.5525640000000  0.4683550000000 1.0
C      1  0.5128280000000  0.5377250000000  0.4689940000000 1.0
C      1  0.5248470000000  0.5532100000000  0.5929220000000 1.0
C      1  0.5638090000000  0.5785290000000  0.4687940000000 1.0
C      1  0.5283520000000  0.4018980000000  0.5199370000000 1.0
C      1  0.4577990000000  0.4650590000000  0.4666840000000 1.0
C      1  0.5488410000000  0.5370700000000  0.5888520000000 1.0
C      1  0.5020290000000  0.4749740000000  0.5635840000000 1.0
C      1  0.5594060000000  0.4816020000000  0.5689590000000 1.0
C      1  0.4437260000000  0.4190930000000  0.4568080000000 1.0
C      1  0.4376440000000  0.4546260000000  0.5784640000000 1.0
C      1  0.4583800000000  0.4644440000000  0.5995740000000 1.0
C      1  0.4783330000000  0.6061060000000  0.4537340000000 1.0
C      1  0.3967360000000  0.4963930000000  0.4721540000000 1.0
C      1  0.4913810000000  0.5112670000000  0.5350610000000 1.0
C      1  0.4338670000000  0.4064040000000  0.5013670000000 1.0
C      1  0.4269940000000  0.4749180000000  0.4163740000000 1.0
C      1  0.4677620000000  0.5311700000000  0.4835890000000 1.0
C      1  0.4315750000000  0.5855400000000  0.5121840000000 1.0
C      1  0.5876010000000  0.4866800000000  0.4368810000000 1.0
C      1  0.4756060000000  0.4437870000000  0.4263360000000 1.0
C      1  0.5769250000000  0.5399470000000  0.5426280000000 1.0
C      1  0.5512540000000  0.4517580000000  0.5671020000000 1.0
C      1  0.4718100000000  0.4738650000000  0.5588060000000 1.0
C      1  0.5880830000000  0.4836740000000  0.5650740000000 1.0
C      1  0.4471870000000  0.5748560000000  0.4677630000000 1.0
C      1  0.5224040000000  0.3914810000000  0.4945790000000 1.0
C      1  0.5558570000000  0.5839910000000  0.4962860000000 1.0
C      1  0.4314680000000  0.5256550000000  0.5592970000000 1.0
C      1  0.4826660000000  0.5146900000000  0.5998710000000 1.0
C      1  0.4361870000000  0.4256670000000  0.5217290000000 1.0
C      1  0.4549260000000  0.5756480000000  0.4969600000000 1.0
C      1  0.5062860000000  0.4516450000000  0.4718960000000 1.0
C      1  0.5457030000000  0.5266830000000  0.5014680000000 1.0
C      1  0.5084330000000  0.4625030000000  0.5910340000000 1.0
C      1  0.5312660000000  0.5571230000000  0.5473420000000 1.0
C      1  0.5180790000000  0.6094140000000  0.4749270000000 1.0
C      1  0.5502400000000  0.4203720000000  0.5235080000000 1.0
C      1  0.5910710000000  0.4845790000000  0.5375940000000 1.0
C      1  0.5171270000000  0.5339730000000  0.4992390000000 1.0
C      1  0.4152130000000  0.4494270000000  0.4883190000000 1.0
C      1  0.5581100000000  0.4321500000000  0.5478250000000 1.0
C      1  0.4140340000000  0.5305130000000  0.5149440000000 1.0
C      1  0.4846380000000  0.4926080000000  0.4592140000000 1.0
C      1  0.4715840000000  0.5342380000000  0.5386330000000 1.0
C      1  0.5190790000000  0.4819380000000  0.5007990000000 1.0
C      1  0.4331220000000  0.4467680000000  0.4646400000000 1.0
C      1  0.4644060000000  0.4212670000000  0.4379530000000 1.0
C      1  0.5931640000000  0.5007540000000  0.4779340000000 1.0
C      1  0.5110550000000  0.5037710000000  0.5580940000000 1.0
C      1  0.4288730000000  0.4975690000000  0.5472030000000 1.0
C      1  0.4462780000000  0.5165280000000  0.4348710000000 1.0
END
