TITL C-950529-3362-468 -2.49988164778672e-06 125000 -1185.48826128143 0 0 189 (C1) n - 1
REM
REM in /home/bkarasulu/work/CARBON/AIRSS/Generating-Clusters/EDIP-Nigel-Params/with-SteepDescent/Only-C1/SD-CG/HFTN-CG
REM
REM
REM
REM
REM
REM ./C.cell (11c1c37f851c82e70ff6c80c92926a4b)
REM
REM compiler GCC version 9.2.1 20190827 (Red Hat 9.2.1-1)
REM options -cpp -mtune=generic -march=x86-64 -g -O0 -fpre-include=/usr/include/finclude/math-vector-fortran.h
REM seed 1091439335 -1182618241 801094805 -762819633 -1736611936 -2024966440 153340186 -813150041 -1675862058 -2053775656 -1707215742 1760900077 1412987021 1081953765 -1339032811 -577852957 -2102194776 1973532637 -912538096 -1648814504 1580503013 -1204506477 567508595 1251197511 -665336105 1101306664 393573100 102819237 -1620184408 327555312 -300840925 1869117888 1723445599
REM
CELL 1.54180   50.00000   50.00000   50.00000   90.00000   90.00000   90.00000
LATT -1
SFAC C  
C      1  0.4465650000000  0.5121220000000  0.5988270000000 1.0
C      1  0.5122800000000  0.4528800000000  0.5889300000000 1.0
C      1  0.4012780000000  0.5318710000000  0.4682090000000 1.0
C      1  0.4370220000000  0.5748860000000  0.4121650000000 1.0
C      1  0.4729950000000  0.4913150000000  0.4917370000000 1.0
C      1  0.4198530000000  0.5000550000000  0.5894900000000 1.0
C      1  0.6022240000000  0.4421390000000  0.5455940000000 1.0
C      1  0.4947130000000  0.4955850000000  0.5107240000000 1.0
C      1  0.5055630000000  0.4620820000000  0.4576430000000 1.0
C      1  0.5992610000000  0.5335660000000  0.5183780000000 1.0
C      1  0.5070050000000  0.5041890000000  0.5706740000000 1.0
C      1  0.4773070000000  0.5039330000000  0.5600870000000 1.0
C      1  0.5402870000000  0.4088120000000  0.5050910000000 1.0
C      1  0.4937680000000  0.5359860000000  0.6132820000000 1.0
C      1  0.4228730000000  0.4338900000000  0.4610320000000 1.0
C      1  0.4928150000000  0.6139410000000  0.4778010000000 1.0
C      1  0.5548040000000  0.5652680000000  0.5808250000000 1.0
C      1  0.3902410000000  0.4890130000000  0.4870370000000 1.0
C      1  0.5524170000000  0.4768550000000  0.4691180000000 1.0
C      1  0.6119430000000  0.4914710000000  0.5088020000000 1.0
C      1  0.5651600000000  0.5699520000000  0.4379630000000 1.0
C      1  0.4114050000000  0.4206720000000  0.5015980000000 1.0
C      1  0.4189550000000  0.4491500000000  0.5049330000000 1.0
C      1  0.5497480000000  0.5017720000000  0.4496980000000 1.0
C      1  0.5208100000000  0.5751660000000  0.5097500000000 1.0
C      1  0.5730100000000  0.4947220000000  0.4878110000000 1.0
C      1  0.5831120000000  0.5561920000000  0.5111480000000 1.0
C      1  0.4486510000000  0.4923630000000  0.3981740000000 1.0
C      1  0.5339030000000  0.6118590000000  0.5219170000000 1.0
C      1  0.4878420000000  0.5577710000000  0.5966410000000 1.0
C      1  0.5482150000000  0.5112400000000  0.5076240000000 1.0
C      1  0.4699260000000  0.5434820000000  0.3968190000000 1.0
C      1  0.4815540000000  0.4529530000000  0.4068010000000 1.0
C      1  0.5115500000000  0.4543390000000  0.4053150000000 1.0
C      1  0.4223890000000  0.4719800000000  0.5805980000000 1.0
C      1  0.5230220000000  0.4757050000000  0.3867350000000 1.0
C      1  0.4829140000000  0.5879410000000  0.5440940000000 1.0
C      1  0.5921140000000  0.5028650000000  0.5879660000000 1.0
C      1  0.4584420000000  0.5101170000000  0.4310860000000 1.0
C      1  0.5948120000000  0.5312590000000  0.4575060000000 1.0
C      1  0.4331060000000  0.4829820000000  0.4681270000000 1.0
C      1  0.5319180000000  0.4338630000000  0.5477070000000 1.0
C      1  0.4697590000000  0.4949820000000  0.6056900000000 1.0
C      1  0.5331240000000  0.4127210000000  0.4568710000000 1.0
C      1  0.5008420000000  0.6192580000000  0.5059460000000 1.0
C      1  0.4544580000000  0.4173420000000  0.4346200000000 1.0
C      1  0.4740810000000  0.5472330000000  0.4952720000000 1.0
C      1  0.4364580000000  0.4401280000000  0.4364300000000 1.0
C      1  0.4557570000000  0.4850940000000  0.4476430000000 1.0
C      1  0.5522810000000  0.4341160000000  0.4111540000000 1.0
C      1  0.5100510000000  0.5804470000000  0.4394920000000 1.0
C      1  0.4815810000000  0.4274200000000  0.4258650000000 1.0
C      1  0.5161750000000  0.4107310000000  0.4302190000000 1.0
C      1  0.4792690000000  0.4784500000000  0.4655820000000 1.0
C      1  0.5632380000000  0.4903750000000  0.5260790000000 1.0
C      1  0.5152620000000  0.5306590000000  0.5608540000000 1.0
C      1  0.5585590000000  0.4473170000000  0.5513120000000 1.0
C      1  0.4310220000000  0.5304690000000  0.5567550000000 1.0
C      1  0.5255400000000  0.4318810000000  0.5183180000000 1.0
C      1  0.4636830000000  0.5546630000000  0.5811200000000 1.0
C      1  0.5445020000000  0.5202520000000  0.5998140000000 1.0
C      1  0.4178860000000  0.5551680000000  0.4718990000000 1.0
C      1  0.5072610000000  0.4073980000000  0.5738760000000 1.0
C      1  0.4559090000000  0.4102530000000  0.5149940000000 1.0
C      1  0.5732400000000  0.5763220000000  0.4657350000000 1.0
C      1  0.5108580000000  0.4256440000000  0.5951640000000 1.0
C      1  0.5867310000000  0.5249020000000  0.5717610000000 1.0
C      1  0.5443320000000  0.4947790000000  0.4009110000000 1.0
C      1  0.3946260000000  0.4381620000000  0.4573860000000 1.0
C      1  0.4671640000000  0.4745230000000  0.5574310000000 1.0
C      1  0.4876630000000  0.4120870000000  0.5523550000000 1.0
C      1  0.5257920000000  0.4592690000000  0.5083280000000 1.0
C      1  0.5579940000000  0.4710020000000  0.5740950000000 1.0
C      1  0.5310940000000  0.5786570000000  0.4807920000000 1.0
C      1  0.4670980000000  0.5950930000000  0.4787200000000 1.0
C      1  0.5549910000000  0.5793200000000  0.5550890000000 1.0
C      1  0.5345530000000  0.5739910000000  0.5982330000000 1.0
C      1  0.6042790000000  0.4395640000000  0.5169570000000 1.0
C      1  0.5932540000000  0.5184480000000  0.5432500000000 1.0
C      1  0.4414460000000  0.4123630000000  0.5399460000000 1.0
C      1  0.5532270000000  0.5421370000000  0.3981750000000 1.0
C      1  0.5068270000000  0.5906470000000  0.5619420000000 1.0
C      1  0.4125760000000  0.5528030000000  0.5229000000000 1.0
C      1  0.4776730000000  0.4225380000000  0.4753570000000 1.0
C      1  0.5212170000000  0.4847180000000  0.5531840000000 1.0
C      1  0.4875550000000  0.5212940000000  0.4622510000000 1.0
C      1  0.4512540000000  0.4616750000000  0.5823580000000 1.0
C      1  0.4598190000000  0.4142290000000  0.5610500000000 1.0
C      1  0.5656170000000  0.4217810000000  0.4913050000000 1.0
C      1  0.4751180000000  0.4805060000000  0.3968640000000 1.0
C      1  0.4394370000000  0.5777700000000  0.4400750000000 1.0
C      1  0.4171200000000  0.4576010000000  0.4219020000000 1.0
C      1  0.5135700000000  0.4557880000000  0.5595570000000 1.0
C      1  0.4510070000000  0.5751450000000  0.5633000000000 1.0
C      1  0.5277920000000  0.5001780000000  0.4276830000000 1.0
C      1  0.5115470000000  0.5296900000000  0.4799870000000 1.0
C      1  0.5221910000000  0.4016720000000  0.4824700000000 1.0
C      1  0.3927720000000  0.5290200000000  0.5199310000000 1.0
C      1  0.4560710000000  0.5534280000000  0.5161000000000 1.0
C      1  0.5490890000000  0.4946060000000  0.5530800000000 1.0
C      1  0.5872040000000  0.4763120000000  0.5807060000000 1.0
C      1  0.4463430000000  0.5809970000000  0.5027750000000 1.0
C      1  0.5434340000000  0.5259170000000  0.5541410000000 1.0
C      1  0.5718310000000  0.4971090000000  0.4284030000000 1.0
C      1  0.4837140000000  0.5135710000000  0.5319930000000 1.0
C      1  0.4990930000000  0.5382190000000  0.5369180000000 1.0
C      1  0.5784340000000  0.4461230000000  0.5037710000000 1.0
C      1  0.5657700000000  0.4554180000000  0.4519130000000 1.0
C      1  0.4440040000000  0.5483700000000  0.4072060000000 1.0
C      1  0.4631970000000  0.5900430000000  0.4484940000000 1.0
C      1  0.4874200000000  0.5699200000000  0.4835100000000 1.0
C      1  0.5113190000000  0.5208880000000  0.3806130000000 1.0
C      1  0.6033880000000  0.4769830000000  0.4648080000000 1.0
C      1  0.5290240000000  0.5567290000000  0.4373610000000 1.0
C      1  0.4564040000000  0.4054460000000  0.4625030000000 1.0
C      1  0.4851890000000  0.5678540000000  0.4486960000000 1.0
C      1  0.5885120000000  0.4729830000000  0.4412240000000 1.0
C      1  0.4098230000000  0.5240940000000  0.4394100000000 1.0
C      1  0.5586830000000  0.4608380000000  0.5224330000000 1.0
C      1  0.5344170000000  0.4710570000000  0.5971430000000 1.0
C      1  0.4304670000000  0.4985630000000  0.5346290000000 1.0
C      1  0.5266340000000  0.4656840000000  0.4791520000000 1.0
C      1  0.4994150000000  0.4679980000000  0.5187670000000 1.0
C      1  0.5225040000000  0.5001460000000  0.5990960000000 1.0
C      1  0.5089970000000  0.5753610000000  0.5868650000000 1.0
C      1  0.4277450000000  0.5597150000000  0.5498680000000 1.0
C      1  0.5577280000000  0.6080810000000  0.5058780000000 1.0
C      1  0.4422720000000  0.5517010000000  0.4552590000000 1.0
C      1  0.5213880000000  0.4689210000000  0.4311890000000 1.0
C      1  0.5320520000000  0.5957710000000  0.5472220000000 1.0
C      1  0.6098540000000  0.5170510000000  0.4967990000000 1.0
C      1  0.5801480000000  0.4279290000000  0.5557190000000 1.0
C      1  0.4360310000000  0.4073440000000  0.4933830000000 1.0
C      1  0.4351840000000  0.5221630000000  0.5142820000000 1.0
C      1  0.6180940000000  0.5214710000000  0.4699360000000 1.0
C      1  0.5589550000000  0.5353330000000  0.5784900000000 1.0
C      1  0.4951570000000  0.5912670000000  0.5152300000000 1.0
C      1  0.4957360000000  0.5080110000000  0.6134460000000 1.0
C      1  0.4027320000000  0.5013960000000  0.4238760000000 1.0
C      1  0.4525420000000  0.4331570000000  0.5798550000000 1.0
C      1  0.5410780000000  0.5201990000000  0.3858490000000 1.0
C      1  0.4192630000000  0.5694850000000  0.4981460000000 1.0
C      1  0.3888980000000  0.5103980000000  0.5442770000000 1.0
C      1  0.5201520000000  0.5060850000000  0.4962120000000 1.0
C      1  0.6054090000000  0.4929490000000  0.5371710000000 1.0
C      1  0.4035910000000  0.4859190000000  0.4590000000000 1.0
C      1  0.4659220000000  0.4395800000000  0.5157040000000 1.0
C      1  0.5151120000000  0.5979670000000  0.4631860000000 1.0
C      1  0.4994600000000  0.4931760000000  0.3842670000000 1.0
C      1  0.3947190000000  0.4616770000000  0.4418320000000 1.0
C      1  0.4390510000000  0.4492620000000  0.5275710000000 1.0
C      1  0.5465320000000  0.5368340000000  0.5252710000000 1.0
C      1  0.4052260000000  0.4665210000000  0.5588140000000 1.0
C      1  0.5189740000000  0.5457150000000  0.5151680000000 1.0
C      1  0.5696920000000  0.5670610000000  0.5338210000000 1.0
C      1  0.5334270000000  0.5486500000000  0.4672710000000 1.0
C      1  0.5597010000000  0.4259260000000  0.4629290000000 1.0
C      1  0.4490800000000  0.4761900000000  0.5348700000000 1.0
C      1  0.4856540000000  0.5367480000000  0.4376870000000 1.0
C      1  0.3974400000000  0.4707340000000  0.5096030000000 1.0
C      1  0.5686390000000  0.5463880000000  0.4210710000000 1.0
C      1  0.4477870000000  0.5082770000000  0.4887050000000 1.0
C      1  0.4654790000000  0.4484460000000  0.4865510000000 1.0
C      1  0.5122570000000  0.5335370000000  0.4230650000000 1.0
C      1  0.5699990000000  0.5252590000000  0.4718590000000 1.0
C      1  0.5315500000000  0.4046770000000  0.5578300000000 1.0
C      1  0.3965530000000  0.5165140000000  0.4931360000000 1.0
C      1  0.5677830000000  0.5535200000000  0.4849470000000 1.0
C      1  0.4552250000000  0.5267110000000  0.5747840000000 1.0
C      1  0.4057360000000  0.5198040000000  0.5690620000000 1.0
C      1  0.6079380000000  0.4684800000000  0.4917970000000 1.0
C      1  0.4376260000000  0.5327570000000  0.4322030000000 1.0
C      1  0.4758150000000  0.5580640000000  0.5390260000000 1.0
C      1  0.5860470000000  0.5244250000000  0.4302100000000 1.0
C      1  0.5257030000000  0.3902620000000  0.5321410000000 1.0
C      1  0.4633300000000  0.4680550000000  0.6082280000000 1.0
C      1  0.4031860000000  0.4849810000000  0.5364190000000 1.0
C      1  0.5255310000000  0.4266800000000  0.4066180000000 1.0
C      1  0.4984190000000  0.5423330000000  0.3959420000000 1.0
C      1  0.5557710000000  0.5958640000000  0.4803620000000 1.0
C      1  0.4951150000000  0.4335920000000  0.4535620000000 1.0
C      1  0.4958850000000  0.4077300000000  0.4958410000000 1.0
C      1  0.4254170000000  0.4850120000000  0.4152780000000 1.0
C      1  0.5494390000000  0.4562480000000  0.4286550000000 1.0
C      1  0.4971200000000  0.3989950000000  0.5261690000000 1.0
C      1  0.6014490000000  0.4701440000000  0.5551680000000 1.0
C      1  0.4354090000000  0.4540840000000  0.4799900000000 1.0
C      1  0.4621670000000  0.5312250000000  0.4749560000000 1.0
C      1  0.4873370000000  0.4550110000000  0.5439280000000 1.0
END
