TITL C-950530-3293-19 1.06716216481788e-06 125000 -651.760392987164 0 0 105 (C1) n - 1
REM
REM in /home/bkarasulu/work/CARBON/AIRSS/Generating-Clusters/EDIP-Nigel-Params/with-SteepDescent/Only-C1/SD-CG/HFTN-CG
REM
REM
REM
REM
REM
REM ./C.cell (11c1c37f851c82e70ff6c80c92926a4b)
REM
REM compiler GCC version 9.2.1 20190827 (Red Hat 9.2.1-1)
REM options -cpp -mtune=generic -march=x86-64 -g -O0 -fpre-include=/usr/include/finclude/math-vector-fortran.h
REM seed 340179818 608348822 -102458262 1828276438 -445956176 1726659120 2063221470 330320007 242655916 323282359 -1189553560 1127873961 2033099983 -448731038 1674863706 1378705149 1525903926 -2084419969 -1583969738 1132494333 -2057861380 -491947522 -539440013 1479835714 227516044 885266360 -2105162894 -1196962110 -115647448 1186812047 -548921778 1993454694 313617901
REM
CELL 1.54180   50.00000   50.00000   50.00000   90.00000   90.00000   90.00000
LATT -1
SFAC C  
C      1  0.5487530000000  0.5527660000000  0.5477990000000 1.0
C      1  0.4668890000000  0.5576140000000  0.4809470000000 1.0
C      1  0.4501930000000  0.5303110000000  0.4800310000000 1.0
C      1  0.5212080000000  0.5268270000000  0.5258360000000 1.0
C      1  0.4860630000000  0.5710250000000  0.5546980000000 1.0
C      1  0.5040820000000  0.5065920000000  0.5420730000000 1.0
C      1  0.5193970000000  0.5295880000000  0.4751210000000 1.0
C      1  0.5356880000000  0.4166100000000  0.5259370000000 1.0
C      1  0.4521830000000  0.4217430000000  0.4766430000000 1.0
C      1  0.5274560000000  0.5375270000000  0.5633920000000 1.0
C      1  0.5445150000000  0.4586370000000  0.5512420000000 1.0
C      1  0.4740220000000  0.5225990000000  0.4249390000000 1.0
C      1  0.4926700000000  0.5853460000000  0.4582530000000 1.0
C      1  0.5050800000000  0.5128800000000  0.4546690000000 1.0
C      1  0.4854340000000  0.4257670000000  0.5581910000000 1.0
C      1  0.4472290000000  0.4704200000000  0.4826450000000 1.0
C      1  0.5167440000000  0.5020390000000  0.5995800000000 1.0
C      1  0.5719600000000  0.4767270000000  0.4544850000000 1.0
C      1  0.5371950000000  0.5156530000000  0.5831580000000 1.0
C      1  0.5751370000000  0.5133900000000  0.5228100000000 1.0
C      1  0.5631860000000  0.5102470000000  0.4957900000000 1.0
C      1  0.5529300000000  0.4541750000000  0.4470480000000 1.0
C      1  0.4905350000000  0.5950820000000  0.4864190000000 1.0
C      1  0.5435080000000  0.4950540000000  0.4192220000000 1.0
C      1  0.5167320000000  0.4736300000000  0.5915510000000 1.0
C      1  0.4456170000000  0.4304240000000  0.4507870000000 1.0
C      1  0.5702430000000  0.4647960000000  0.5399330000000 1.0
C      1  0.5746260000000  0.5577130000000  0.4838420000000 1.0
C      1  0.4505890000000  0.4446350000000  0.4963320000000 1.0
C      1  0.5689920000000  0.5366250000000  0.5370300000000 1.0
C      1  0.4395950000000  0.5411650000000  0.5492850000000 1.0
C      1  0.4163300000000  0.4717470000000  0.5177860000000 1.0
C      1  0.4914190000000  0.4433780000000  0.4421690000000 1.0
C      1  0.5187170000000  0.4285170000000  0.4805560000000 1.0
C      1  0.5365980000000  0.4292080000000  0.5507270000000 1.0
C      1  0.4790760000000  0.4073710000000  0.4781260000000 1.0
C      1  0.4406410000000  0.5150970000000  0.5058300000000 1.0
C      1  0.5802960000000  0.4894630000000  0.5356600000000 1.0
C      1  0.4544570000000  0.5195820000000  0.5651940000000 1.0
C      1  0.4450980000000  0.4660140000000  0.5699690000000 1.0
C      1  0.4851890000000  0.5211900000000  0.5672160000000 1.0
C      1  0.4439270000000  0.4943080000000  0.5733610000000 1.0
C      1  0.5031910000000  0.5493150000000  0.5159240000000 1.0
C      1  0.4920050000000  0.4705120000000  0.5743540000000 1.0
C      1  0.4204610000000  0.5318360000000  0.5202510000000 1.0
C      1  0.5230610000000  0.5170400000000  0.4202090000000 1.0
C      1  0.4707170000000  0.5666010000000  0.4532700000000 1.0
C      1  0.4918000000000  0.4030790000000  0.5068960000000 1.0
C      1  0.5572800000000  0.5687400000000  0.4642980000000 1.0
C      1  0.4934100000000  0.4648930000000  0.4637680000000 1.0
C      1  0.5461500000000  0.4408020000000  0.4735210000000 1.0
C      1  0.5023900000000  0.4527300000000  0.4910410000000 1.0
C      1  0.4952870000000  0.5077110000000  0.4120710000000 1.0
C      1  0.4979160000000  0.4969980000000  0.4940470000000 1.0
C      1  0.4090000000000  0.5461000000000  0.4984930000000 1.0
C      1  0.4776230000000  0.4463160000000  0.5095540000000 1.0
C      1  0.4605030000000  0.4748060000000  0.4241430000000 1.0
C      1  0.5083670000000  0.5631970000000  0.4305350000000 1.0
C      1  0.4794260000000  0.4217150000000  0.5270390000000 1.0
C      1  0.4222380000000  0.5403840000000  0.4740810000000 1.0
C      1  0.5191310000000  0.5936240000000  0.4964690000000 1.0
C      1  0.4305260000000  0.4877370000000  0.4985960000000 1.0
C      1  0.4746410000000  0.5431130000000  0.5218540000000 1.0
C      1  0.4842750000000  0.5478210000000  0.4362760000000 1.0
C      1  0.5510020000000  0.4612470000000  0.4946310000000 1.0
C      1  0.5131670000000  0.4230220000000  0.5643260000000 1.0
C      1  0.4514990000000  0.5044750000000  0.4299050000000 1.0
C      1  0.5148880000000  0.4839150000000  0.4559110000000 1.0
C      1  0.4598380000000  0.5620950000000  0.5391130000000 1.0
C      1  0.5080390000000  0.4574400000000  0.4198900000000 1.0
C      1  0.5209120000000  0.4089180000000  0.5033060000000 1.0
C      1  0.4985300000000  0.5483410000000  0.5697360000000 1.0
C      1  0.4103280000000  0.5275070000000  0.4527800000000 1.0
C      1  0.5325960000000  0.5797380000000  0.4744650000000 1.0
C      1  0.5682240000000  0.4824330000000  0.4839840000000 1.0
C      1  0.4878470000000  0.4785080000000  0.4106290000000 1.0
C      1  0.4666500000000  0.4797210000000  0.4623260000000 1.0
C      1  0.5670850000000  0.5004150000000  0.4365570000000 1.0
C      1  0.4845890000000  0.4964830000000  0.5207860000000 1.0
C      1  0.4911390000000  0.5105190000000  0.5930830000000 1.0
C      1  0.4260200000000  0.5130660000000  0.4366340000000 1.0
C      1  0.5002380000000  0.4184200000000  0.4582360000000 1.0
C      1  0.4641590000000  0.5161860000000  0.5222790000000 1.0
C      1  0.5555580000000  0.5508630000000  0.4397580000000 1.0
C      1  0.5320830000000  0.6002050000000  0.5221110000000 1.0
C      1  0.5299810000000  0.5135730000000  0.4986210000000 1.0
C      1  0.5073180000000  0.5729400000000  0.5336850000000 1.0
C      1  0.4749910000000  0.5086610000000  0.4671590000000 1.0
C      1  0.5659920000000  0.5261240000000  0.4505490000000 1.0
C      1  0.5435830000000  0.4720320000000  0.5779900000000 1.0
C      1  0.4757300000000  0.4685910000000  0.5291990000000 1.0
C      1  0.5054660000000  0.5540040000000  0.4843210000000 1.0
C      1  0.5242110000000  0.4704860000000  0.5053510000000 1.0
C      1  0.4305110000000  0.4459930000000  0.5198720000000 1.0
C      1  0.5756490000000  0.5303750000000  0.4772830000000 1.0
C      1  0.5308040000000  0.5468310000000  0.4230820000000 1.0
C      1  0.5307310000000  0.4717610000000  0.4339490000000 1.0
C      1  0.4684920000000  0.5811850000000  0.4996570000000 1.0
C      1  0.5448830000000  0.5805810000000  0.5392660000000 1.0
C      1  0.5577750000000  0.4968280000000  0.5788510000000 1.0
C      1  0.4978930000000  0.4609460000000  0.5473520000000 1.0
C      1  0.4471650000000  0.4664830000000  0.5400950000000 1.0
C      1  0.4626670000000  0.4451200000000  0.4344920000000 1.0
C      1  0.5228020000000  0.4731650000000  0.5359910000000 1.0
C      1  0.4693630000000  0.4522540000000  0.5798160000000 1.0
END
