TITL C-950522-5749-265 5.16006071421663e-07 125000 -498.321795367473 0 0 81 (C1) n - 1
REM
REM in /home/bkarasulu/work/CARBON/AIRSS/Generating-Clusters/EDIP-Nigel-Params/with-SteepDescent/Only-C1/SD-CG/HFTN-CG
REM
REM
REM
REM
REM
REM ./C.cell (11c1c37f851c82e70ff6c80c92926a4b)
REM
REM compiler GCC version 9.2.1 20190827 (Red Hat 9.2.1-1)
REM options -cpp -mtune=generic -march=x86-64 -g -O0 -fpre-include=/usr/include/finclude/math-vector-fortran.h
REM seed -1661082568 -367428336 1664002905 -1431941272 1779058706 2092323831 -1981777166 -499867931 -1173533573 1915353916 -203153208 842520970 -263169871 125699206 64365160 479967862 661832640 2014680385 2077472732 -936377844 -1998827348 -407028188 1523779965 303827199 -1510319790 -1736372043 56543809 -807139045 -1560575617 103942239 1253703003 -1789112006 778103662
REM
CELL 1.54180   50.00000   50.00000   50.00000   90.00000   90.00000   90.00000
LATT -1
SFAC C  
C      1  0.5242340000000  0.5671140000000  0.4632760000000 1.0
C      1  0.5150180000000  0.5250170000000  0.5061730000000 1.0
C      1  0.5316420000000  0.5697370000000  0.4905700000000 1.0
C      1  0.5054360000000  0.4287950000000  0.5510790000000 1.0
C      1  0.4548670000000  0.4582880000000  0.4529830000000 1.0
C      1  0.5500730000000  0.4833270000000  0.5411540000000 1.0
C      1  0.5134710000000  0.5168210000000  0.4785250000000 1.0
C      1  0.4659080000000  0.5388870000000  0.4282280000000 1.0
C      1  0.4904710000000  0.4750230000000  0.5731130000000 1.0
C      1  0.4670530000000  0.5072980000000  0.4729660000000 1.0
C      1  0.4819890000000  0.4173720000000  0.5392970000000 1.0
C      1  0.5944980000000  0.4825500000000  0.5178510000000 1.0
C      1  0.4442730000000  0.5633800000000  0.4990810000000 1.0
C      1  0.4830890000000  0.4934530000000  0.4355300000000 1.0
C      1  0.5065980000000  0.5647880000000  0.4413840000000 1.0
C      1  0.4677590000000  0.5348720000000  0.5571120000000 1.0
C      1  0.5236000000000  0.4136140000000  0.5093870000000 1.0
C      1  0.5169780000000  0.4650930000000  0.4860130000000 1.0
C      1  0.5116350000000  0.4237080000000  0.4603320000000 1.0
C      1  0.5393070000000  0.4550490000000  0.4373460000000 1.0
C      1  0.4829730000000  0.5137890000000  0.5420110000000 1.0
C      1  0.5197670000000  0.4999920000000  0.5215100000000 1.0
C      1  0.4962680000000  0.4479420000000  0.4701180000000 1.0
C      1  0.5070780000000  0.5461420000000  0.5735110000000 1.0
C      1  0.5075010000000  0.4981010000000  0.5780880000000 1.0
C      1  0.4474210000000  0.4483590000000  0.5238530000000 1.0
C      1  0.5634860000000  0.5345010000000  0.5023660000000 1.0
C      1  0.5072680000000  0.5123380000000  0.4226150000000 1.0
C      1  0.4281790000000  0.4960380000000  0.5399960000000 1.0
C      1  0.4750580000000  0.4365290000000  0.4893080000000 1.0
C      1  0.4270540000000  0.4927880000000  0.5121080000000 1.0
C      1  0.5131890000000  0.5847430000000  0.5087910000000 1.0
C      1  0.5026290000000  0.4499000000000  0.5694750000000 1.0
C      1  0.5374550000000  0.5462440000000  0.5089680000000 1.0
C      1  0.4927830000000  0.5654810000000  0.5548920000000 1.0
C      1  0.4500590000000  0.4495590000000  0.4793040000000 1.0
C      1  0.5743880000000  0.4759310000000  0.4681490000000 1.0
C      1  0.4809270000000  0.5605630000000  0.4768650000000 1.0
C      1  0.4573280000000  0.5087810000000  0.4303370000000 1.0
C      1  0.5370500000000  0.5557950000000  0.5374200000000 1.0
C      1  0.4755760000000  0.4837950000000  0.5492040000000 1.0
C      1  0.5355990000000  0.5035950000000  0.4291050000000 1.0
C      1  0.5607920000000  0.4499640000000  0.5067680000000 1.0
C      1  0.5586720000000  0.4519750000000  0.4595690000000 1.0
C      1  0.5570640000000  0.4996470000000  0.4616130000000 1.0
C      1  0.5308830000000  0.5359120000000  0.5588490000000 1.0
C      1  0.4332890000000  0.5175950000000  0.4992150000000 1.0
C      1  0.4876350000000  0.5304790000000  0.5176090000000 1.0
C      1  0.5313620000000  0.4176180000000  0.4826120000000 1.0
C      1  0.4427790000000  0.5613060000000  0.4698790000000 1.0
C      1  0.4391460000000  0.4531690000000  0.5503680000000 1.0
C      1  0.4889460000000  0.4640160000000  0.5299340000000 1.0
C      1  0.4999970000000  0.4796700000000  0.5084030000000 1.0
C      1  0.4891520000000  0.5286370000000  0.4676190000000 1.0
C      1  0.5425780000000  0.4454160000000  0.4841830000000 1.0
C      1  0.4458370000000  0.4799410000000  0.5545560000000 1.0
C      1  0.4368920000000  0.5019370000000  0.4497590000000 1.0
C      1  0.4859090000000  0.5776340000000  0.5015540000000 1.0
C      1  0.4301330000000  0.5191720000000  0.4709020000000 1.0
C      1  0.5774200000000  0.4717570000000  0.4980080000000 1.0
C      1  0.5746680000000  0.5225760000000  0.5246550000000 1.0
C      1  0.5240480000000  0.4312650000000  0.4362150000000 1.0
C      1  0.4943950000000  0.5367580000000  0.4380010000000 1.0
C      1  0.5650270000000  0.5220260000000  0.4775910000000 1.0
C      1  0.5764780000000  0.4967240000000  0.5344480000000 1.0
C      1  0.5250490000000  0.4326590000000  0.5303240000000 1.0
C      1  0.5465590000000  0.4534950000000  0.5316190000000 1.0
C      1  0.4346790000000  0.5417140000000  0.5152570000000 1.0
C      1  0.4752620000000  0.5580580000000  0.5210620000000 1.0
C      1  0.4546600000000  0.5646850000000  0.4421670000000 1.0
C      1  0.5163920000000  0.5767860000000  0.5382530000000 1.0
C      1  0.4723450000000  0.4885020000000  0.4966730000000 1.0
C      1  0.4465690000000  0.4711000000000  0.5022010000000 1.0
C      1  0.4429510000000  0.5403220000000  0.5425040000000 1.0
C      1  0.5251350000000  0.5058800000000  0.5537070000000 1.0
C      1  0.4748470000000  0.4393110000000  0.5204680000000 1.0
C      1  0.5227840000000  0.4799460000000  0.4424710000000 1.0
C      1  0.4927970000000  0.5228880000000  0.5840040000000 1.0
C      1  0.4813630000000  0.5789850000000  0.4497380000000 1.0
C      1  0.4816680000000  0.4649480000000  0.4471640000000 1.0
C      1  0.5268950000000  0.4904350000000  0.4706860000000 1.0
END
