TITL C-951336-9012-552 -1.58161123489273e-06 125000 -1098.92626722037 0 0 174 (C1) n - 1
REM
REM in /home/bkarasulu/work/CARBON/AIRSS/Generating-Clusters/EDIP-Nigel-Params/with-SteepDescent/Only-C1/SD-CG/HFTN-CG
REM
REM
REM
REM
REM
REM ./C.cell (11c1c37f851c82e70ff6c80c92926a4b)
REM
REM compiler GCC version 9.2.1 20190827 (Red Hat 9.2.1-1)
REM options -cpp -mtune=generic -march=x86-64 -g -O0 -fpre-include=/usr/include/finclude/math-vector-fortran.h
REM seed -1085348124 -276252103 1509560401 275093369 1356173466 894857737 -204583441 1748095 -1124514592 -1266626329 -915858515 -81154139 -167183818 -635735560 2043986847 1235979484 2013243133 -650926957 -28642478 -890972659 -342575787 -451056637 1218518827 1366759127 484246826 -1766633680 -1844681721 1159768302 348251957 291665903 -1158401956 1095404868 -440562616
REM
CELL 1.54180   50.00000   50.00000   50.00000   90.00000   90.00000   90.00000
LATT -1
SFAC C  
C      1  0.4923050000000  0.4960540000000  0.4556810000000 1.0
C      1  0.5685340000000  0.4008100000000  0.5438340000000 1.0
C      1  0.5533910000000  0.4216940000000  0.5548470000000 1.0
C      1  0.5247090000000  0.4841130000000  0.4907630000000 1.0
C      1  0.4073310000000  0.5109400000000  0.4977840000000 1.0
C      1  0.5417020000000  0.5815260000000  0.4690340000000 1.0
C      1  0.4269950000000  0.5934120000000  0.4672620000000 1.0
C      1  0.5419720000000  0.4677280000000  0.5855190000000 1.0
C      1  0.5595350000000  0.5777120000000  0.5402060000000 1.0
C      1  0.5739100000000  0.4525580000000  0.4719060000000 1.0
C      1  0.5608630000000  0.4889530000000  0.5244050000000 1.0
C      1  0.6023730000000  0.5134600000000  0.4476420000000 1.0
C      1  0.4149450000000  0.4849470000000  0.4626960000000 1.0
C      1  0.5136340000000  0.5712710000000  0.5133700000000 1.0
C      1  0.4307650000000  0.4952810000000  0.5083200000000 1.0
C      1  0.5100840000000  0.5637500000000  0.4829870000000 1.0
C      1  0.5860600000000  0.4141140000000  0.5259310000000 1.0
C      1  0.4659750000000  0.5395250000000  0.4253030000000 1.0
C      1  0.4884750000000  0.4521340000000  0.4498440000000 1.0
C      1  0.5569060000000  0.5201450000000  0.4918770000000 1.0
C      1  0.5394690000000  0.5985290000000  0.5366690000000 1.0
C      1  0.5551210000000  0.4905030000000  0.4955630000000 1.0
C      1  0.4420700000000  0.5570230000000  0.5651130000000 1.0
C      1  0.4608640000000  0.4942170000000  0.4130480000000 1.0
C      1  0.4520440000000  0.4548860000000  0.5592990000000 1.0
C      1  0.5390630000000  0.4571340000000  0.4316650000000 1.0
C      1  0.4993750000000  0.4363690000000  0.5576320000000 1.0
C      1  0.5875910000000  0.5246290000000  0.4921860000000 1.0
C      1  0.5432300000000  0.5253450000000  0.4646180000000 1.0
C      1  0.5488830000000  0.5644170000000  0.4456550000000 1.0
C      1  0.4699430000000  0.5866260000000  0.5026760000000 1.0
C      1  0.4893460000000  0.4672260000000  0.5976290000000 1.0
C      1  0.4754880000000  0.5674740000000  0.4225330000000 1.0
C      1  0.4642730000000  0.5764650000000  0.5649520000000 1.0
C      1  0.4850570000000  0.5764700000000  0.5857150000000 1.0
C      1  0.4871110000000  0.6133700000000  0.5086660000000 1.0
C      1  0.5695710000000  0.4478610000000  0.5523950000000 1.0
C      1  0.5792440000000  0.4805350000000  0.4800840000000 1.0
C      1  0.3861950000000  0.4995760000000  0.4285170000000 1.0
C      1  0.5267530000000  0.4002700000000  0.4930880000000 1.0
C      1  0.4616670000000  0.4033970000000  0.4907340000000 1.0
C      1  0.4774970000000  0.5746590000000  0.4744620000000 1.0
C      1  0.5358210000000  0.5655110000000  0.5848100000000 1.0
C      1  0.5131870000000  0.5104890000000  0.4998210000000 1.0
C      1  0.5028990000000  0.5180950000000  0.4026600000000 1.0
C      1  0.4192370000000  0.4655210000000  0.4194130000000 1.0
C      1  0.5711950000000  0.5459300000000  0.4480830000000 1.0
C      1  0.5068370000000  0.4009380000000  0.4680830000000 1.0
C      1  0.4846120000000  0.5723710000000  0.5257890000000 1.0
C      1  0.4288570000000  0.5470260000000  0.5405440000000 1.0
C      1  0.4067490000000  0.4376270000000  0.5298560000000 1.0
C      1  0.5405090000000  0.6057090000000  0.5085730000000 1.0
C      1  0.5203450000000  0.4007570000000  0.5232370000000 1.0
C      1  0.4738830000000  0.5197350000000  0.4063200000000 1.0
C      1  0.4768580000000  0.3953290000000  0.4668890000000 1.0
C      1  0.4777880000000  0.4569110000000  0.5440810000000 1.0
C      1  0.5854650000000  0.5109570000000  0.4018300000000 1.0
C      1  0.4449770000000  0.5002310000000  0.4600980000000 1.0
C      1  0.5528340000000  0.5574710000000  0.5603260000000 1.0
C      1  0.4417020000000  0.4279750000000  0.5630390000000 1.0
C      1  0.5940650000000  0.4382920000000  0.4871030000000 1.0
C      1  0.3999830000000  0.4761690000000  0.4387610000000 1.0
C      1  0.4563390000000  0.4868140000000  0.5957540000000 1.0
C      1  0.4147250000000  0.4236950000000  0.5541700000000 1.0
C      1  0.4860270000000  0.5039730000000  0.5116520000000 1.0
C      1  0.4207390000000  0.5181830000000  0.5782690000000 1.0
C      1  0.5296710000000  0.4726470000000  0.5581000000000 1.0
C      1  0.4388230000000  0.4455770000000  0.4293320000000 1.0
C      1  0.5216930000000  0.4456630000000  0.4100920000000 1.0
C      1  0.5115500000000  0.4914190000000  0.3935860000000 1.0
C      1  0.5188560000000  0.4832790000000  0.4619200000000 1.0
C      1  0.5524090000000  0.4129770000000  0.4812190000000 1.0
C      1  0.4367660000000  0.4996340000000  0.5396260000000 1.0
C      1  0.4562340000000  0.5357260000000  0.4964550000000 1.0
C      1  0.4807820000000  0.4195170000000  0.5080640000000 1.0
C      1  0.5135660000000  0.4594300000000  0.5052690000000 1.0
C      1  0.5278680000000  0.5492710000000  0.5314020000000 1.0
C      1  0.6030930000000  0.5198190000000  0.4202290000000 1.0
C      1  0.5732940000000  0.4747680000000  0.4310490000000 1.0
C      1  0.5697270000000  0.5151240000000  0.5792910000000 1.0
C      1  0.4326350000000  0.5534750000000  0.5101940000000 1.0
C      1  0.4386320000000  0.4235990000000  0.4521040000000 1.0
C      1  0.5020570000000  0.5748910000000  0.4322330000000 1.0
C      1  0.4867230000000  0.4902840000000  0.5397680000000 1.0
C      1  0.5834110000000  0.4918010000000  0.4533290000000 1.0
C      1  0.4054190000000  0.5770190000000  0.4601850000000 1.0
C      1  0.5346740000000  0.5241150000000  0.5169470000000 1.0
C      1  0.5743050000000  0.5373100000000  0.5620250000000 1.0
C      1  0.4284160000000  0.4926430000000  0.4085980000000 1.0
C      1  0.5875230000000  0.4983820000000  0.5342850000000 1.0
C      1  0.4954890000000  0.5250740000000  0.4541750000000 1.0
C      1  0.4526440000000  0.5057740000000  0.4905090000000 1.0
C      1  0.4290960000000  0.4889120000000  0.5842090000000 1.0
C      1  0.5207110000000  0.6026460000000  0.4651820000000 1.0
C      1  0.4765460000000  0.5397320000000  0.5440320000000 1.0
C      1  0.5131560000000  0.5957970000000  0.5495450000000 1.0
C      1  0.5040410000000  0.4442470000000  0.5869530000000 1.0
C      1  0.4181170000000  0.5209970000000  0.5485840000000 1.0
C      1  0.4121130000000  0.5394120000000  0.4907420000000 1.0
C      1  0.4622590000000  0.4390520000000  0.4118820000000 1.0
C      1  0.5424180000000  0.5163760000000  0.5919880000000 1.0
C      1  0.4256060000000  0.6010250000000  0.4940090000000 1.0
C      1  0.5346400000000  0.4899280000000  0.6043850000000 1.0
C      1  0.5249990000000  0.5570940000000  0.4292260000000 1.0
C      1  0.4557500000000  0.5860530000000  0.4289460000000 1.0
C      1  0.5152800000000  0.5184960000000  0.5704220000000 1.0
C      1  0.5626220000000  0.4378820000000  0.4382460000000 1.0
C      1  0.4655220000000  0.4435390000000  0.5188040000000 1.0
C      1  0.5940460000000  0.5361190000000  0.4644330000000 1.0
C      1  0.4538840000000  0.5861950000000  0.4566330000000 1.0
C      1  0.4752990000000  0.4573180000000  0.3930990000000 1.0
C      1  0.4086410000000  0.5151200000000  0.4200060000000 1.0
C      1  0.4299700000000  0.4749400000000  0.5571220000000 1.0
C      1  0.4665430000000  0.5099500000000  0.5528270000000 1.0
C      1  0.5450520000000  0.4430490000000  0.4803890000000 1.0
C      1  0.4674370000000  0.4843030000000  0.4437670000000 1.0
C      1  0.5054120000000  0.6007670000000  0.4419830000000 1.0
C      1  0.5158470000000  0.5283330000000  0.4289900000000 1.0
C      1  0.5214030000000  0.4541930000000  0.4567320000000 1.0
C      1  0.4408590000000  0.5829190000000  0.5080090000000 1.0
C      1  0.4601410000000  0.4073210000000  0.5644320000000 1.0
C      1  0.4658300000000  0.5989920000000  0.5473750000000 1.0
C      1  0.5396370000000  0.4992300000000  0.4184410000000 1.0
C      1  0.4052610000000  0.4608400000000  0.5481090000000 1.0
C      1  0.5669420000000  0.5671380000000  0.5140960000000 1.0
C      1  0.4578400000000  0.4788260000000  0.3871430000000 1.0
C      1  0.4638730000000  0.4086150000000  0.4444620000000 1.0
C      1  0.5145180000000  0.5325330000000  0.4759020000000 1.0
C      1  0.5516940000000  0.4119820000000  0.4499360000000 1.0
C      1  0.5402630000000  0.4988670000000  0.4486020000000 1.0
C      1  0.4899510000000  0.6132760000000  0.5393980000000 1.0
C      1  0.4715210000000  0.4520550000000  0.4728330000000 1.0
C      1  0.5139190000000  0.6057620000000  0.4949700000000 1.0
C      1  0.6022360000000  0.4564050000000  0.5094680000000 1.0
C      1  0.5664200000000  0.4912220000000  0.4069220000000 1.0
C      1  0.4032280000000  0.5490390000000  0.4625610000000 1.0
C      1  0.4665240000000  0.5455810000000  0.4695110000000 1.0
C      1  0.5943210000000  0.4416900000000  0.5344870000000 1.0
C      1  0.3944390000000  0.4962190000000  0.4785110000000 1.0
C      1  0.5019210000000  0.5385410000000  0.6109380000000 1.0
C      1  0.4840340000000  0.5596720000000  0.6076570000000 1.0
C      1  0.5869110000000  0.5453110000000  0.5135200000000 1.0
C      1  0.5069650000000  0.5446700000000  0.5544570000000 1.0
C      1  0.4286220000000  0.4383320000000  0.5079830000000 1.0
C      1  0.4358000000000  0.4174430000000  0.4836090000000 1.0
C      1  0.4185200000000  0.5369000000000  0.4391090000000 1.0
C      1  0.4685340000000  0.5094550000000  0.5832370000000 1.0
C      1  0.5810360000000  0.4134440000000  0.4963630000000 1.0
C      1  0.4370810000000  0.5400970000000  0.5874660000000 1.0
C      1  0.4337610000000  0.4666040000000  0.4982690000000 1.0
C      1  0.6011320000000  0.4903680000000  0.5055910000000 1.0
C      1  0.5314520000000  0.5432070000000  0.6044920000000 1.0
C      1  0.4819120000000  0.4285450000000  0.4309370000000 1.0
C      1  0.5230570000000  0.4067470000000  0.4431700000000 1.0
C      1  0.5720340000000  0.4648030000000  0.5779900000000 1.0
C      1  0.5308740000000  0.4428020000000  0.5957240000000 1.0
C      1  0.5049480000000  0.4897420000000  0.6080540000000 1.0
C      1  0.5090410000000  0.4204640000000  0.4204750000000 1.0
C      1  0.5833490000000  0.4907230000000  0.5695750000000 1.0
C      1  0.5876330000000  0.5286140000000  0.5375300000000 1.0
C      1  0.5100550000000  0.5727380000000  0.5701930000000 1.0
C      1  0.4917920000000  0.4003830000000  0.5288810000000 1.0
C      1  0.5273690000000  0.4254480000000  0.5392090000000 1.0
C      1  0.4866200000000  0.4091580000000  0.5563670000000 1.0
C      1  0.4630330000000  0.4633240000000  0.4967450000000 1.0
C      1  0.5591640000000  0.5870960000000  0.4936760000000 1.0
C      1  0.5356750000000  0.4469400000000  0.5193280000000 1.0
C      1  0.5047880000000  0.4324900000000  0.4915350000000 1.0
C      1  0.4777480000000  0.5318920000000  0.5154530000000 1.0
C      1  0.5133640000000  0.4955650000000  0.5518300000000 1.0
C      1  0.5017910000000  0.4657390000000  0.4020530000000 1.0
C      1  0.4465160000000  0.5308780000000  0.4474930000000 1.0
C      1  0.4958720000000  0.5143630000000  0.5940160000000 1.0
C      1  0.5495570000000  0.4654790000000  0.5375160000000 1.0
END
