TITL C-950526-5686-731 1.29313890759621e-06 125000 -280.657690296847 0 0 47 (C1) n - 1
REM
REM in /home/bkarasulu/work/CARBON/AIRSS/Generating-Clusters/EDIP-Nigel-Params/with-SteepDescent/Only-C1/SD-CG/HFTN-CG
REM
REM
REM
REM
REM
REM ./C.cell (11c1c37f851c82e70ff6c80c92926a4b)
REM
REM compiler GCC version 9.2.1 20190827 (Red Hat 9.2.1-1)
REM options -cpp -mtune=generic -march=x86-64 -g -O0 -fpre-include=/usr/include/finclude/math-vector-fortran.h
REM seed 1025204389 1616471474 -1331191794 -57777185 1086576074 1550592274 -1058498922 -904867968 1727645115 1453879805 2074882720 1248383586 -1037489276 2096628323 2016799292 -33913842 534483387 409900269 2059224781 -758250446 -564292174 415158166 1874150039 -29804710 -1862363634 1236381677 -1979550508 1561698867 1872719174 1728143584 1347142116 -1643130886 -703755776
REM
CELL 1.54180   50.00000   50.00000   50.00000   90.00000   90.00000   90.00000
LATT -1
SFAC C  
C      1  0.5096060000000  0.4628710000000  0.4845990000000 1.0
C      1  0.5115230000000  0.4727210000000  0.4356620000000 1.0
C      1  0.5008120000000  0.5141040000000  0.4468500000000 1.0
C      1  0.4512500000000  0.5093070000000  0.4540140000000 1.0
C      1  0.4840800000000  0.4687510000000  0.5594280000000 1.0
C      1  0.4891890000000  0.5401860000000  0.5497060000000 1.0
C      1  0.5175840000000  0.4912150000000  0.4955190000000 1.0
C      1  0.4721950000000  0.4926990000000  0.5663440000000 1.0
C      1  0.4813040000000  0.4745660000000  0.4369860000000 1.0
C      1  0.5158440000000  0.4434160000000  0.5063820000000 1.0
C      1  0.5093490000000  0.5547200000000  0.5094080000000 1.0
C      1  0.4907630000000  0.5377330000000  0.4927670000000 1.0
C      1  0.5132010000000  0.5477870000000  0.5372670000000 1.0
C      1  0.4801520000000  0.4632730000000  0.4822500000000 1.0
C      1  0.4450310000000  0.4955380000000  0.5018070000000 1.0
C      1  0.5414810000000  0.4511410000000  0.5200780000000 1.0
C      1  0.5241380000000  0.5650160000000  0.4670050000000 1.0
C      1  0.4372660000000  0.5148870000000  0.4773860000000 1.0
C      1  0.4464710000000  0.5400820000000  0.4892020000000 1.0
C      1  0.5579130000000  0.4862470000000  0.4811650000000 1.0
C      1  0.4741740000000  0.5033550000000  0.4387600000000 1.0
C      1  0.4980930000000  0.5682780000000  0.4597000000000 1.0
C      1  0.4660180000000  0.4423400000000  0.5290630000000 1.0
C      1  0.4385690000000  0.4875480000000  0.5307030000000 1.0
C      1  0.4772920000000  0.5552910000000  0.4731180000000 1.0
C      1  0.5511090000000  0.4665570000000  0.4621020000000 1.0
C      1  0.4854970000000  0.4812350000000  0.5311430000000 1.0
C      1  0.5399860000000  0.5440200000000  0.5456200000000 1.0
C      1  0.5336800000000  0.5593580000000  0.4931310000000 1.0
C      1  0.4537490000000  0.5063140000000  0.5492220000000 1.0
C      1  0.5558460000000  0.4978800000000  0.5313760000000 1.0
C      1  0.5212490000000  0.4995910000000  0.4329630000000 1.0
C      1  0.5566560000000  0.4766180000000  0.5094770000000 1.0
C      1  0.5117660000000  0.4939060000000  0.5262600000000 1.0
C      1  0.5504010000000  0.5266890000000  0.5253290000000 1.0
C      1  0.5334130000000  0.4855640000000  0.5466240000000 1.0
C      1  0.4653440000000  0.5312490000000  0.5375660000000 1.0
C      1  0.4664650000000  0.5264050000000  0.5081310000000 1.0
C      1  0.5364950000000  0.4567940000000  0.5478200000000 1.0
C      1  0.5513180000000  0.5352040000000  0.4970700000000 1.0
C      1  0.5244250000000  0.4583480000000  0.4585840000000 1.0
C      1  0.5444240000000  0.5133000000000  0.4782750000000 1.0
C      1  0.4929280000000  0.4396360000000  0.5234130000000 1.0
C      1  0.4456370000000  0.4600340000000  0.5347840000000 1.0
C      1  0.4686550000000  0.4596270000000  0.4571090000000 1.0
C      1  0.5058350000000  0.5154030000000  0.4771610000000 1.0
C      1  0.4718250000000  0.4831970000000  0.5016720000000 1.0
END
