TITL C-950536-5891-332 5.85223883438705e-07 125000 -871.103219176192 0 0 140 (C1) n - 1
REM
REM in /home/bkarasulu/work/CARBON/AIRSS/Generating-Clusters/EDIP-Nigel-Params/with-SteepDescent/Only-C1/SD-CG/HFTN-CG
REM
REM
REM
REM
REM
REM ./C.cell (11c1c37f851c82e70ff6c80c92926a4b)
REM
REM compiler GCC version 9.2.1 20190827 (Red Hat 9.2.1-1)
REM options -cpp -mtune=generic -march=x86-64 -g -O0 -fpre-include=/usr/include/finclude/math-vector-fortran.h
REM seed 1455597329 422145373 -191548769 683933335 -1802376645 -2058130277 -1846275016 -91999491 2093952029 1782869039 613442712 957895996 1842527793 131255830 -1740617 720113374 -199619329 1969563642 -963232773 475545309 1594100462 -789043414 -28008206 -912043571 -844665742 -1053186411 429804720 -330410062 1201622534 -1324830256 1534095128 -332909921 1375292245
REM
CELL 1.54180   50.00000   50.00000   50.00000   90.00000   90.00000   90.00000
LATT -1
SFAC C  
C      1  0.5142220000000  0.4665770000000  0.5500030000000 1.0
C      1  0.4442990000000  0.4581880000000  0.4303100000000 1.0
C      1  0.5228090000000  0.4537430000000  0.5759530000000 1.0
C      1  0.5761090000000  0.4902720000000  0.5410630000000 1.0
C      1  0.4604600000000  0.5269700000000  0.4645530000000 1.0
C      1  0.4906380000000  0.6091340000000  0.5114560000000 1.0
C      1  0.4478370000000  0.5040730000000  0.5854880000000 1.0
C      1  0.4539280000000  0.5592680000000  0.5507840000000 1.0
C      1  0.5660980000000  0.4352700000000  0.5574120000000 1.0
C      1  0.5582130000000  0.5002490000000  0.4772150000000 1.0
C      1  0.4170580000000  0.4817490000000  0.4558210000000 1.0
C      1  0.5271440000000  0.4259450000000  0.5397540000000 1.0
C      1  0.5274410000000  0.3952740000000  0.4736280000000 1.0
C      1  0.5118960000000  0.5691600000000  0.4363510000000 1.0
C      1  0.5146710000000  0.4968040000000  0.5910590000000 1.0
C      1  0.5083060000000  0.5414860000000  0.4018460000000 1.0
C      1  0.5425960000000  0.4053750000000  0.4961330000000 1.0
C      1  0.5163660000000  0.4273090000000  0.4457430000000 1.0
C      1  0.5016180000000  0.5701750000000  0.5330140000000 1.0
C      1  0.5386880000000  0.4747280000000  0.4635210000000 1.0
C      1  0.4295720000000  0.5340730000000  0.4629800000000 1.0
C      1  0.4811190000000  0.5088130000000  0.4153150000000 1.0
C      1  0.5509330000000  0.5510580000000  0.4474410000000 1.0
C      1  0.4393540000000  0.4884340000000  0.4339000000000 1.0
C      1  0.4866590000000  0.5957530000000  0.5364920000000 1.0
C      1  0.4471850000000  0.4605690000000  0.5028610000000 1.0
C      1  0.5325100000000  0.5162140000000  0.5455650000000 1.0
C      1  0.4862380000000  0.6019780000000  0.4740250000000 1.0
C      1  0.4867130000000  0.4515760000000  0.4792620000000 1.0
C      1  0.4612710000000  0.5427090000000  0.5256460000000 1.0
C      1  0.5771160000000  0.5393830000000  0.5299040000000 1.0
C      1  0.5339560000000  0.4633260000000  0.5300060000000 1.0
C      1  0.4104750000000  0.5188450000000  0.5311980000000 1.0
C      1  0.5899820000000  0.5137230000000  0.5272130000000 1.0
C      1  0.5270170000000  0.4996590000000  0.4025170000000 1.0
C      1  0.4402370000000  0.5750090000000  0.4958740000000 1.0
C      1  0.4970260000000  0.4009160000000  0.5098010000000 1.0
C      1  0.5891470000000  0.4766710000000  0.4980540000000 1.0
C      1  0.5737880000000  0.4380470000000  0.4711700000000 1.0
C      1  0.5922000000000  0.4782120000000  0.4495140000000 1.0
C      1  0.4718920000000  0.5221900000000  0.5837360000000 1.0
C      1  0.4991440000000  0.3952540000000  0.4815150000000 1.0
C      1  0.5386310000000  0.4391220000000  0.4329010000000 1.0
C      1  0.4570130000000  0.4751280000000  0.5751520000000 1.0
C      1  0.5679090000000  0.5475710000000  0.5565240000000 1.0
C      1  0.4857950000000  0.4822560000000  0.4036960000000 1.0
C      1  0.5605390000000  0.5803820000000  0.5084370000000 1.0
C      1  0.4850120000000  0.4810210000000  0.4653980000000 1.0
C      1  0.4416910000000  0.5461990000000  0.5037500000000 1.0
C      1  0.5452830000000  0.5285230000000  0.5685460000000 1.0
C      1  0.5535850000000  0.5485450000000  0.4185120000000 1.0
C      1  0.4957190000000  0.4665080000000  0.4255910000000 1.0
C      1  0.4370470000000  0.5923530000000  0.5206720000000 1.0
C      1  0.5332810000000  0.4519720000000  0.4843450000000 1.0
C      1  0.5477290000000  0.5707560000000  0.5557930000000 1.0
C      1  0.5627600000000  0.5125610000000  0.4297060000000 1.0
C      1  0.4793190000000  0.5531470000000  0.4725470000000 1.0
C      1  0.5107860000000  0.4252610000000  0.5749870000000 1.0
C      1  0.5640740000000  0.4834460000000  0.5739340000000 1.0
C      1  0.4634560000000  0.4104070000000  0.5430760000000 1.0
C      1  0.5273790000000  0.5608010000000  0.4113940000000 1.0
C      1  0.4582000000000  0.5883330000000  0.5424270000000 1.0
C      1  0.4713840000000  0.5363410000000  0.4031600000000 1.0
C      1  0.4761410000000  0.4493740000000  0.5109520000000 1.0
C      1  0.4673950000000  0.4352690000000  0.4639950000000 1.0
C      1  0.5957370000000  0.5043020000000  0.4995610000000 1.0
C      1  0.4239720000000  0.4523280000000  0.4539740000000 1.0
C      1  0.5370950000000  0.5729700000000  0.5277240000000 1.0
C      1  0.5297820000000  0.4680650000000  0.4338250000000 1.0
C      1  0.4725590000000  0.4164300000000  0.5164910000000 1.0
C      1  0.5018290000000  0.5349190000000  0.5051570000000 1.0
C      1  0.5119360000000  0.4367700000000  0.4724850000000 1.0
C      1  0.5156500000000  0.4934090000000  0.4975010000000 1.0
C      1  0.4719890000000  0.5806130000000  0.4599060000000 1.0
C      1  0.4735310000000  0.5504690000000  0.5727560000000 1.0
C      1  0.4231290000000  0.4266430000000  0.5197180000000 1.0
C      1  0.4132730000000  0.5372650000000  0.5092980000000 1.0
C      1  0.5453480000000  0.4153600000000  0.5601410000000 1.0
C      1  0.4187680000000  0.5458780000000  0.4392120000000 1.0
C      1  0.4373860000000  0.5663490000000  0.4340050000000 1.0
C      1  0.4746500000000  0.4866960000000  0.5525890000000 1.0
C      1  0.4185620000000  0.4932530000000  0.4840990000000 1.0
C      1  0.5178280000000  0.5199810000000  0.4512150000000 1.0
C      1  0.4422920000000  0.5829560000000  0.4583520000000 1.0
C      1  0.5470750000000  0.4934800000000  0.5307960000000 1.0
C      1  0.4701860000000  0.5119960000000  0.5309720000000 1.0
C      1  0.5539040000000  0.4558980000000  0.5762600000000 1.0
C      1  0.4898770000000  0.5083780000000  0.5073530000000 1.0
C      1  0.4698230000000  0.5019140000000  0.4844660000000 1.0
C      1  0.4835940000000  0.5772660000000  0.4318670000000 1.0
C      1  0.5274170000000  0.5550820000000  0.5733830000000 1.0
C      1  0.4243160000000  0.5159910000000  0.5771030000000 1.0
C      1  0.4133390000000  0.5308190000000  0.5563590000000 1.0
C      1  0.5563710000000  0.4326330000000  0.4951910000000 1.0
C      1  0.5250300000000  0.5668460000000  0.4850010000000 1.0
C      1  0.5479220000000  0.5220140000000  0.4548040000000 1.0
C      1  0.5883850000000  0.5056370000000  0.4462760000000 1.0
C      1  0.5052040000000  0.5908350000000  0.4928890000000 1.0
C      1  0.4460630000000  0.4890450000000  0.4951170000000 1.0
C      1  0.4238420000000  0.4485290000000  0.5374340000000 1.0
C      1  0.4815870000000  0.4323170000000  0.5830320000000 1.0
C      1  0.4721640000000  0.4498180000000  0.4366990000000 1.0
C      1  0.4844240000000  0.5561670000000  0.5108060000000 1.0
C      1  0.5084240000000  0.4687640000000  0.5974520000000 1.0
C      1  0.5195650000000  0.4654640000000  0.5058650000000 1.0
C      1  0.4303420000000  0.4192550000000  0.4934160000000 1.0
C      1  0.5038130000000  0.5230170000000  0.5473360000000 1.0
C      1  0.4880300000000  0.4651030000000  0.5372630000000 1.0
C      1  0.5915700000000  0.5204100000000  0.4744390000000 1.0
C      1  0.5845290000000  0.4646360000000  0.4725210000000 1.0
C      1  0.4790320000000  0.4603130000000  0.5937870000000 1.0
C      1  0.5623860000000  0.4328700000000  0.4461990000000 1.0
C      1  0.5237950000000  0.4059450000000  0.5188620000000 1.0
C      1  0.4420910000000  0.4504050000000  0.5609240000000 1.0
C      1  0.4720530000000  0.4044580000000  0.4698730000000 1.0
C      1  0.5847630000000  0.5490160000000  0.4814650000000 1.0
C      1  0.5306150000000  0.5400840000000  0.5081230000000 1.0
C      1  0.4648420000000  0.5034700000000  0.4406560000000 1.0
C      1  0.5088360000000  0.5508840000000  0.4612940000000 1.0
C      1  0.4588030000000  0.4267190000000  0.5651590000000 1.0
C      1  0.4235810000000  0.5580300000000  0.5533000000000 1.0
C      1  0.5418020000000  0.5086400000000  0.5028540000000 1.0
C      1  0.5103890000000  0.5169440000000  0.4187950000000 1.0
C      1  0.5450470000000  0.5037460000000  0.5863630000000 1.0
C      1  0.4149790000000  0.5715360000000  0.5273640000000 1.0
C      1  0.5702890000000  0.5661340000000  0.4627210000000 1.0
C      1  0.5845090000000  0.4665530000000  0.5247090000000 1.0
C      1  0.4637170000000  0.5571980000000  0.4227610000000 1.0
C      1  0.5519450000000  0.5818090000000  0.4798560000000 1.0
C      1  0.4549320000000  0.4036940000000  0.4950700000000 1.0
C      1  0.4108140000000  0.5224180000000  0.4827550000000 1.0
C      1  0.4010970000000  0.4784340000000  0.5023200000000 1.0
C      1  0.5130750000000  0.4927010000000  0.4671850000000 1.0
C      1  0.5011140000000  0.5515450000000  0.5581050000000 1.0
C      1  0.4931350000000  0.5061780000000  0.5701080000000 1.0
C      1  0.5809710000000  0.5590400000000  0.5089570000000 1.0
C      1  0.5467420000000  0.4886910000000  0.4179560000000 1.0
C      1  0.5706080000000  0.4416590000000  0.5277030000000 1.0
C      1  0.4405700000000  0.4426510000000  0.4775830000000 1.0
C      1  0.4173000000000  0.4728280000000  0.5244920000000 1.0
END
