TITL C-951345-2650-687 -5.73768560290065e-07 125000 -258.446725225411 0 0 43 (C1) n - 1
REM
REM in /home/bkarasulu/work/CARBON/AIRSS/Generating-Clusters/EDIP-Nigel-Params/with-SteepDescent/Only-C1/SD-CG/HFTN-CG
REM
REM
REM
REM
REM
REM ./C.cell (11c1c37f851c82e70ff6c80c92926a4b)
REM
REM compiler GCC version 9.2.1 20190827 (Red Hat 9.2.1-1)
REM options -cpp -mtune=generic -march=x86-64 -g -O0 -fpre-include=/usr/include/finclude/math-vector-fortran.h
REM seed 1405414143 528867241 -378621286 1535399 -1662947138 926130463 -823572632 1221800435 -2051183937 1754119338 -1248636570 1158530906 -600648895 -1858593498 1459051045 -889979598 422887862 325411148 1307375561 899377517 965882427 1091522930 -456505460 1770556156 -378702166 -1090157806 1694134008 -816692697 632234478 93497065 -1727118193 1622433966 1005198467
REM
CELL 1.54180   50.00000   50.00000   50.00000   90.00000   90.00000   90.00000
LATT -1
SFAC C  
C      1  0.4932260000000  0.4852330000000  0.4905530000000 1.0
C      1  0.4710690000000  0.5151250000000  0.4799700000000 1.0
C      1  0.4668250000000  0.5381400000000  0.5004650000000 1.0
C      1  0.4856750000000  0.5600030000000  0.5054510000000 1.0
C      1  0.5347770000000  0.5523060000000  0.5166800000000 1.0
C      1  0.4811710000000  0.5207000000000  0.4423750000000 1.0
C      1  0.4808240000000  0.4765990000000  0.5266100000000 1.0
C      1  0.5098350000000  0.4449100000000  0.5114680000000 1.0
C      1  0.4528790000000  0.5193060000000  0.4549770000000 1.0
C      1  0.5359390000000  0.4729470000000  0.5520370000000 1.0
C      1  0.5370380000000  0.4981690000000  0.4746230000000 1.0
C      1  0.4693970000000  0.4753100000000  0.4551250000000 1.0
C      1  0.5297360000000  0.4632120000000  0.5248960000000 1.0
C      1  0.5134180000000  0.4822290000000  0.5658940000000 1.0
C      1  0.5714080000000  0.4844290000000  0.5203100000000 1.0
C      1  0.5343820000000  0.5498310000000  0.4866830000000 1.0
C      1  0.4816180000000  0.4467140000000  0.5205570000000 1.0
C      1  0.4641550000000  0.5204900000000  0.5231380000000 1.0
C      1  0.4369120000000  0.4506220000000  0.5055450000000 1.0
C      1  0.5069840000000  0.5386980000000  0.4818230000000 1.0
C      1  0.5039940000000  0.5438690000000  0.5488020000000 1.0
C      1  0.4577150000000  0.4925410000000  0.5148510000000 1.0
C      1  0.5071730000000  0.5620970000000  0.5256740000000 1.0
C      1  0.4436950000000  0.4910080000000  0.4554880000000 1.0
C      1  0.4266490000000  0.4860760000000  0.4775330000000 1.0
C      1  0.5230390000000  0.4980470000000  0.4465650000000 1.0
C      1  0.4905940000000  0.5183500000000  0.5385860000000 1.0
C      1  0.5564450000000  0.4938960000000  0.5428930000000 1.0
C      1  0.5533030000000  0.4658990000000  0.5086810000000 1.0
C      1  0.4704240000000  0.4522940000000  0.4721230000000 1.0
C      1  0.5406040000000  0.4689700000000  0.4820120000000 1.0
C      1  0.5319300000000  0.5368340000000  0.5525400000000 1.0
C      1  0.4338810000000  0.4785600000000  0.5035690000000 1.0
C      1  0.5393930000000  0.5167690000000  0.5322410000000 1.0
C      1  0.5484980000000  0.5338880000000  0.4664700000000 1.0
C      1  0.5138790000000  0.5039640000000  0.5216130000000 1.0
C      1  0.5132690000000  0.5084320000000  0.4914950000000 1.0
C      1  0.5025610000000  0.5401030000000  0.4515350000000 1.0
C      1  0.4625200000000  0.4416370000000  0.4976210000000 1.0
C      1  0.5293700000000  0.5281880000000  0.4439800000000 1.0
C      1  0.4926730000000  0.4939900000000  0.4474720000000 1.0
C      1  0.5118170000000  0.4589200000000  0.4846380000000 1.0
C      1  0.4893060000000  0.4906980000000  0.5544360000000 1.0
END
