TITL C-951342-2639-500 -7.83590403521635e-07 125000 -1029.98891902833 0 0 164 (C1) n - 1
REM
REM in /home/bkarasulu/work/CARBON/AIRSS/Generating-Clusters/EDIP-Nigel-Params/with-SteepDescent/Only-C1/SD-CG/HFTN-CG
REM
REM
REM
REM
REM
REM ./C.cell (11c1c37f851c82e70ff6c80c92926a4b)
REM
REM compiler GCC version 9.2.1 20190827 (Red Hat 9.2.1-1)
REM options -cpp -mtune=generic -march=x86-64 -g -O0 -fpre-include=/usr/include/finclude/math-vector-fortran.h
REM seed 673272531 -1261362200 1185234009 -851574748 -1905207063 70108033 -356870362 -778850575 -1950910483 -1922488989 -1527580749 1877143976 1308584375 494883052 1455224027 932131783 -1900268347 1710011264 -1562142884 -1843618539 563412562 1931394025 -1763624128 -1069882639 -1346870898 749579246 -1879924600 1063193087 1256369745 1445762196 447212895 692203102 765297023
REM
CELL 1.54180   50.00000   50.00000   50.00000   90.00000   90.00000   90.00000
LATT -1
SFAC C  
C      1  0.5811970000000  0.5813370000000  0.5267820000000 1.0
C      1  0.4800040000000  0.4018200000000  0.4608700000000 1.0
C      1  0.5004510000000  0.4694880000000  0.5902000000000 1.0
C      1  0.4431540000000  0.4991250000000  0.4098960000000 1.0
C      1  0.4804500000000  0.5182270000000  0.4557290000000 1.0
C      1  0.3893810000000  0.5133580000000  0.4602870000000 1.0
C      1  0.5659880000000  0.5183020000000  0.4859830000000 1.0
C      1  0.3942520000000  0.5526620000000  0.4855290000000 1.0
C      1  0.5406540000000  0.4236060000000  0.5346020000000 1.0
C      1  0.4748180000000  0.5078440000000  0.6038220000000 1.0
C      1  0.4971340000000  0.4913010000000  0.6071450000000 1.0
C      1  0.3928620000000  0.5638770000000  0.5111350000000 1.0
C      1  0.4742780000000  0.4615470000000  0.5790830000000 1.0
C      1  0.4403100000000  0.5013970000000  0.5678050000000 1.0
C      1  0.5352860000000  0.5410130000000  0.4131090000000 1.0
C      1  0.4918090000000  0.4774830000000  0.4952280000000 1.0
C      1  0.4175090000000  0.5364340000000  0.5426420000000 1.0
C      1  0.4763520000000  0.4322170000000  0.5679400000000 1.0
C      1  0.5106380000000  0.5303120000000  0.4618940000000 1.0
C      1  0.5072500000000  0.5914320000000  0.4719910000000 1.0
C      1  0.4403030000000  0.6323330000000  0.5355260000000 1.0
C      1  0.6114910000000  0.4599990000000  0.5292590000000 1.0
C      1  0.6055730000000  0.5413800000000  0.4918360000000 1.0
C      1  0.4799180000000  0.4458000000000  0.4571910000000 1.0
C      1  0.4674510000000  0.4736890000000  0.4400110000000 1.0
C      1  0.4573200000000  0.5925080000000  0.4852330000000 1.0
C      1  0.5235490000000  0.4059870000000  0.4926190000000 1.0
C      1  0.4888630000000  0.6072380000000  0.4564680000000 1.0
C      1  0.4603900000000  0.5226520000000  0.4170950000000 1.0
C      1  0.5402470000000  0.4487010000000  0.4736470000000 1.0
C      1  0.5203720000000  0.5639120000000  0.5921000000000 1.0
C      1  0.5271040000000  0.4209020000000  0.5707220000000 1.0
C      1  0.4605170000000  0.5357650000000  0.5131780000000 1.0
C      1  0.4311560000000  0.4575130000000  0.4610280000000 1.0
C      1  0.4545760000000  0.4318800000000  0.5487390000000 1.0
C      1  0.4903540000000  0.4514310000000  0.5311830000000 1.0
C      1  0.5547190000000  0.5576690000000  0.4278090000000 1.0
C      1  0.4970330000000  0.5624890000000  0.4350960000000 1.0
C      1  0.5167020000000  0.5682920000000  0.4556770000000 1.0
C      1  0.4267750000000  0.4074690000000  0.5094880000000 1.0
C      1  0.4193470000000  0.5565170000000  0.4712890000000 1.0
C      1  0.5830100000000  0.5594970000000  0.4830990000000 1.0
C      1  0.5970280000000  0.4468200000000  0.4654150000000 1.0
C      1  0.5572720000000  0.4692280000000  0.4863330000000 1.0
C      1  0.5441240000000  0.4370550000000  0.4463850000000 1.0
C      1  0.3909650000000  0.4706210000000  0.5065850000000 1.0
C      1  0.4942280000000  0.4225970000000  0.4436660000000 1.0
C      1  0.4070290000000  0.4646520000000  0.5516120000000 1.0
C      1  0.4023270000000  0.4466390000000  0.4978260000000 1.0
C      1  0.5612930000000  0.5181620000000  0.5163280000000 1.0
C      1  0.5334940000000  0.6025200000000  0.4817940000000 1.0
C      1  0.5655130000000  0.4524280000000  0.4294310000000 1.0
C      1  0.4521310000000  0.4127980000000  0.4661230000000 1.0
C      1  0.5232850000000  0.5008230000000  0.4959900000000 1.0
C      1  0.5016240000000  0.4195590000000  0.5569880000000 1.0
C      1  0.5710130000000  0.5239720000000  0.5629120000000 1.0
C      1  0.5498880000000  0.5003530000000  0.4237770000000 1.0
C      1  0.4534230000000  0.4659860000000  0.5994490000000 1.0
C      1  0.4069470000000  0.4261300000000  0.5183070000000 1.0
C      1  0.5525730000000  0.5879680000000  0.5652240000000 1.0
C      1  0.4141040000000  0.4863710000000  0.5139560000000 1.0
C      1  0.4553080000000  0.4379870000000  0.4171050000000 1.0
C      1  0.5629260000000  0.4963250000000  0.5719870000000 1.0
C      1  0.5674370000000  0.5736980000000  0.5033750000000 1.0
C      1  0.4686910000000  0.5566030000000  0.5895490000000 1.0
C      1  0.4387200000000  0.5320370000000  0.5611480000000 1.0
C      1  0.4230100000000  0.4946900000000  0.4309540000000 1.0
C      1  0.5219310000000  0.5233020000000  0.5665900000000 1.0
C      1  0.4596320000000  0.5534630000000  0.5620180000000 1.0
C      1  0.4284010000000  0.5844040000000  0.5365120000000 1.0
C      1  0.5277570000000  0.4466360000000  0.5201150000000 1.0
C      1  0.4514960000000  0.5441740000000  0.4352040000000 1.0
C      1  0.5499350000000  0.4696920000000  0.5161390000000 1.0
C      1  0.4543580000000  0.5060910000000  0.4725980000000 1.0
C      1  0.5391110000000  0.4981590000000  0.5235940000000 1.0
C      1  0.3888660000000  0.5236760000000  0.4863790000000 1.0
C      1  0.5134210000000  0.5277500000000  0.4910610000000 1.0
C      1  0.5864490000000  0.4197490000000  0.4676470000000 1.0
C      1  0.4307040000000  0.4502020000000  0.4893130000000 1.0
C      1  0.4452950000000  0.4239320000000  0.4937010000000 1.0
C      1  0.4652510000000  0.5912620000000  0.4578080000000 1.0
C      1  0.5882530000000  0.4625490000000  0.4887780000000 1.0
C      1  0.5992810000000  0.4886730000000  0.4386590000000 1.0
C      1  0.5222670000000  0.4599990000000  0.4273020000000 1.0
C      1  0.5204100000000  0.4367910000000  0.4918590000000 1.0
C      1  0.5839010000000  0.5232030000000  0.5356820000000 1.0
C      1  0.5536720000000  0.4089460000000  0.4516700000000 1.0
C      1  0.4301450000000  0.4235250000000  0.5599520000000 1.0
C      1  0.5461010000000  0.5405160000000  0.5608510000000 1.0
C      1  0.4108220000000  0.4374790000000  0.5453620000000 1.0
C      1  0.4840570000000  0.4994910000000  0.5387340000000 1.0
C      1  0.4386240000000  0.5288680000000  0.4896230000000 1.0
C      1  0.4628490000000  0.6184320000000  0.5273660000000 1.0
C      1  0.4513860000000  0.5809960000000  0.5534070000000 1.0
C      1  0.5664870000000  0.4467130000000  0.5602270000000 1.0
C      1  0.4015750000000  0.5123650000000  0.5407710000000 1.0
C      1  0.5125040000000  0.4818300000000  0.4456760000000 1.0
C      1  0.4909420000000  0.4475190000000  0.4868380000000 1.0
C      1  0.5532330000000  0.5969720000000  0.4617990000000 1.0
C      1  0.6050540000000  0.4879380000000  0.4929270000000 1.0
C      1  0.5931270000000  0.4447170000000  0.5131450000000 1.0
C      1  0.4974460000000  0.4982470000000  0.3993820000000 1.0
C      1  0.4250580000000  0.6110120000000  0.5265690000000 1.0
C      1  0.5016190000000  0.3995110000000  0.5345210000000 1.0
C      1  0.4955900000000  0.3936610000000  0.4859750000000 1.0
C      1  0.4591080000000  0.4693910000000  0.4104790000000 1.0
C      1  0.4666030000000  0.5083140000000  0.5177650000000 1.0
C      1  0.5995040000000  0.5135940000000  0.4509710000000 1.0
C      1  0.5962720000000  0.5137510000000  0.4805560000000 1.0
C      1  0.4414460000000  0.4841060000000  0.4528240000000 1.0
C      1  0.4994430000000  0.4791020000000  0.5245380000000 1.0
C      1  0.6074530000000  0.4882410000000  0.5218320000000 1.0
C      1  0.5439980000000  0.5644110000000  0.5771580000000 1.0
C      1  0.5419870000000  0.5772160000000  0.4452790000000 1.0
C      1  0.5788860000000  0.4732160000000  0.5614650000000 1.0
C      1  0.5482130000000  0.4720260000000  0.4147890000000 1.0
C      1  0.4849060000000  0.4725380000000  0.3960960000000 1.0
C      1  0.5464520000000  0.5181890000000  0.4023620000000 1.0
C      1  0.5229310000000  0.4691170000000  0.5713860000000 1.0
C      1  0.4639900000000  0.4824710000000  0.5559230000000 1.0
C      1  0.4101720000000  0.5625160000000  0.5327430000000 1.0
C      1  0.4712420000000  0.5616820000000  0.4501790000000 1.0
C      1  0.4834550000000  0.5336290000000  0.5939480000000 1.0
C      1  0.5603310000000  0.5973220000000  0.5402410000000 1.0
C      1  0.4886140000000  0.5743640000000  0.5246230000000 1.0
C      1  0.5496790000000  0.3986590000000  0.4790480000000 1.0
C      1  0.4089270000000  0.5187530000000  0.4408570000000 1.0
C      1  0.4493820000000  0.4942100000000  0.5963890000000 1.0
C      1  0.4724350000000  0.4304120000000  0.5081690000000 1.0
C      1  0.4871170000000  0.5242210000000  0.4052650000000 1.0
C      1  0.5468090000000  0.4968180000000  0.4761750000000 1.0
C      1  0.4881460000000  0.4942790000000  0.4369860000000 1.0
C      1  0.4840660000000  0.4281320000000  0.4161560000000 1.0
C      1  0.4824640000000  0.4021290000000  0.5116570000000 1.0
C      1  0.5964150000000  0.5596290000000  0.5377500000000 1.0
C      1  0.5731950000000  0.4109380000000  0.4927080000000 1.0
C      1  0.5413480000000  0.5909490000000  0.5098720000000 1.0
C      1  0.4414000000000  0.4713930000000  0.5085110000000 1.0
C      1  0.4545960000000  0.4599170000000  0.5360290000000 1.0
C      1  0.4763610000000  0.5486030000000  0.4799960000000 1.0
C      1  0.4635280000000  0.4896620000000  0.4963970000000 1.0
C      1  0.5659730000000  0.5450370000000  0.4633670000000 1.0
C      1  0.4754390000000  0.5737790000000  0.4969980000000 1.0
C      1  0.5406430000000  0.4457120000000  0.5728250000000 1.0
C      1  0.5830970000000  0.5350080000000  0.4410430000000 1.0
C      1  0.5905400000000  0.4620620000000  0.4412920000000 1.0
C      1  0.5723540000000  0.4265500000000  0.5276620000000 1.0
C      1  0.5317360000000  0.5038110000000  0.4492860000000 1.0
C      1  0.4128110000000  0.5166090000000  0.5037640000000 1.0
C      1  0.5121500000000  0.5368540000000  0.5920190000000 1.0
C      1  0.5280910000000  0.3997920000000  0.5216720000000 1.0
C      1  0.5066360000000  0.5409730000000  0.4190310000000 1.0
C      1  0.5352740000000  0.4950370000000  0.5617360000000 1.0
C      1  0.5233000000000  0.5482590000000  0.5065240000000 1.0
C      1  0.6121260000000  0.5437200000000  0.5200760000000 1.0
C      1  0.5017570000000  0.4502170000000  0.4057520000000 1.0
C      1  0.5191720000000  0.5722210000000  0.5195380000000 1.0
C      1  0.4993020000000  0.5249040000000  0.5460400000000 1.0
C      1  0.4442400000000  0.4347520000000  0.4465320000000 1.0
C      1  0.4793700000000  0.5473290000000  0.5383300000000 1.0
C      1  0.5787980000000  0.4812300000000  0.5333060000000 1.0
C      1  0.4267320000000  0.5401890000000  0.4488170000000 1.0
C      1  0.4133970000000  0.4911830000000  0.5576550000000 1.0
C      1  0.4742760000000  0.5960030000000  0.5416670000000 1.0
END
