TITL C-951337-3020-690 -5.02720969766818e-06 125000 -1033.30522658318 0 0 165 (C1) n - 1
REM
REM in /home/bkarasulu/work/CARBON/AIRSS/Generating-Clusters/EDIP-Nigel-Params/with-SteepDescent/Only-C1/SD-CG/HFTN-CG
REM
REM
REM
REM
REM
REM ./C.cell (11c1c37f851c82e70ff6c80c92926a4b)
REM
REM compiler GCC version 9.2.1 20190827 (Red Hat 9.2.1-1)
REM options -cpp -mtune=generic -march=x86-64 -g -O0 -fpre-include=/usr/include/finclude/math-vector-fortran.h
REM seed -287284132 -2130168949 651971159 -1027372534 -1273229577 539247179 442851829 -114004111 -1975906288 -1698797898 -636810697 113707354 480074900 705738761 422836980 1369371591 1829338386 977717092 365513936 392823259 952127752 -2039034269 501185518 -587445842 273228768 516956634 1552184942 -2806270 802261979 1259328674 -188764546 1682673445 -1023048534
REM
CELL 1.54180   50.00000   50.00000   50.00000   90.00000   90.00000   90.00000
LATT -1
SFAC C  
C      1  0.5673110000000  0.5506420000000  0.5031210000000 1.0
C      1  0.4716070000000  0.5447030000000  0.5899940000000 1.0
C      1  0.4824350000000  0.5133160000000  0.5461210000000 1.0
C      1  0.5975570000000  0.4716940000000  0.5204250000000 1.0
C      1  0.4676350000000  0.4228050000000  0.4102300000000 1.0
C      1  0.4780910000000  0.4555500000000  0.5085650000000 1.0
C      1  0.5144220000000  0.3837690000000  0.5226370000000 1.0
C      1  0.6068190000000  0.5177390000000  0.5136370000000 1.0
C      1  0.5588170000000  0.4860880000000  0.4148630000000 1.0
C      1  0.5390180000000  0.5389930000000  0.5191370000000 1.0
C      1  0.4800810000000  0.4896040000000  0.4453540000000 1.0
C      1  0.4020210000000  0.5281330000000  0.5358200000000 1.0
C      1  0.4727100000000  0.4870610000000  0.4741370000000 1.0
C      1  0.4181050000000  0.4817030000000  0.4480320000000 1.0
C      1  0.5851360000000  0.4841880000000  0.4698740000000 1.0
C      1  0.5014610000000  0.4507900000000  0.5540820000000 1.0
C      1  0.5436020000000  0.5755940000000  0.4394410000000 1.0
C      1  0.5423790000000  0.4197440000000  0.5650780000000 1.0
C      1  0.5806220000000  0.5108720000000  0.4559630000000 1.0
C      1  0.6077990000000  0.4855920000000  0.5445460000000 1.0
C      1  0.5618270000000  0.4600540000000  0.4293790000000 1.0
C      1  0.4124400000000  0.4457890000000  0.5045410000000 1.0
C      1  0.5629500000000  0.5648690000000  0.5789880000000 1.0
C      1  0.4567470000000  0.4610620000000  0.5291100000000 1.0
C      1  0.4748320000000  0.5647690000000  0.4168950000000 1.0
C      1  0.5267630000000  0.4640390000000  0.5622340000000 1.0
C      1  0.4779440000000  0.5723880000000  0.5826940000000 1.0
C      1  0.5122750000000  0.5209540000000  0.6051980000000 1.0
C      1  0.4852590000000  0.5197710000000  0.5954140000000 1.0
C      1  0.5013230000000  0.5565980000000  0.4242780000000 1.0
C      1  0.3885100000000  0.5143230000000  0.4930480000000 1.0
C      1  0.4969380000000  0.6018060000000  0.5481170000000 1.0
C      1  0.5504710000000  0.5579600000000  0.4166560000000 1.0
C      1  0.5461520000000  0.5665370000000  0.4746600000000 1.0
C      1  0.5118790000000  0.5148840000000  0.4856130000000 1.0
C      1  0.4988140000000  0.4043750000000  0.5405570000000 1.0
C      1  0.6046100000000  0.5277220000000  0.4573900000000 1.0
C      1  0.3855250000000  0.4906010000000  0.5094300000000 1.0
C      1  0.5137700000000  0.4075000000000  0.5681170000000 1.0
C      1  0.5313970000000  0.4915220000000  0.5704530000000 1.0
C      1  0.4673780000000  0.4508230000000  0.4017370000000 1.0
C      1  0.4463620000000  0.4116990000000  0.5010650000000 1.0
C      1  0.5366520000000  0.5757350000000  0.5653750000000 1.0
C      1  0.4249940000000  0.4504650000000  0.5310090000000 1.0
C      1  0.4164360000000  0.5803650000000  0.5350660000000 1.0
C      1  0.4715810000000  0.5887810000000  0.5410230000000 1.0
C      1  0.4920710000000  0.3977360000000  0.4809980000000 1.0
C      1  0.5149330000000  0.4645600000000  0.4143800000000 1.0
C      1  0.5733280000000  0.5099590000000  0.4257330000000 1.0
C      1  0.4197130000000  0.4830330000000  0.4774240000000 1.0
C      1  0.4651430000000  0.3976870000000  0.4865320000000 1.0
C      1  0.4266950000000  0.5078510000000  0.4939060000000 1.0
C      1  0.4409900000000  0.4963660000000  0.5215820000000 1.0
C      1  0.5083370000000  0.4327960000000  0.5310060000000 1.0
C      1  0.5223010000000  0.4937350000000  0.6011760000000 1.0
C      1  0.4550660000000  0.5153180000000  0.4809350000000 1.0
C      1  0.5366350000000  0.5244860000000  0.4499280000000 1.0
C      1  0.4211450000000  0.5399620000000  0.5563040000000 1.0
C      1  0.5582640000000  0.4911150000000  0.5862230000000 1.0
C      1  0.4312240000000  0.4578370000000  0.4375860000000 1.0
C      1  0.4289640000000  0.5041820000000  0.4333810000000 1.0
C      1  0.4823480000000  0.6098070000000  0.4723380000000 1.0
C      1  0.4633570000000  0.5827330000000  0.4351140000000 1.0
C      1  0.4921600000000  0.4091130000000  0.4038970000000 1.0
C      1  0.5561630000000  0.5240880000000  0.4701630000000 1.0
C      1  0.4359490000000  0.5213690000000  0.5720080000000 1.0
C      1  0.5119560000000  0.5548250000000  0.5115060000000 1.0
C      1  0.4378230000000  0.5940130000000  0.5057270000000 1.0
C      1  0.5384720000000  0.4241120000000  0.5345340000000 1.0
C      1  0.5097830000000  0.5312000000000  0.4594180000000 1.0
C      1  0.5687550000000  0.4616450000000  0.5832210000000 1.0
C      1  0.5510970000000  0.5906570000000  0.4938900000000 1.0
C      1  0.4682390000000  0.4561280000000  0.5576310000000 1.0
C      1  0.5739460000000  0.5796270000000  0.5360880000000 1.0
C      1  0.4767240000000  0.4177900000000  0.4388410000000 1.0
C      1  0.5281220000000  0.5395600000000  0.5894900000000 1.0
C      1  0.5917070000000  0.5329450000000  0.4943520000000 1.0
C      1  0.5430600000000  0.4464910000000  0.5781880000000 1.0
C      1  0.4471170000000  0.4975340000000  0.4116660000000 1.0
C      1  0.4940180000000  0.4599250000000  0.3919300000000 1.0
C      1  0.5565040000000  0.4426540000000  0.5182730000000 1.0
C      1  0.5019170000000  0.4872290000000  0.4847000000000 1.0
C      1  0.4663750000000  0.4559390000000  0.4794580000000 1.0
C      1  0.4348620000000  0.4929630000000  0.5684110000000 1.0
C      1  0.4247630000000  0.4250190000000  0.5448370000000 1.0
C      1  0.6041920000000  0.5139610000000  0.5417380000000 1.0
C      1  0.5758600000000  0.5790090000000  0.5062350000000 1.0
C      1  0.5040620000000  0.4991370000000  0.5317520000000 1.0
C      1  0.4999240000000  0.4753060000000  0.6047050000000 1.0
C      1  0.5401540000000  0.4574640000000  0.4750820000000 1.0
C      1  0.4274650000000  0.5691550000000  0.5590300000000 1.0
C      1  0.5284510000000  0.5119770000000  0.5455790000000 1.0
C      1  0.4216740000000  0.4842950000000  0.5425020000000 1.0
C      1  0.4559320000000  0.5306360000000  0.4548040000000 1.0
C      1  0.5835830000000  0.4905340000000  0.5002930000000 1.0
C      1  0.4861700000000  0.4408190000000  0.4580640000000 1.0
C      1  0.5478890000000  0.5904420000000  0.5423080000000 1.0
C      1  0.5036520000000  0.4238670000000  0.4756100000000 1.0
C      1  0.5299850000000  0.4907900000000  0.4089100000000 1.0
C      1  0.4592700000000  0.4785240000000  0.5764170000000 1.0
C      1  0.4679900000000  0.4266460000000  0.5696790000000 1.0
C      1  0.4822790000000  0.5599420000000  0.5332510000000 1.0
C      1  0.4544400000000  0.5838420000000  0.5659590000000 1.0
C      1  0.5813260000000  0.5578650000000  0.5567320000000 1.0
C      1  0.5526350000000  0.4051390000000  0.4479000000000 1.0
C      1  0.5874570000000  0.4577050000000  0.5615000000000 1.0
C      1  0.5083780000000  0.6057870000000  0.5198230000000 1.0
C      1  0.5397050000000  0.4655840000000  0.5049670000000 1.0
C      1  0.4902720000000  0.5102280000000  0.3886290000000 1.0
C      1  0.4781860000000  0.4909630000000  0.5955820000000 1.0
C      1  0.4965450000000  0.5314940000000  0.5024200000000 1.0
C      1  0.5143040000000  0.5600470000000  0.4732400000000 1.0
C      1  0.5801220000000  0.4528380000000  0.5337080000000 1.0
C      1  0.5142760000000  0.5731690000000  0.4450830000000 1.0
C      1  0.5484190000000  0.5279960000000  0.4240230000000 1.0
C      1  0.5186030000000  0.4740040000000  0.4642430000000 1.0
C      1  0.4200990000000  0.5305330000000  0.4388440000000 1.0
C      1  0.3990810000000  0.4687410000000  0.4922690000000 1.0
C      1  0.4955070000000  0.4268080000000  0.5810750000000 1.0
C      1  0.4206640000000  0.5678050000000  0.4698270000000 1.0
C      1  0.4540420000000  0.5187810000000  0.5379660000000 1.0
C      1  0.5577910000000  0.5401040000000  0.5948920000000 1.0
C      1  0.5002570000000  0.4663950000000  0.4427910000000 1.0
C      1  0.5411380000000  0.5157930000000  0.4957960000000 1.0
C      1  0.4577930000000  0.5455880000000  0.5214920000000 1.0
C      1  0.4296020000000  0.5561020000000  0.4453070000000 1.0
C      1  0.4695920000000  0.5187370000000  0.4089310000000 1.0
C      1  0.3970360000000  0.5368670000000  0.5075230000000 1.0
C      1  0.5214290000000  0.5471970000000  0.4039460000000 1.0
C      1  0.5374530000000  0.4442200000000  0.4203420000000 1.0
C      1  0.4890810000000  0.4841320000000  0.3791080000000 1.0
C      1  0.4327570000000  0.5648140000000  0.5150960000000 1.0
C      1  0.4813160000000  0.5198500000000  0.4390290000000 1.0
C      1  0.5332440000000  0.4170420000000  0.4306650000000 1.0
C      1  0.5734970000000  0.5175910000000  0.5822270000000 1.0
C      1  0.4375890000000  0.4392000000000  0.4594260000000 1.0
C      1  0.5480360000000  0.3899310000000  0.4711690000000 1.0
C      1  0.5409630000000  0.3968710000000  0.5217410000000 1.0
C      1  0.5212450000000  0.5401500000000  0.5584150000000 1.0
C      1  0.4684570000000  0.4063250000000  0.5477290000000 1.0
C      1  0.4630290000000  0.6030440000000  0.5165110000000 1.0
C      1  0.5061100000000  0.5833180000000  0.5700960000000 1.0
C      1  0.5091640000000  0.4024720000000  0.4253690000000 1.0
C      1  0.5569970000000  0.3987740000000  0.4968130000000 1.0
C      1  0.5331110000000  0.4273290000000  0.4734190000000 1.0
C      1  0.5662060000000  0.4629490000000  0.4596850000000 1.0
C      1  0.4691190000000  0.5355140000000  0.4967210000000 1.0
C      1  0.4306260000000  0.4313000000000  0.4867280000000 1.0
C      1  0.4596790000000  0.5455340000000  0.4031720000000 1.0
C      1  0.4450470000000  0.4109360000000  0.5306080000000 1.0
C      1  0.5838100000000  0.5283060000000  0.5567570000000 1.0
C      1  0.5662210000000  0.4254620000000  0.4968660000000 1.0
C      1  0.4516750000000  0.4688720000000  0.4187430000000 1.0
C      1  0.3964690000000  0.4985410000000  0.5366030000000 1.0
C      1  0.5175920000000  0.5159010000000  0.3967080000000 1.0
C      1  0.5057540000000  0.3795210000000  0.4966430000000 1.0
C      1  0.5049070000000  0.4730920000000  0.5127860000000 1.0
C      1  0.6093770000000  0.5469380000000  0.4762660000000 1.0
C      1  0.4618140000000  0.5945930000000  0.4605080000000 1.0
C      1  0.4907720000000  0.5404830000000  0.5565340000000 1.0
C      1  0.5542640000000  0.4914530000000  0.5072120000000 1.0
C      1  0.4862340000000  0.6048940000000  0.4998010000000 1.0
C      1  0.4378800000000  0.5903300000000  0.4763210000000 1.0
C      1  0.4180580000000  0.5512190000000  0.4942710000000 1.0
C      1  0.5337240000000  0.5925200000000  0.5176070000000 1.0
END
