TITL C-950525-1983-600 1.76508193401339e-06 125000 -329.527968616612 0 0 55 (C1) n - 1
REM
REM in /home/bkarasulu/work/CARBON/AIRSS/Generating-Clusters/EDIP-Nigel-Params/with-SteepDescent/Only-C1/SD-CG/HFTN-CG
REM
REM
REM
REM
REM
REM ./C.cell (11c1c37f851c82e70ff6c80c92926a4b)
REM
REM compiler GCC version 9.2.1 20190827 (Red Hat 9.2.1-1)
REM options -cpp -mtune=generic -march=x86-64 -g -O0 -fpre-include=/usr/include/finclude/math-vector-fortran.h
REM seed 1128833909 -1792353352 -1935052277 716430969 -29592178 -731115873 35929015 1875621863 889910823 -1005623113 -1733114570 -1539387707 -1854249846 265837073 -2144250242 -110759819 -922969639 534256641 -374072587 -1492158405 -477400463 -293651195 -226712154 286373374 1868754018 661520921 1433536996 1343900931 1717484510 1853312610 -1545635541 -212362233 -1566298735
REM
CELL 1.54180   50.00000   50.00000   50.00000   90.00000   90.00000   90.00000
LATT -1
SFAC C  
C      1  0.5089260000000  0.4363890000000  0.5353530000000 1.0
C      1  0.4438070000000  0.5337130000000  0.4934640000000 1.0
C      1  0.4675200000000  0.4336740000000  0.5124730000000 1.0
C      1  0.4745930000000  0.4829970000000  0.4579240000000 1.0
C      1  0.5329730000000  0.4668620000000  0.4595550000000 1.0
C      1  0.4954950000000  0.4297680000000  0.5113300000000 1.0
C      1  0.5202170000000  0.4813850000000  0.4346360000000 1.0
C      1  0.4983650000000  0.5279530000000  0.5718060000000 1.0
C      1  0.5612930000000  0.4589290000000  0.4586870000000 1.0
C      1  0.5021450000000  0.5676130000000  0.4602400000000 1.0
C      1  0.5212400000000  0.4794460000000  0.5592360000000 1.0
C      1  0.5095850000000  0.5557560000000  0.5051280000000 1.0
C      1  0.5290360000000  0.4527680000000  0.5466870000000 1.0
C      1  0.4398010000000  0.5001970000000  0.5332930000000 1.0
C      1  0.5018490000000  0.4430880000000  0.4592510000000 1.0
C      1  0.4808140000000  0.5674700000000  0.5084140000000 1.0
C      1  0.4705860000000  0.5638360000000  0.5343640000000 1.0
C      1  0.4738920000000  0.5139060000000  0.5725120000000 1.0
C      1  0.5034300000000  0.5086900000000  0.5246810000000 1.0
C      1  0.4533150000000  0.4657750000000  0.4686700000000 1.0
C      1  0.5552160000000  0.5026540000000  0.5327620000000 1.0
C      1  0.4402840000000  0.4778550000000  0.5130440000000 1.0
C      1  0.4614490000000  0.5577350000000  0.4864940000000 1.0
C      1  0.4585750000000  0.4959050000000  0.5557950000000 1.0
C      1  0.4931860000000  0.5264600000000  0.4851350000000 1.0
C      1  0.5209940000000  0.5330120000000  0.5268520000000 1.0
C      1  0.4778890000000  0.4814410000000  0.5013420000000 1.0
C      1  0.5706470000000  0.4700810000000  0.4827290000000 1.0
C      1  0.4808630000000  0.5479880000000  0.4657410000000 1.0
C      1  0.5665510000000  0.4977630000000  0.4821910000000 1.0
C      1  0.5234000000000  0.5301250000000  0.5580570000000 1.0
C      1  0.4956820000000  0.5249570000000  0.4271920000000 1.0
C      1  0.5479720000000  0.5256110000000  0.5162970000000 1.0
C      1  0.5158630000000  0.5118370000000  0.4429720000000 1.0
C      1  0.5020230000000  0.5030160000000  0.4688700000000 1.0
C      1  0.5078110000000  0.4711820000000  0.5010500000000 1.0
C      1  0.5353840000000  0.5340470000000  0.4678510000000 1.0
C      1  0.4538400000000  0.5134660000000  0.4469730000000 1.0
C      1  0.4644000000000  0.4604970000000  0.5198830000000 1.0
C      1  0.4795960000000  0.5130350000000  0.5091790000000 1.0
C      1  0.4727600000000  0.5337040000000  0.4407620000000 1.0
C      1  0.5431060000000  0.4807210000000  0.5155960000000 1.0
C      1  0.5081990000000  0.4442110000000  0.4883420000000 1.0
C      1  0.5557410000000  0.4483430000000  0.5368010000000 1.0
C      1  0.4442600000000  0.5111940000000  0.4742660000000 1.0
C      1  0.5399850000000  0.5037710000000  0.5588310000000 1.0
C      1  0.5244640000000  0.4866310000000  0.4815520000000 1.0
C      1  0.4411060000000  0.5279870000000  0.5230530000000 1.0
C      1  0.5515400000000  0.5205180000000  0.4876950000000 1.0
C      1  0.5224420000000  0.5580860000000  0.4773530000000 1.0
C      1  0.5624680000000  0.4566300000000  0.5090700000000 1.0
C      1  0.4380600000000  0.4843370000000  0.4832000000000 1.0
C      1  0.4937130000000  0.4655810000000  0.4412010000000 1.0
C      1  0.4653200000000  0.5365820000000  0.5354860000000 1.0
C      1  0.4963270000000  0.4928260000000  0.5486810000000 1.0
END
