TITL C-951336-9012-133 -1.47489940104627e-06 125000 -197.454306912061 0 0 34 (C1) n - 1
REM
REM in /home/bkarasulu/work/CARBON/AIRSS/Generating-Clusters/EDIP-Nigel-Params/with-SteepDescent/Only-C1/SD-CG/HFTN-CG
REM
REM
REM
REM
REM
REM ./C.cell (11c1c37f851c82e70ff6c80c92926a4b)
REM
REM compiler GCC version 9.2.1 20190827 (Red Hat 9.2.1-1)
REM options -cpp -mtune=generic -march=x86-64 -g -O0 -fpre-include=/usr/include/finclude/math-vector-fortran.h
REM seed -1316568646 -733832442 1975480005 -718383719 1632496158 -555094380 648909020 1767970238 1331681981 1806850307 15099503 -875781257 -1816721566 532670597 -1901634885 1366253650 -2137019285 -317369280 1888913784 155725741 2008220714 -1560491317 186167424 -790988423 -491393039 876217327 107619804 -2010184765 436349920 1170619404 -1408623414 -734215799 958324826
REM
CELL 1.54180   50.00000   50.00000   50.00000   90.00000   90.00000   90.00000
LATT -1
SFAC C  
C      1  0.4937940000000  0.5260890000000  0.4927650000000 1.0
C      1  0.5374940000000  0.5172540000000  0.4961930000000 1.0
C      1  0.4808120000000  0.5551510000000  0.5307070000000 1.0
C      1  0.4524300000000  0.4723530000000  0.5202320000000 1.0
C      1  0.4620650000000  0.4853700000000  0.4506010000000 1.0
C      1  0.4433730000000  0.5033570000000  0.4900660000000 1.0
C      1  0.4625770000000  0.5007570000000  0.5605020000000 1.0
C      1  0.5064510000000  0.5424720000000  0.5310480000000 1.0
C      1  0.5008670000000  0.4665000000000  0.5345250000000 1.0
C      1  0.4722770000000  0.4647240000000  0.4649460000000 1.0
C      1  0.4901350000000  0.4605220000000  0.4861190000000 1.0
C      1  0.5579430000000  0.4757670000000  0.5141570000000 1.0
C      1  0.4496750000000  0.4984760000000  0.5357460000000 1.0
C      1  0.5377340000000  0.4631900000000  0.4990900000000 1.0
C      1  0.5315930000000  0.4547750000000  0.4386650000000 1.0
C      1  0.5140350000000  0.4874100000000  0.5472000000000 1.0
C      1  0.5273800000000  0.4760710000000  0.4537940000000 1.0
C      1  0.4545070000000  0.5089050000000  0.4640090000000 1.0
C      1  0.4812040000000  0.4649030000000  0.5142400000000 1.0
C      1  0.5041830000000  0.5146900000000  0.5419400000000 1.0
C      1  0.4700000000000  0.5332310000000  0.4640980000000 1.0
C      1  0.4662660000000  0.5523420000000  0.4852640000000 1.0
C      1  0.4558590000000  0.5162630000000  0.5128850000000 1.0
C      1  0.5793980000000  0.5057310000000  0.4803010000000 1.0
C      1  0.5128520000000  0.5019890000000  0.4896000000000 1.0
C      1  0.4605680000000  0.5453850000000  0.5129960000000 1.0
C      1  0.5170080000000  0.4735150000000  0.4817650000000 1.0
C      1  0.4372950000000  0.4759190000000  0.4958260000000 1.0
C      1  0.5205410000000  0.5432110000000  0.5042590000000 1.0
C      1  0.5434750000000  0.4988150000000  0.4515290000000 1.0
C      1  0.5812090000000  0.4860870000000  0.4998270000000 1.0
C      1  0.5548140000000  0.5153390000000  0.4712330000000 1.0
C      1  0.4881050000000  0.5094040000000  0.5653630000000 1.0
C      1  0.5520830000000  0.5040330000000  0.5185090000000 1.0
END
