TITL C-950528-5794-729 4.26948273676038e-06 125000 -1008.85532771045 0 0 162 (C1) n - 1
REM
REM in /home/bkarasulu/work/CARBON/AIRSS/Generating-Clusters/EDIP-Nigel-Params/with-SteepDescent/Only-C1/SD-CG/HFTN-CG
REM
REM
REM
REM
REM
REM ./C.cell (11c1c37f851c82e70ff6c80c92926a4b)
REM
REM compiler GCC version 9.2.1 20190827 (Red Hat 9.2.1-1)
REM options -cpp -mtune=generic -march=x86-64 -g -O0 -fpre-include=/usr/include/finclude/math-vector-fortran.h
REM seed 1328502071 -1194384874 -2113984119 1236703520 1519353309 1465119541 1450352659 -1324144403 -1183071082 141614125 1622381669 -859735896 918348036 -122701048 -1557514443 1363003736 1717349791 2026939133 1499871142 531449622 -1249248538 -222699405 1606506777 1854758695 3362351 298337890 1529962373 1575327756 -410715725 -967399120 1201281010 -647271655 274986132
REM
CELL 1.54180   50.00000   50.00000   50.00000   90.00000   90.00000   90.00000
LATT -1
SFAC C  
C      1  0.4545220000000  0.5797450000000  0.5559400000000 1.0
C      1  0.5469790000000  0.5853310000000  0.5340720000000 1.0
C      1  0.4512380000000  0.4074330000000  0.5116030000000 1.0
C      1  0.5656620000000  0.5349620000000  0.4148190000000 1.0
C      1  0.4090490000000  0.4686090000000  0.5631650000000 1.0
C      1  0.4573760000000  0.5391020000000  0.4095110000000 1.0
C      1  0.5551230000000  0.4376230000000  0.5611590000000 1.0
C      1  0.5139600000000  0.4488540000000  0.4936180000000 1.0
C      1  0.5429710000000  0.4648750000000  0.5533100000000 1.0
C      1  0.5814420000000  0.5672190000000  0.4996740000000 1.0
C      1  0.5083730000000  0.4461990000000  0.5833670000000 1.0
C      1  0.5077660000000  0.4874270000000  0.4527680000000 1.0
C      1  0.4460140000000  0.4759770000000  0.4753440000000 1.0
C      1  0.4400610000000  0.5151310000000  0.4111750000000 1.0
C      1  0.4151580000000  0.4759420000000  0.4748040000000 1.0
C      1  0.5055630000000  0.4250070000000  0.5600850000000 1.0
C      1  0.5889970000000  0.4357080000000  0.5277860000000 1.0
C      1  0.5110970000000  0.5771870000000  0.5666910000000 1.0
C      1  0.5439630000000  0.4177520000000  0.4612090000000 1.0
C      1  0.4008970000000  0.4979440000000  0.5250910000000 1.0
C      1  0.4596820000000  0.5320570000000  0.4725880000000 1.0
C      1  0.4757860000000  0.4905490000000  0.5163910000000 1.0
C      1  0.5705110000000  0.5740670000000  0.5242230000000 1.0
C      1  0.4991550000000  0.3994960000000  0.5092770000000 1.0
C      1  0.5222620000000  0.4009320000000  0.4688600000000 1.0
C      1  0.5896510000000  0.5095160000000  0.5847980000000 1.0
C      1  0.4974900000000  0.4900030000000  0.3928600000000 1.0
C      1  0.4918180000000  0.5989940000000  0.4686290000000 1.0
C      1  0.4100350000000  0.4503500000000  0.5173850000000 1.0
C      1  0.5140180000000  0.4262870000000  0.5133200000000 1.0
C      1  0.4672030000000  0.4342820000000  0.5108350000000 1.0
C      1  0.4464700000000  0.5823590000000  0.5117520000000 1.0
C      1  0.5654880000000  0.5362750000000  0.4444860000000 1.0
C      1  0.4352230000000  0.5701680000000  0.5365460000000 1.0
C      1  0.4087320000000  0.5001520000000  0.4578100000000 1.0
C      1  0.5112870000000  0.4976860000000  0.5799740000000 1.0
C      1  0.5955690000000  0.5265440000000  0.5213820000000 1.0
C      1  0.4093860000000  0.5635820000000  0.4919750000000 1.0
C      1  0.4678930000000  0.6015280000000  0.5157010000000 1.0
C      1  0.4873660000000  0.4548520000000  0.6022890000000 1.0
C      1  0.4600410000000  0.4555060000000  0.5608560000000 1.0
C      1  0.4461430000000  0.3990000000000  0.4835370000000 1.0
C      1  0.5410750000000  0.4195400000000  0.5231580000000 1.0
C      1  0.4665250000000  0.5441110000000  0.5191580000000 1.0
C      1  0.5394510000000  0.4484330000000  0.4564480000000 1.0
C      1  0.5134100000000  0.5543410000000  0.5177180000000 1.0
C      1  0.5638460000000  0.5430910000000  0.5719620000000 1.0
C      1  0.4741800000000  0.3942380000000  0.5268440000000 1.0
C      1  0.4903980000000  0.6011610000000  0.4977310000000 1.0
C      1  0.4489700000000  0.5379540000000  0.5832100000000 1.0
C      1  0.5532990000000  0.4657560000000  0.5099800000000 1.0
C      1  0.5836330000000  0.5366550000000  0.5894620000000 1.0
C      1  0.4243240000000  0.4882590000000  0.5785040000000 1.0
C      1  0.5104090000000  0.4566190000000  0.4481980000000 1.0
C      1  0.5035140000000  0.4380740000000  0.4155290000000 1.0
C      1  0.5379210000000  0.5601190000000  0.4995550000000 1.0
C      1  0.4806690000000  0.4822440000000  0.5452560000000 1.0
C      1  0.5639830000000  0.4361450000000  0.5108770000000 1.0
C      1  0.4200040000000  0.4468360000000  0.5457590000000 1.0
C      1  0.4395270000000  0.4651000000000  0.3951300000000 1.0
C      1  0.4097600000000  0.5118870000000  0.5772240000000 1.0
C      1  0.5398610000000  0.5458730000000  0.4120410000000 1.0
C      1  0.4210140000000  0.5444430000000  0.5432380000000 1.0
C      1  0.4752530000000  0.4086760000000  0.5537150000000 1.0
C      1  0.4579870000000  0.4998490000000  0.4574590000000 1.0
C      1  0.5761280000000  0.4847240000000  0.5041750000000 1.0
C      1  0.4771420000000  0.4818960000000  0.4137770000000 1.0
C      1  0.4951620000000  0.5618300000000  0.4126860000000 1.0
C      1  0.5065880000000  0.5255900000000  0.5235000000000 1.0
C      1  0.4962350000000  0.4751990000000  0.6196670000000 1.0
C      1  0.5348080000000  0.5448280000000  0.4756370000000 1.0
C      1  0.5893790000000  0.4798270000000  0.4774800000000 1.0
C      1  0.4524770000000  0.4481350000000  0.4639320000000 1.0
C      1  0.4718380000000  0.5780230000000  0.4572080000000 1.0
C      1  0.4036360000000  0.5199540000000  0.4766410000000 1.0
C      1  0.4329720000000  0.5111210000000  0.4416560000000 1.0
C      1  0.4719740000000  0.4052980000000  0.4699940000000 1.0
C      1  0.5620150000000  0.5124850000000  0.5075670000000 1.0
C      1  0.4062710000000  0.5274570000000  0.5234930000000 1.0
C      1  0.4108280000000  0.4475000000000  0.4344890000000 1.0
C      1  0.5669900000000  0.5061010000000  0.4081230000000 1.0
C      1  0.4731590000000  0.4341350000000  0.4793520000000 1.0
C      1  0.4533920000000  0.4918120000000  0.3975000000000 1.0
C      1  0.4366760000000  0.5387420000000  0.4535900000000 1.0
C      1  0.3914600000000  0.4863110000000  0.5490710000000 1.0
C      1  0.5815170000000  0.4315490000000  0.5540420000000 1.0
C      1  0.4935370000000  0.5100690000000  0.5027880000000 1.0
C      1  0.4840980000000  0.5399670000000  0.3967190000000 1.0
C      1  0.4474170000000  0.5312010000000  0.4992030000000 1.0
C      1  0.4288370000000  0.4291720000000  0.4659820000000 1.0
C      1  0.4857070000000  0.5055850000000  0.5645990000000 1.0
C      1  0.5309620000000  0.4997910000000  0.4391230000000 1.0
C      1  0.5696910000000  0.5811760000000  0.4772580000000 1.0
C      1  0.5174370000000  0.5523410000000  0.4281910000000 1.0
C      1  0.4601330000000  0.4458400000000  0.3882650000000 1.0
C      1  0.5070070000000  0.4687850000000  0.5391320000000 1.0
C      1  0.5404910000000  0.5163860000000  0.4825340000000 1.0
C      1  0.5911670000000  0.5027850000000  0.4582710000000 1.0
C      1  0.5999990000000  0.5522040000000  0.4511340000000 1.0
C      1  0.5688050000000  0.4303450000000  0.4785580000000 1.0
C      1  0.5379610000000  0.4613380000000  0.4849190000000 1.0
C      1  0.5447370000000  0.5383580000000  0.5522100000000 1.0
C      1  0.4988730000000  0.5449420000000  0.6052070000000 1.0
C      1  0.4721530000000  0.5693030000000  0.4280630000000 1.0
C      1  0.4874750000000  0.5284410000000  0.5451670000000 1.0
C      1  0.4741910000000  0.4390070000000  0.4123170000000 1.0
C      1  0.4733190000000  0.5986750000000  0.5443640000000 1.0
C      1  0.4224150000000  0.5359310000000  0.5709600000000 1.0
C      1  0.5825540000000  0.4906130000000  0.4295680000000 1.0
C      1  0.4975120000000  0.3924350000000  0.4804730000000 1.0
C      1  0.6009060000000  0.5304730000000  0.4698750000000 1.0
C      1  0.4066600000000  0.4490250000000  0.4625790000000 1.0
C      1  0.4475350000000  0.4553080000000  0.5194690000000 1.0
C      1  0.4051820000000  0.4764920000000  0.5044900000000 1.0
C      1  0.5145610000000  0.4985230000000  0.4847110000000 1.0
C      1  0.4162720000000  0.5358030000000  0.4971470000000 1.0
C      1  0.4859410000000  0.5207120000000  0.6108560000000 1.0
C      1  0.5464260000000  0.5102810000000  0.5349130000000 1.0
C      1  0.5934290000000  0.5408680000000  0.4966500000000 1.0
C      1  0.4538490000000  0.4781800000000  0.5036100000000 1.0
C      1  0.5504350000000  0.4751800000000  0.5971320000000 1.0
C      1  0.4987620000000  0.5999780000000  0.5558210000000 1.0
C      1  0.4657380000000  0.5126860000000  0.5893730000000 1.0
C      1  0.5788130000000  0.5713390000000  0.4521620000000 1.0
C      1  0.4421170000000  0.5818630000000  0.4621370000000 1.0
C      1  0.4485620000000  0.4872360000000  0.5946660000000 1.0
C      1  0.4642730000000  0.5617140000000  0.5763740000000 1.0
C      1  0.5286500000000  0.5637440000000  0.5448510000000 1.0
C      1  0.4831980000000  0.5540580000000  0.4730540000000 1.0
C      1  0.4593520000000  0.4535390000000  0.4341240000000 1.0
C      1  0.4923150000000  0.5618340000000  0.5839350000000 1.0
C      1  0.5337410000000  0.5970910000000  0.5109690000000 1.0
C      1  0.5247190000000  0.4783980000000  0.3953360000000 1.0
C      1  0.5822550000000  0.4548670000000  0.4631320000000 1.0
C      1  0.4978010000000  0.4456340000000  0.4718560000000 1.0
C      1  0.5283080000000  0.4526200000000  0.4084790000000 1.0
C      1  0.5259470000000  0.4858280000000  0.5194180000000 1.0
C      1  0.5056250000000  0.4996230000000  0.6092410000000 1.0
C      1  0.5553150000000  0.4488100000000  0.4182690000000 1.0
C      1  0.5267550000000  0.4707850000000  0.5790330000000 1.0
C      1  0.5190550000000  0.5885200000000  0.4620320000000 1.0
C      1  0.5418940000000  0.5943870000000  0.4822690000000 1.0
C      1  0.5643570000000  0.4945700000000  0.5801740000000 1.0
C      1  0.5356020000000  0.5030460000000  0.4102880000000 1.0
C      1  0.5607820000000  0.4888110000000  0.5516680000000 1.0
C      1  0.4610730000000  0.4607190000000  0.5896020000000 1.0
C      1  0.4279470000000  0.5645940000000  0.4447630000000 1.0
C      1  0.4330200000000  0.4618880000000  0.4237120000000 1.0
C      1  0.5954630000000  0.4797100000000  0.5257500000000 1.0
C      1  0.5748970000000  0.4622140000000  0.4346470000000 1.0
C      1  0.4857520000000  0.5634750000000  0.5036020000000 1.0
C      1  0.4977410000000  0.4402340000000  0.5339350000000 1.0
C      1  0.5148450000000  0.5585450000000  0.4580820000000 1.0
C      1  0.4298620000000  0.5822800000000  0.4886310000000 1.0
C      1  0.5527860000000  0.5096050000000  0.4562300000000 1.0
C      1  0.5355740000000  0.4174540000000  0.5524060000000 1.0
C      1  0.4819700000000  0.4957070000000  0.4400940000000 1.0
C      1  0.4531630000000  0.4284510000000  0.5538280000000 1.0
C      1  0.6087680000000  0.4551590000000  0.5244470000000 1.0
C      1  0.5035930000000  0.5182770000000  0.3944080000000 1.0
C      1  0.6075580000000  0.5067380000000  0.5631010000000 1.0
C      1  0.6072970000000  0.5042920000000  0.5352620000000 1.0
END
