TITL C-951340-9809-283 -4.79771559282297e-06 125000 -505.691653704938 0 0 83 (C1) n - 1
REM
REM in /home/bkarasulu/work/CARBON/AIRSS/Generating-Clusters/EDIP-Nigel-Params/with-SteepDescent/Only-C1/SD-CG/HFTN-CG
REM
REM
REM
REM
REM
REM ./C.cell (11c1c37f851c82e70ff6c80c92926a4b)
REM
REM compiler GCC version 9.2.1 20190827 (Red Hat 9.2.1-1)
REM options -cpp -mtune=generic -march=x86-64 -g -O0 -fpre-include=/usr/include/finclude/math-vector-fortran.h
REM seed -2078376789 1622540546 1067482854 2059964121 -190807918 1410240887 -89690087 1376536747 320224574 688164837 1396404831 -1203024258 -924968050 -1230294709 1242605526 690369154 -1258335674 1845014557 -1908555206 1243572180 -888950528 836801745 -424158942 1213191584 2024074804 -1502779351 -117403 73150976 200029556 -625253766 964006203 773393213 1082857211
REM
CELL 1.54180   50.00000   50.00000   50.00000   90.00000   90.00000   90.00000
LATT -1
SFAC C  
C      1  0.4113120000000  0.4977400000000  0.4938350000000 1.0
C      1  0.5875560000000  0.5219800000000  0.4933000000000 1.0
C      1  0.5234890000000  0.5216960000000  0.5381430000000 1.0
C      1  0.5075090000000  0.4373430000000  0.5547050000000 1.0
C      1  0.4862370000000  0.4316950000000  0.5031860000000 1.0
C      1  0.4408340000000  0.4338410000000  0.5185010000000 1.0
C      1  0.4294530000000  0.4495420000000  0.4975680000000 1.0
C      1  0.4730400000000  0.4657300000000  0.4396460000000 1.0
C      1  0.5697070000000  0.4529830000000  0.4357100000000 1.0
C      1  0.4922970000000  0.5339790000000  0.4527770000000 1.0
C      1  0.5149250000000  0.5038330000000  0.4147380000000 1.0
C      1  0.5016200000000  0.4578870000000  0.5022560000000 1.0
C      1  0.4306420000000  0.5398790000000  0.4604010000000 1.0
C      1  0.5452650000000  0.4399250000000  0.4342880000000 1.0
C      1  0.4516980000000  0.4536280000000  0.4766080000000 1.0
C      1  0.5344950000000  0.5749260000000  0.5062480000000 1.0
C      1  0.4701790000000  0.5148380000000  0.4452550000000 1.0
C      1  0.5799970000000  0.4581190000000  0.4844520000000 1.0
C      1  0.4358440000000  0.4587180000000  0.5526990000000 1.0
C      1  0.4502670000000  0.5165810000000  0.5661190000000 1.0
C      1  0.5400740000000  0.5398890000000  0.4380530000000 1.0
C      1  0.4452370000000  0.5082560000000  0.4813680000000 1.0
C      1  0.4196230000000  0.4748820000000  0.5096590000000 1.0
C      1  0.4710640000000  0.4292320000000  0.4785560000000 1.0
C      1  0.4646270000000  0.4827110000000  0.4826450000000 1.0
C      1  0.4954110000000  0.5269960000000  0.5151110000000 1.0
C      1  0.4688320000000  0.5005420000000  0.5822140000000 1.0
C      1  0.5341580000000  0.4765850000000  0.5622830000000 1.0
C      1  0.4800040000000  0.4891440000000  0.4567810000000 1.0
C      1  0.5106500000000  0.5861180000000  0.4904200000000 1.0
C      1  0.4825010000000  0.5562600000000  0.5211990000000 1.0
C      1  0.5386130000000  0.5056300000000  0.4705920000000 1.0
C      1  0.4800030000000  0.5010790000000  0.5286640000000 1.0
C      1  0.4913490000000  0.5491690000000  0.5651320000000 1.0
C      1  0.4408430000000  0.5275200000000  0.5206320000000 1.0
C      1  0.5127900000000  0.5799220000000  0.4608020000000 1.0
C      1  0.5469820000000  0.5353350000000  0.5021010000000 1.0
C      1  0.4999460000000  0.5678810000000  0.5430900000000 1.0
C      1  0.5431490000000  0.5434430000000  0.5444430000000 1.0
C      1  0.4820070000000  0.4802970000000  0.5068480000000 1.0
C      1  0.4912910000000  0.4997580000000  0.5628500000000 1.0
C      1  0.5360980000000  0.5600190000000  0.4606140000000 1.0
C      1  0.4175900000000  0.5237840000000  0.5041050000000 1.0
C      1  0.5373830000000  0.4934210000000  0.5380340000000 1.0
C      1  0.5338100000000  0.4474930000000  0.5613070000000 1.0
C      1  0.5618390000000  0.4906940000000  0.5195800000000 1.0
C      1  0.4872890000000  0.5653620000000  0.4528350000000 1.0
C      1  0.5621610000000  0.5620020000000  0.4790820000000 1.0
C      1  0.5237240000000  0.4558260000000  0.5248770000000 1.0
C      1  0.4621920000000  0.4735860000000  0.5868400000000 1.0
C      1  0.4437090000000  0.5588020000000  0.4745690000000 1.0
C      1  0.5242140000000  0.4837330000000  0.4318510000000 1.0
C      1  0.4677990000000  0.5726300000000  0.4739350000000 1.0
C      1  0.5775610000000  0.5369700000000  0.4711110000000 1.0
C      1  0.5143170000000  0.5270520000000  0.4315960000000 1.0
C      1  0.5121230000000  0.4618740000000  0.4736460000000 1.0
C      1  0.4541380000000  0.5516760000000  0.5317960000000 1.0
C      1  0.4496850000000  0.5054820000000  0.5377580000000 1.0
C      1  0.5484180000000  0.4974040000000  0.4952490000000 1.0
C      1  0.5723050000000  0.4440730000000  0.4617240000000 1.0
C      1  0.5811930000000  0.5146540000000  0.5201470000000 1.0
C      1  0.4877420000000  0.4225430000000  0.4562580000000 1.0
C      1  0.5004440000000  0.5244200000000  0.4825570000000 1.0
C      1  0.4607090000000  0.5445930000000  0.5607840000000 1.0
C      1  0.4796520000000  0.4441330000000  0.5495400000000 1.0
C      1  0.5576150000000  0.5213200000000  0.4539490000000 1.0
C      1  0.5084780000000  0.4795860000000  0.5725940000000 1.0
C      1  0.5227120000000  0.5442800000000  0.4851270000000 1.0
C      1  0.5294800000000  0.5686170000000  0.5357340000000 1.0
C      1  0.4317170000000  0.4808730000000  0.5356570000000 1.0
C      1  0.4836980000000  0.5765340000000  0.4983950000000 1.0
C      1  0.5486660000000  0.4433360000000  0.5145610000000 1.0
C      1  0.5485490000000  0.4206110000000  0.5006830000000 1.0
C      1  0.5698150000000  0.5386380000000  0.5330720000000 1.0
C      1  0.5153530000000  0.4893170000000  0.4597490000000 1.0
C      1  0.4419480000000  0.5198690000000  0.4449590000000 1.0
C      1  0.4472750000000  0.4558500000000  0.4475530000000 1.0
C      1  0.4682250000000  0.4310060000000  0.5261740000000 1.0
C      1  0.5073110000000  0.5240070000000  0.5630930000000 1.0
C      1  0.5207380000000  0.4540420000000  0.4280360000000 1.0
C      1  0.4587670000000  0.4533620000000  0.5677530000000 1.0
C      1  0.4976480000000  0.4488930000000  0.4486410000000 1.0
C      1  0.5703910000000  0.4621220000000  0.5105970000000 1.0
END
