TITL C-951335-1172-734 -7.65391401134348e-07 125000 -813.83012397257 0 0 131 (C1) n - 1
REM
REM in /home/bkarasulu/work/CARBON/AIRSS/Generating-Clusters/EDIP-Nigel-Params/with-SteepDescent/Only-C1/SD-CG/HFTN-CG
REM
REM
REM
REM
REM
REM ./C.cell (11c1c37f851c82e70ff6c80c92926a4b)
REM
REM compiler GCC version 9.2.1 20190827 (Red Hat 9.2.1-1)
REM options -cpp -mtune=generic -march=x86-64 -g -O0 -fpre-include=/usr/include/finclude/math-vector-fortran.h
REM seed 1459653514 -762019099 -652111197 -627664918 -1303663260 1697082209 1052508522 -2021236752 677636655 1976630968 -1115717891 50378938 -740834763 763704476 -672447120 1810588063 -1932116125 608025098 -620078838 -13905481 -1902188676 -1361971172 1526504692 641907963 -32506828 905375902 -786530871 1454545418 948032844 -26760408 -1848981884 -1647147107 365060040
REM
CELL 1.54180   50.00000   50.00000   50.00000   90.00000   90.00000   90.00000
LATT -1
SFAC C  
C      1  0.4775440000000  0.4930950000000  0.4439470000000 1.0
C      1  0.5980450000000  0.5040000000000  0.4546600000000 1.0
C      1  0.4361950000000  0.4498500000000  0.5783720000000 1.0
C      1  0.5072060000000  0.4698530000000  0.5450710000000 1.0
C      1  0.4624940000000  0.5056020000000  0.4688790000000 1.0
C      1  0.5248030000000  0.5492240000000  0.5074880000000 1.0
C      1  0.5592820000000  0.4770960000000  0.4447810000000 1.0
C      1  0.4641390000000  0.4691970000000  0.5264650000000 1.0
C      1  0.4658830000000  0.4184760000000  0.4884690000000 1.0
C      1  0.4834910000000  0.4634700000000  0.4805510000000 1.0
C      1  0.4475310000000  0.4923050000000  0.5695510000000 1.0
C      1  0.5272450000000  0.4923850000000  0.4822290000000 1.0
C      1  0.5435900000000  0.5653180000000  0.4438180000000 1.0
C      1  0.4613330000000  0.4436020000000  0.4705770000000 1.0
C      1  0.5896420000000  0.4880010000000  0.5225610000000 1.0
C      1  0.5740330000000  0.5405680000000  0.5168720000000 1.0
C      1  0.5691160000000  0.5696640000000  0.5140490000000 1.0
C      1  0.5981640000000  0.4622310000000  0.5295890000000 1.0
C      1  0.5534990000000  0.5075550000000  0.4840520000000 1.0
C      1  0.4964810000000  0.5703490000000  0.4584380000000 1.0
C      1  0.5382540000000  0.4977890000000  0.5855900000000 1.0
C      1  0.4176830000000  0.5162320000000  0.4844420000000 1.0
C      1  0.4996180000000  0.5418440000000  0.5238830000000 1.0
C      1  0.4249170000000  0.5543880000000  0.5111410000000 1.0
C      1  0.5467250000000  0.4569590000000  0.4262940000000 1.0
C      1  0.5106570000000  0.3930590000000  0.4908610000000 1.0
C      1  0.4660390000000  0.5283480000000  0.4085640000000 1.0
C      1  0.4510060000000  0.4292540000000  0.5641550000000 1.0
C      1  0.5401600000000  0.4323030000000  0.4410600000000 1.0
C      1  0.4800900000000  0.4590030000000  0.5488790000000 1.0
C      1  0.4358950000000  0.4603120000000  0.5304420000000 1.0
C      1  0.5494740000000  0.4083960000000  0.5162340000000 1.0
C      1  0.4567920000000  0.4834660000000  0.4247830000000 1.0
C      1  0.4338440000000  0.4771100000000  0.4420800000000 1.0
C      1  0.4048220000000  0.5166330000000  0.5318820000000 1.0
C      1  0.5649130000000  0.4903780000000  0.5734740000000 1.0
C      1  0.5299640000000  0.5979310000000  0.5106470000000 1.0
C      1  0.5059530000000  0.4571040000000  0.3994780000000 1.0
C      1  0.5460740000000  0.5049240000000  0.4450830000000 1.0
C      1  0.5195050000000  0.4709420000000  0.5873150000000 1.0
C      1  0.5837780000000  0.4648680000000  0.4800980000000 1.0
C      1  0.5358670000000  0.5085470000000  0.5283720000000 1.0
C      1  0.5876810000000  0.4766610000000  0.4533250000000 1.0
C      1  0.5166280000000  0.4177080000000  0.4300570000000 1.0
C      1  0.4124160000000  0.5617000000000  0.5376640000000 1.0
C      1  0.5228560000000  0.4004490000000  0.5150070000000 1.0
C      1  0.5116600000000  0.5430750000000  0.4121550000000 1.0
C      1  0.5074960000000  0.5030670000000  0.5618620000000 1.0
C      1  0.4546350000000  0.5178200000000  0.5232970000000 1.0
C      1  0.5105450000000  0.5616460000000  0.5617470000000 1.0
C      1  0.5217860000000  0.5837220000000  0.4484970000000 1.0
C      1  0.4684610000000  0.4693230000000  0.5757270000000 1.0
C      1  0.4354900000000  0.4592810000000  0.4658560000000 1.0
C      1  0.5683250000000  0.5805830000000  0.4860030000000 1.0
C      1  0.4974520000000  0.5150910000000  0.4354010000000 1.0
C      1  0.4687560000000  0.5348890000000  0.4738510000000 1.0
C      1  0.5525580000000  0.5429830000000  0.5610730000000 1.0
C      1  0.5459230000000  0.4622140000000  0.5089890000000 1.0
C      1  0.4254600000000  0.5132930000000  0.4308060000000 1.0
C      1  0.4468580000000  0.5079450000000  0.4116030000000 1.0
C      1  0.5222030000000  0.4709840000000  0.4179820000000 1.0
C      1  0.4895840000000  0.5203890000000  0.5810730000000 1.0
C      1  0.5577160000000  0.5241310000000  0.4265910000000 1.0
C      1  0.4398760000000  0.5756320000000  0.4711320000000 1.0
C      1  0.4274660000000  0.4717860000000  0.5588730000000 1.0
C      1  0.5839160000000  0.5040300000000  0.5489610000000 1.0
C      1  0.5778710000000  0.4433940000000  0.5345820000000 1.0
C      1  0.5032730000000  0.4075330000000  0.5351180000000 1.0
C      1  0.4024520000000  0.5380450000000  0.5504530000000 1.0
C      1  0.5215220000000  0.4984030000000  0.4292990000000 1.0
C      1  0.5037930000000  0.4507890000000  0.4976790000000 1.0
C      1  0.4583900000000  0.5842850000000  0.4921590000000 1.0
C      1  0.4988040000000  0.5316700000000  0.4628750000000 1.0
C      1  0.4262550000000  0.5394350000000  0.4431440000000 1.0
C      1  0.5254290000000  0.4688680000000  0.4620300000000 1.0
C      1  0.5397690000000  0.5716960000000  0.5215690000000 1.0
C      1  0.4708290000000  0.5408770000000  0.5094140000000 1.0
C      1  0.4872030000000  0.5698020000000  0.5474270000000 1.0
C      1  0.5318600000000  0.6047560000000  0.4639100000000 1.0
C      1  0.4096500000000  0.5391500000000  0.4677600000000 1.0
C      1  0.4747560000000  0.5653980000000  0.4379090000000 1.0
C      1  0.4585400000000  0.5394070000000  0.5707140000000 1.0
C      1  0.5294410000000  0.4454990000000  0.4815250000000 1.0
C      1  0.5839690000000  0.5400700000000  0.4590260000000 1.0
C      1  0.4871590000000  0.5042530000000  0.6049740000000 1.0
C      1  0.5766380000000  0.5331730000000  0.5454650000000 1.0
C      1  0.5042430000000  0.5097600000000  0.4838430000000 1.0
C      1  0.5722950000000  0.4370490000000  0.4837530000000 1.0
C      1  0.4738500000000  0.4953300000000  0.5173500000000 1.0
C      1  0.4740540000000  0.4369940000000  0.4438640000000 1.0
C      1  0.4910440000000  0.4782530000000  0.5945380000000 1.0
C      1  0.4831050000000  0.5500620000000  0.4139710000000 1.0
C      1  0.4634620000000  0.4168760000000  0.5178550000000 1.0
C      1  0.4046500000000  0.4912930000000  0.4818010000000 1.0
C      1  0.5105000000000  0.5415200000000  0.5834810000000 1.0
C      1  0.5510380000000  0.4567170000000  0.5389290000000 1.0
C      1  0.4862820000000  0.5855930000000  0.4830280000000 1.0
C      1  0.4547950000000  0.5165700000000  0.5542390000000 1.0
C      1  0.4900480000000  0.4057400000000  0.4762510000000 1.0
C      1  0.5373810000000  0.5440630000000  0.4260940000000 1.0
C      1  0.4930430000000  0.4157660000000  0.4485490000000 1.0
C      1  0.5474740000000  0.6026440000000  0.4872060000000 1.0
C      1  0.4777320000000  0.3962690000000  0.5307190000000 1.0
C      1  0.5369430000000  0.5288170000000  0.5824470000000 1.0
C      1  0.4156630000000  0.5637480000000  0.4837110000000 1.0
C      1  0.5056590000000  0.4247850000000  0.5588350000000 1.0
C      1  0.5238180000000  0.4501450000000  0.5618210000000 1.0
C      1  0.5082400000000  0.4307230000000  0.4062720000000 1.0
C      1  0.4942980000000  0.4673120000000  0.4521210000000 1.0
C      1  0.4021410000000  0.4683930000000  0.5131330000000 1.0
C      1  0.4610140000000  0.5649660000000  0.5583180000000 1.0
C      1  0.4252360000000  0.5241400000000  0.5120070000000 1.0
C      1  0.5058420000000  0.5118250000000  0.5317030000000 1.0
C      1  0.4519870000000  0.5537030000000  0.4545940000000 1.0
C      1  0.4436450000000  0.4307930000000  0.5350180000000 1.0
C      1  0.5640170000000  0.5604140000000  0.4644260000000 1.0
C      1  0.5692210000000  0.4832720000000  0.4991740000000 1.0
C      1  0.4801530000000  0.4929880000000  0.4887870000000 1.0
C      1  0.5472760000000  0.5274050000000  0.5079520000000 1.0
C      1  0.4027500000000  0.4874570000000  0.5367540000000 1.0
C      1  0.4795540000000  0.4272190000000  0.5713570000000 1.0
C      1  0.5037110000000  0.5973550000000  0.5014120000000 1.0
C      1  0.5560650000000  0.4233220000000  0.4636910000000 1.0
C      1  0.4220710000000  0.4700330000000  0.4895970000000 1.0
C      1  0.5709800000000  0.4256780000000  0.5114620000000 1.0
C      1  0.5947760000000  0.5211450000000  0.4762040000000 1.0
C      1  0.5158840000000  0.4720290000000  0.5143800000000 1.0
C      1  0.4535440000000  0.5654710000000  0.5150110000000 1.0
C      1  0.5372690000000  0.5661110000000  0.5511610000000 1.0
C      1  0.5519340000000  0.4875790000000  0.5452200000000 1.0
C      1  0.4362200000000  0.5761330000000  0.5482240000000 1.0
END
