TITL C-951334-9093-482 -5.20629351796297e-06 125000 -548.876571006641 0 0 89 (C1) n - 1
REM
REM in /home/bkarasulu/work/CARBON/AIRSS/Generating-Clusters/EDIP-Nigel-Params/with-SteepDescent/Only-C1/SD-CG/HFTN-CG
REM
REM
REM
REM
REM
REM ./C.cell (11c1c37f851c82e70ff6c80c92926a4b)
REM
REM compiler GCC version 9.2.1 20190827 (Red Hat 9.2.1-1)
REM options -cpp -mtune=generic -march=x86-64 -g -O0 -fpre-include=/usr/include/finclude/math-vector-fortran.h
REM seed -1731687555 -673128058 -164138910 983746939 841260483 -996163037 2004855128 687626290 1782658748 356585211 1510396601 2032336670 -1589212386 1208018812 -1228698320 385770585 637646237 1677274105 -1074848517 -214740054 1028516796 -1103433197 1283617449 -403094322 -736385359 -86600874 -1528695332 -116582435 963751561 1123671365 -734167025 -1528555291 -1383499272
REM
CELL 1.54180   50.00000   50.00000   50.00000   90.00000   90.00000   90.00000
LATT -1
SFAC C  
C      1  0.5327830000000  0.5328220000000  0.5250350000000 1.0
C      1  0.5334920000000  0.4636260000000  0.5480420000000 1.0
C      1  0.4888110000000  0.4644900000000  0.5161840000000 1.0
C      1  0.5642170000000  0.5015980000000  0.4389420000000 1.0
C      1  0.5722880000000  0.5124840000000  0.5018170000000 1.0
C      1  0.5268050000000  0.5685160000000  0.4493310000000 1.0
C      1  0.4598030000000  0.5580960000000  0.4842320000000 1.0
C      1  0.4683760000000  0.4792400000000  0.4997060000000 1.0
C      1  0.5132030000000  0.4572220000000  0.4555990000000 1.0
C      1  0.4224740000000  0.5067770000000  0.5238610000000 1.0
C      1  0.5268850000000  0.4377510000000  0.5328780000000 1.0
C      1  0.5113440000000  0.4870910000000  0.5879800000000 1.0
C      1  0.5583360000000  0.5511240000000  0.4779620000000 1.0
C      1  0.4920630000000  0.4594750000000  0.5687320000000 1.0
C      1  0.4423310000000  0.4633980000000  0.5035740000000 1.0
C      1  0.4330440000000  0.4645280000000  0.5471470000000 1.0
C      1  0.5142500000000  0.5358540000000  0.4329730000000 1.0
C      1  0.5575710000000  0.5285890000000  0.4353640000000 1.0
C      1  0.4842580000000  0.5228100000000  0.4668560000000 1.0
C      1  0.4278050000000  0.5612550000000  0.5203410000000 1.0
C      1  0.4985980000000  0.5786320000000  0.5014560000000 1.0
C      1  0.5021470000000  0.5095770000000  0.5714180000000 1.0
C      1  0.5176960000000  0.4858480000000  0.4230910000000 1.0
C      1  0.5028580000000  0.4977050000000  0.4623240000000 1.0
C      1  0.5619550000000  0.4733030000000  0.5487010000000 1.0
C      1  0.5585420000000  0.5013130000000  0.5534940000000 1.0
C      1  0.4466700000000  0.5577630000000  0.4587140000000 1.0
C      1  0.5410610000000  0.5690150000000  0.4915630000000 1.0
C      1  0.5788080000000  0.5375250000000  0.4909030000000 1.0
C      1  0.4844390000000  0.4502310000000  0.4604670000000 1.0
C      1  0.4938020000000  0.5478180000000  0.4511070000000 1.0
C      1  0.5113120000000  0.5761530000000  0.5274470000000 1.0
C      1  0.4674710000000  0.5068700000000  0.5112090000000 1.0
C      1  0.5415470000000  0.5072260000000  0.5091280000000 1.0
C      1  0.5294750000000  0.4714050000000  0.4787090000000 1.0
C      1  0.4831410000000  0.4350440000000  0.5118230000000 1.0
C      1  0.5289530000000  0.4310980000000  0.4486240000000 1.0
C      1  0.5442120000000  0.5261200000000  0.5523820000000 1.0
C      1  0.5164760000000  0.5749250000000  0.4774310000000 1.0
C      1  0.4976720000000  0.5558940000000  0.5448360000000 1.0
C      1  0.5005050000000  0.4229310000000  0.5340360000000 1.0
C      1  0.4889910000000  0.4164680000000  0.5590060000000 1.0
C      1  0.4532110000000  0.5722970000000  0.5258970000000 1.0
C      1  0.4639610000000  0.4269530000000  0.5593200000000 1.0
C      1  0.5227170000000  0.5310630000000  0.5722560000000 1.0
C      1  0.4325800000000  0.5305940000000  0.4627000000000 1.0
C      1  0.4674310000000  0.5548270000000  0.4361240000000 1.0
C      1  0.5832070000000  0.4910030000000  0.4857810000000 1.0
C      1  0.4550290000000  0.4851000000000  0.5525810000000 1.0
C      1  0.5832000000000  0.4957870000000  0.4582060000000 1.0
C      1  0.4565000000000  0.4944200000000  0.5803250000000 1.0
C      1  0.4503430000000  0.5098880000000  0.5353430000000 1.0
C      1  0.5020780000000  0.5297100000000  0.5274170000000 1.0
C      1  0.4561660000000  0.5147080000000  0.4515740000000 1.0
C      1  0.4568910000000  0.5323890000000  0.5563230000000 1.0
C      1  0.4213500000000  0.4758260000000  0.5218570000000 1.0
C      1  0.4803040000000  0.5150990000000  0.4090450000000 1.0
C      1  0.4601750000000  0.5274910000000  0.4239210000000 1.0
C      1  0.4437070000000  0.4368640000000  0.5423480000000 1.0
C      1  0.5242370000000  0.4867100000000  0.5301990000000 1.0
C      1  0.4930240000000  0.4290790000000  0.4831040000000 1.0
C      1  0.5370160000000  0.5633570000000  0.5197300000000 1.0
C      1  0.4726850000000  0.5176560000000  0.5776220000000 1.0
C      1  0.5054480000000  0.5119810000000  0.4206650000000 1.0
C      1  0.5521120000000  0.5518970000000  0.4501890000000 1.0
C      1  0.5199970000000  0.4626830000000  0.5751000000000 1.0
C      1  0.4828290000000  0.4751500000000  0.5452230000000 1.0
C      1  0.4522220000000  0.4369120000000  0.5142110000000 1.0
C      1  0.4225250000000  0.5236410000000  0.4890840000000 1.0
C      1  0.5534750000000  0.4514670000000  0.4501240000000 1.0
C      1  0.4814130000000  0.5292440000000  0.4980170000000 1.0
C      1  0.4765450000000  0.4781010000000  0.4702520000000 1.0
C      1  0.5449520000000  0.4802750000000  0.4358230000000 1.0
C      1  0.5004950000000  0.5009870000000  0.5423930000000 1.0
C      1  0.5108610000000  0.5560400000000  0.5706310000000 1.0
C      1  0.5432970000000  0.4292950000000  0.4930140000000 1.0
C      1  0.5646390000000  0.4453770000000  0.4788420000000 1.0
C      1  0.4987550000000  0.4655130000000  0.4157300000000 1.0
C      1  0.5253540000000  0.5008210000000  0.4836770000000 1.0
C      1  0.5213070000000  0.4187160000000  0.4755270000000 1.0
C      1  0.4127270000000  0.5404150000000  0.5099840000000 1.0
C      1  0.5701120000000  0.4680760000000  0.4964880000000 1.0
C      1  0.5238570000000  0.4523990000000  0.5044140000000 1.0
C      1  0.4535050000000  0.4692660000000  0.4291820000000 1.0
C      1  0.4682870000000  0.5583150000000  0.5473390000000 1.0
C      1  0.4689370000000  0.5787930000000  0.5011390000000 1.0
C      1  0.4769200000000  0.4539120000000  0.4302160000000 1.0
C      1  0.5732740000000  0.4653660000000  0.5242910000000 1.0
C      1  0.4538750000000  0.4849270000000  0.4523480000000 1.0
END
