TITL C-951347-9520-700 -3.2586906808298e-07 125000 -299.630204987304 0 0 49 (C1) n - 1
REM
REM in /home/bkarasulu/work/CARBON/AIRSS/Generating-Clusters/EDIP-Nigel-Params/with-SteepDescent/Only-C1/SD-CG/HFTN-CG
REM
REM
REM
REM
REM
REM ./C.cell (11c1c37f851c82e70ff6c80c92926a4b)
REM
REM compiler GCC version 9.2.1 20190827 (Red Hat 9.2.1-1)
REM options -cpp -mtune=generic -march=x86-64 -g -O0 -fpre-include=/usr/include/finclude/math-vector-fortran.h
REM seed 1454240645 -499394907 -2136228523 -1409885196 1782011789 -2111889474 361078203 -198040736 718073976 1147524197 -473057145 -2032736729 -1351147162 1348293642 -391514435 1993778304 -517058272 -598342618 -1956770280 -2103121148 627315480 -470928076 -591987751 2001792043 717043537 908887012 178864799 1471059169 -1262034214 -1025754004 -114977601 -81379860 2090441067
REM
CELL 1.54180   50.00000   50.00000   50.00000   90.00000   90.00000   90.00000
LATT -1
SFAC C  
C      1  0.4770660000000  0.4801810000000  0.5578500000000 1.0
C      1  0.5196550000000  0.5127700000000  0.4902420000000 1.0
C      1  0.5289690000000  0.5199030000000  0.4627730000000 1.0
C      1  0.4381660000000  0.5162790000000  0.4978980000000 1.0
C      1  0.5428170000000  0.4764370000000  0.5208150000000 1.0
C      1  0.4446700000000  0.5125790000000  0.5636990000000 1.0
C      1  0.5746570000000  0.5209600000000  0.4878280000000 1.0
C      1  0.4928610000000  0.5592470000000  0.4685850000000 1.0
C      1  0.4388050000000  0.4939720000000  0.5161210000000 1.0
C      1  0.5214450000000  0.4733070000000  0.4484630000000 1.0
C      1  0.4957190000000  0.5456440000000  0.5164920000000 1.0
C      1  0.4523760000000  0.4867190000000  0.5696730000000 1.0
C      1  0.4428840000000  0.4696620000000  0.5014030000000 1.0
C      1  0.4525890000000  0.4457790000000  0.5128440000000 1.0
C      1  0.4848160000000  0.5019490000000  0.5403080000000 1.0
C      1  0.4876350000000  0.4376810000000  0.4839940000000 1.0
C      1  0.5637520000000  0.4874530000000  0.5031700000000 1.0
C      1  0.5031410000000  0.5686400000000  0.4962360000000 1.0
C      1  0.4785520000000  0.4353200000000  0.5113230000000 1.0
C      1  0.5631080000000  0.4807350000000  0.4746170000000 1.0
C      1  0.4649060000000  0.5177290000000  0.4566850000000 1.0
C      1  0.5315720000000  0.4409430000000  0.4883460000000 1.0
C      1  0.4885330000000  0.4727860000000  0.4923180000000 1.0
C      1  0.4739640000000  0.5372770000000  0.4766100000000 1.0
C      1  0.4505810000000  0.5428290000000  0.5038180000000 1.0
C      1  0.4671500000000  0.5462520000000  0.5291930000000 1.0
C      1  0.4901340000000  0.4561140000000  0.5531020000000 1.0
C      1  0.5115530000000  0.5002200000000  0.4463150000000 1.0
C      1  0.4763360000000  0.4974430000000  0.5099380000000 1.0
C      1  0.4912000000000  0.5221400000000  0.4972090000000 1.0
C      1  0.5167280000000  0.4822460000000  0.4859520000000 1.0
C      1  0.4666640000000  0.5235360000000  0.5492720000000 1.0
C      1  0.4452460000000  0.4757110000000  0.4722600000000 1.0
C      1  0.5519940000000  0.5551200000000  0.5036810000000 1.0
C      1  0.5765060000000  0.5487250000000  0.4911380000000 1.0
C      1  0.5592310000000  0.5098010000000  0.4651650000000 1.0
C      1  0.5339690000000  0.4917010000000  0.5422920000000 1.0
C      1  0.5324210000000  0.5688750000000  0.4856530000000 1.0
C      1  0.4708330000000  0.4699000000000  0.4590350000000 1.0
C      1  0.5114260000000  0.4241230000000  0.4786330000000 1.0
C      1  0.5266070000000  0.4521700000000  0.5154400000000 1.0
C      1  0.5218210000000  0.5504430000000  0.4605490000000 1.0
C      1  0.5187540000000  0.5354810000000  0.5327810000000 1.0
C      1  0.5131560000000  0.5101390000000  0.5452710000000 1.0
C      1  0.4836040000000  0.4958380000000  0.4550040000000 1.0
C      1  0.5407610000000  0.4623270000000  0.4680260000000 1.0
C      1  0.4989530000000  0.4485480000000  0.5275400000000 1.0
C      1  0.4411220000000  0.5056970000000  0.4698680000000 1.0
C      1  0.5405880000000  0.5306690000000  0.5145740000000 1.0
END
