TITL C-950525-1983-272 -3.19140943639754e-07 125000 -270.272072138393 0 0 45 (C1) n - 1
REM
REM in /home/bkarasulu/work/CARBON/AIRSS/Generating-Clusters/EDIP-Nigel-Params/with-SteepDescent/Only-C1/SD-CG/HFTN-CG
REM
REM
REM
REM
REM
REM ./C.cell (11c1c37f851c82e70ff6c80c92926a4b)
REM
REM compiler GCC version 9.2.1 20190827 (Red Hat 9.2.1-1)
REM options -cpp -mtune=generic -march=x86-64 -g -O0 -fpre-include=/usr/include/finclude/math-vector-fortran.h
REM seed -458601979 28764525 -2047588505 98465219 -434185038 -657311964 1451019745 -591485620 -2114142351 1755079205 364012508 678342585 -14624140 -1786158827 1780013665 -439483303 1178404517 728708562 421660234 -1115958513 -490337115 -678946468 996032453 -706522963 -633247745 -144580112 178831422 -1739852845 -1951255383 2086334234 1689019552 1529981939 -1790714910
REM
CELL 1.54180   50.00000   50.00000   50.00000   90.00000   90.00000   90.00000
LATT -1
SFAC C  
C      1  0.5224140000000  0.5297670000000  0.5404530000000 1.0
C      1  0.4845690000000  0.5073430000000  0.4776280000000 1.0
C      1  0.5161390000000  0.5178170000000  0.5151460000000 1.0
C      1  0.4549610000000  0.5032440000000  0.4748240000000 1.0
C      1  0.5443560000000  0.4937710000000  0.4815670000000 1.0
C      1  0.5228970000000  0.4719830000000  0.4392750000000 1.0
C      1  0.4816980000000  0.4955640000000  0.5650750000000 1.0
C      1  0.4793940000000  0.4536010000000  0.5036660000000 1.0
C      1  0.4674670000000  0.5168010000000  0.5263200000000 1.0
C      1  0.4954210000000  0.4765990000000  0.4315860000000 1.0
C      1  0.5310700000000  0.4709320000000  0.4966060000000 1.0
C      1  0.5086660000000  0.4936910000000  0.5747290000000 1.0
C      1  0.4858770000000  0.5521330000000  0.4977740000000 1.0
C      1  0.5112310000000  0.5343680000000  0.4546760000000 1.0
C      1  0.5212980000000  0.4579940000000  0.5321190000000 1.0
C      1  0.5001760000000  0.5352950000000  0.5567260000000 1.0
C      1  0.5617390000000  0.5290830000000  0.5099350000000 1.0
C      1  0.4823290000000  0.5367150000000  0.4530610000000 1.0
C      1  0.5370360000000  0.5218150000000  0.4950390000000 1.0
C      1  0.5250830000000  0.5445410000000  0.4778740000000 1.0
C      1  0.4755700000000  0.5224510000000  0.5549180000000 1.0
C      1  0.4435370000000  0.5296640000000  0.4845630000000 1.0
C      1  0.4471620000000  0.4787070000000  0.5270120000000 1.0
C      1  0.5270840000000  0.5165250000000  0.4406450000000 1.0
C      1  0.4731110000000  0.4602710000000  0.4413880000000 1.0
C      1  0.5386570000000  0.4933470000000  0.4508630000000 1.0
C      1  0.4890670000000  0.5229540000000  0.5049180000000 1.0
C      1  0.4934240000000  0.4627520000000  0.5272910000000 1.0
C      1  0.5100670000000  0.5646490000000  0.4906950000000 1.0
C      1  0.4947280000000  0.4524050000000  0.4792230000000 1.0
C      1  0.5422320000000  0.4530790000000  0.5147780000000 1.0
C      1  0.4406670000000  0.5286340000000  0.5148250000000 1.0
C      1  0.5670610000000  0.5133320000000  0.5345140000000 1.0
C      1  0.4381590000000  0.4682830000000  0.4766410000000 1.0
C      1  0.5804020000000  0.4955280000000  0.5148150000000 1.0
C      1  0.5724980000000  0.4921140000000  0.4881420000000 1.0
C      1  0.4664010000000  0.5484780000000  0.4752310000000 1.0
C      1  0.5006920000000  0.4809170000000  0.4691160000000 1.0
C      1  0.5419090000000  0.5113360000000  0.5508410000000 1.0
C      1  0.4308650000000  0.5031600000000  0.5260940000000 1.0
C      1  0.4541520000000  0.4678180000000  0.5007140000000 1.0
C      1  0.5350860000000  0.5009960000000  0.5762690000000 1.0
C      1  0.4811970000000  0.4389380000000  0.4583200000000 1.0
C      1  0.4733010000000  0.4767340000000  0.5433390000000 1.0
C      1  0.4491490000000  0.4738720000000  0.4507640000000 1.0
END
