TITL C-951348-1603-483 -9.43732325797683e-07 125000 -386.644553092174 0 0 64 (C1) n - 1
REM
REM in /home/bkarasulu/work/CARBON/AIRSS/Generating-Clusters/EDIP-Nigel-Params/with-SteepDescent/Only-C1/SD-CG/HFTN-CG
REM
REM
REM
REM
REM
REM ./C.cell (11c1c37f851c82e70ff6c80c92926a4b)
REM
REM compiler GCC version 9.2.1 20190827 (Red Hat 9.2.1-1)
REM options -cpp -mtune=generic -march=x86-64 -g -O0 -fpre-include=/usr/include/finclude/math-vector-fortran.h
REM seed 864248654 -1835980964 324356485 618446122 -454166953 -638070605 513282529 -2018179773 1711819648 813502432 -1801258047 -503398860 118004223 1806277959 1857698951 -1714789793 1890639414 1804003376 170451384 985759609 -1761294436 1501064526 67231706 1231186468 -1540256586 1696094321 -1922172448 -130042122 1974807575 -1833778723 -1452067844 -1755037205 1096712892
REM
CELL 1.54180   50.00000   50.00000   50.00000   90.00000   90.00000   90.00000
LATT -1
SFAC C  
C      1  0.4634090000000  0.4779350000000  0.4623260000000 1.0
C      1  0.4628570000000  0.5436070000000  0.5166640000000 1.0
C      1  0.4834810000000  0.4754930000000  0.5840800000000 1.0
C      1  0.4410280000000  0.5209290000000  0.5154370000000 1.0
C      1  0.5149580000000  0.5135930000000  0.4270080000000 1.0
C      1  0.4605480000000  0.4473850000000  0.4578810000000 1.0
C      1  0.4918410000000  0.5302290000000  0.4218890000000 1.0
C      1  0.4517280000000  0.5393400000000  0.4701750000000 1.0
C      1  0.4864030000000  0.5588970000000  0.5322030000000 1.0
C      1  0.5040820000000  0.4876700000000  0.4322350000000 1.0
C      1  0.5666280000000  0.4998180000000  0.4926910000000 1.0
C      1  0.4760440000000  0.4891410000000  0.4366100000000 1.0
C      1  0.5083840000000  0.5502690000000  0.5498110000000 1.0
C      1  0.5027430000000  0.5702310000000  0.5106030000000 1.0
C      1  0.5772730000000  0.5513060000000  0.5068510000000 1.0
C      1  0.4812780000000  0.4845200000000  0.4873870000000 1.0
C      1  0.5016040000000  0.4414320000000  0.4730190000000 1.0
C      1  0.4402090000000  0.5162700000000  0.4856440000000 1.0
C      1  0.5667690000000  0.4819070000000  0.5332360000000 1.0
C      1  0.4997740000000  0.4628140000000  0.5649090000000 1.0
C      1  0.5544210000000  0.5630650000000  0.4707480000000 1.0
C      1  0.4364850000000  0.5007930000000  0.5345850000000 1.0
C      1  0.5774330000000  0.5462940000000  0.4785560000000 1.0
C      1  0.5370850000000  0.4994920000000  0.4972930000000 1.0
C      1  0.4664330000000  0.4941780000000  0.5715780000000 1.0
C      1  0.4869260000000  0.4361460000000  0.4504670000000 1.0
C      1  0.5526080000000  0.5656230000000  0.5089050000000 1.0
C      1  0.4613450000000  0.5584910000000  0.4903930000000 1.0
C      1  0.5272550000000  0.5074420000000  0.5636970000000 1.0
C      1  0.4895680000000  0.5682820000000  0.4843880000000 1.0
C      1  0.5075090000000  0.5654330000000  0.4616860000000 1.0
C      1  0.5331650000000  0.5231940000000  0.4495390000000 1.0
C      1  0.4321090000000  0.4470710000000  0.4983520000000 1.0
C      1  0.4996660000000  0.5065810000000  0.5263400000000 1.0
C      1  0.4229340000000  0.4706890000000  0.4862760000000 1.0
C      1  0.5826120000000  0.4950480000000  0.5154350000000 1.0
C      1  0.4535150000000  0.4553400000000  0.5449960000000 1.0
C      1  0.5416010000000  0.4694280000000  0.5357430000000 1.0
C      1  0.5604630000000  0.5144630000000  0.4463220000000 1.0
C      1  0.4552360000000  0.4354810000000  0.4848390000000 1.0
C      1  0.5754930000000  0.5174610000000  0.4702310000000 1.0
C      1  0.4975020000000  0.4752300000000  0.5136250000000 1.0
C      1  0.4682470000000  0.5146720000000  0.4265940000000 1.0
C      1  0.4360490000000  0.4453880000000  0.5257590000000 1.0
C      1  0.5323910000000  0.5534740000000  0.4546590000000 1.0
C      1  0.5216290000000  0.5101090000000  0.4736330000000 1.0
C      1  0.5043220000000  0.5265480000000  0.5655210000000 1.0
C      1  0.5271250000000  0.5521730000000  0.5157780000000 1.0
C      1  0.4829870000000  0.4486460000000  0.5448110000000 1.0
C      1  0.4787300000000  0.5344470000000  0.4574930000000 1.0
C      1  0.5324980000000  0.4175050000000  0.4938370000000 1.0
C      1  0.4975370000000  0.5249120000000  0.4795470000000 1.0
C      1  0.4815780000000  0.5129400000000  0.5009970000000 1.0
C      1  0.5213990000000  0.4801100000000  0.5542720000000 1.0
C      1  0.5240500000000  0.4347620000000  0.5147400000000 1.0
C      1  0.4831280000000  0.4424040000000  0.4963070000000 1.0
C      1  0.5284760000000  0.5194090000000  0.5210180000000 1.0
C      1  0.5273020000000  0.4663450000000  0.5095320000000 1.0
C      1  0.5176310000000  0.4197410000000  0.4706350000000 1.0
C      1  0.4460310000000  0.4825330000000  0.5540440000000 1.0
C      1  0.4948290000000  0.4320130000000  0.5222540000000 1.0
C      1  0.5458510000000  0.5185920000000  0.5454550000000 1.0
C      1  0.4364630000000  0.4900170000000  0.4711280000000 1.0
C      1  0.4793440000000  0.5152470000000  0.5573330000000 1.0
END
