TITL C-950531-5884-468 -1.06892663232768e-07 125000 -88.3021312369373 0 0 16 (C1) n - 1
REM
REM in /home/bkarasulu/work/CARBON/AIRSS/Generating-Clusters/EDIP-Nigel-Params/with-SteepDescent/Only-C1/SD-CG/HFTN-CG
REM
REM
REM
REM
REM
REM ./C.cell (11c1c37f851c82e70ff6c80c92926a4b)
REM
REM compiler GCC version 9.2.1 20190827 (Red Hat 9.2.1-1)
REM options -cpp -mtune=generic -march=x86-64 -g -O0 -fpre-include=/usr/include/finclude/math-vector-fortran.h
REM seed -84190142 -851743215 1438864948 1975769680 -1165270797 2060807440 1263670846 -959008016 1165091698 -1887012715 -746622537 527299405 -410115173 2143601333 274387431 -114903937 192793501 586330727 1824819879 1278298477 458132067 -1995433311 -1935232325 2020234966 -1537820139 -1041988898 1162730945 1460038982 1830735509 -1245294692 -16864464 1086068305 -1755211942
REM
CELL 1.54180   50.00000   50.00000   50.00000   90.00000   90.00000   90.00000
LATT -1
SFAC C  
C      1  0.4512710000000  0.4767280000000  0.5261470000000 1.0
C      1  0.4615440000000  0.4909370000000  0.5026570000000 1.0
C      1  0.4592630000000  0.5293490000000  0.5078830000000 1.0
C      1  0.4880330000000  0.5249600000000  0.4751480000000 1.0
C      1  0.4591850000000  0.5215630000000  0.4799700000000 1.0
C      1  0.5082400000000  0.4848680000000  0.4898470000000 1.0
C      1  0.5615240000000  0.5099250000000  0.4984820000000 1.0
C      1  0.4648450000000  0.4731660000000  0.5497130000000 1.0
C      1  0.5488650000000  0.4933000000000  0.5169370000000 1.0
C      1  0.4880560000000  0.5249200000000  0.5125310000000 1.0
C      1  0.4899050000000  0.4948760000000  0.5116320000000 1.0
C      1  0.5316410000000  0.5079080000000  0.4596750000000 1.0
C      1  0.5565500000000  0.5042470000000  0.4710010000000 1.0
C      1  0.4882180000000  0.4802450000000  0.5372050000000 1.0
C      1  0.5374550000000  0.4800280000000  0.4937120000000 1.0
C      1  0.5054040000000  0.5029800000000  0.4674600000000 1.0
END
