TITL C-950523-3027-621 -2.59980321013465e-07 125000 -450.595685436337 0 0 74 (C1) n - 1
REM
REM in /home/bkarasulu/work/CARBON/AIRSS/Generating-Clusters/EDIP-Nigel-Params/with-SteepDescent/Only-C1/SD-CG/HFTN-CG
REM
REM
REM
REM
REM
REM ./C.cell (11c1c37f851c82e70ff6c80c92926a4b)
REM
REM compiler GCC version 9.2.1 20190827 (Red Hat 9.2.1-1)
REM options -cpp -mtune=generic -march=x86-64 -g -O0 -fpre-include=/usr/include/finclude/math-vector-fortran.h
REM seed 632259621 463314837 1016186168 85960523 280366379 -220902034 -1169987283 1175974597 771924478 -224070959 -481645686 132438944 1170940616 992332434 2063508241 -564214106 2115347432 2029562809 1976649032 1151127323 -1337950356 1106206515 -1282155358 -374688342 212451907 1294544030 1468840348 1031108511 -277929133 -1189022761 1025094314 -438401195 1049145433
REM
CELL 1.54180   50.00000   50.00000   50.00000   90.00000   90.00000   90.00000
LATT -1
SFAC C  
C      1  0.4694740000000  0.5290570000000  0.4868820000000 1.0
C      1  0.4859690000000  0.5277400000000  0.4406320000000 1.0
C      1  0.4222030000000  0.4640310000000  0.4983750000000 1.0
C      1  0.4533500000000  0.4457700000000  0.4613060000000 1.0
C      1  0.4980790000000  0.4304990000000  0.4763060000000 1.0
C      1  0.5127120000000  0.5637070000000  0.4681330000000 1.0
C      1  0.5699980000000  0.4618130000000  0.5109830000000 1.0
C      1  0.4634620000000  0.5603880000000  0.4604290000000 1.0
C      1  0.5223110000000  0.4347800000000  0.4897610000000 1.0
C      1  0.5335710000000  0.4975450000000  0.4941370000000 1.0
C      1  0.5378490000000  0.5060500000000  0.5424070000000 1.0
C      1  0.4999790000000  0.5219340000000  0.4175330000000 1.0
C      1  0.5251330000000  0.4880610000000  0.5808650000000 1.0
C      1  0.5213350000000  0.4500310000000  0.5162240000000 1.0
C      1  0.4360020000000  0.4837900000000  0.5472970000000 1.0
C      1  0.4923410000000  0.5314300000000  0.5687670000000 1.0
C      1  0.5130900000000  0.5204140000000  0.4904430000000 1.0
C      1  0.5292340000000  0.5451720000000  0.4847030000000 1.0
C      1  0.4196540000000  0.5099110000000  0.5059660000000 1.0
C      1  0.5216730000000  0.5529610000000  0.5331540000000 1.0
C      1  0.5406760000000  0.5537020000000  0.5114500000000 1.0
C      1  0.5616430000000  0.4652200000000  0.4834180000000 1.0
C      1  0.4584460000000  0.5063000000000  0.5064830000000 1.0
C      1  0.4810640000000  0.4847420000000  0.4673220000000 1.0
C      1  0.4961030000000  0.4743630000000  0.4221460000000 1.0
C      1  0.5508600000000  0.4539040000000  0.5561190000000 1.0
C      1  0.5539140000000  0.5066500000000  0.5170900000000 1.0
C      1  0.4585460000000  0.4676190000000  0.5583900000000 1.0
C      1  0.5087330000000  0.5329110000000  0.5917630000000 1.0
C      1  0.4605680000000  0.5247770000000  0.4302260000000 1.0
C      1  0.5089860000000  0.5120340000000  0.5271020000000 1.0
C      1  0.5125960000000  0.4782970000000  0.5080610000000 1.0
C      1  0.5343390000000  0.5473760000000  0.4406720000000 1.0
C      1  0.5637390000000  0.5345890000000  0.5132230000000 1.0
C      1  0.5901490000000  0.5037350000000  0.4915870000000 1.0
C      1  0.4482670000000  0.5390970000000  0.5333590000000 1.0
C      1  0.5002400000000  0.4423670000000  0.5351170000000 1.0
C      1  0.4403860000000  0.5194410000000  0.4494140000000 1.0
C      1  0.4736250000000  0.4530010000000  0.5359860000000 1.0
C      1  0.5365670000000  0.4996880000000  0.4365020000000 1.0
C      1  0.4498250000000  0.5126470000000  0.5486280000000 1.0
C      1  0.5458950000000  0.4809090000000  0.5612020000000 1.0
C      1  0.5221170000000  0.4747610000000  0.4324900000000 1.0
C      1  0.4897950000000  0.5148620000000  0.4684790000000 1.0
C      1  0.5834280000000  0.5320200000000  0.4925530000000 1.0
C      1  0.5447830000000  0.5276680000000  0.5612820000000 1.0
C      1  0.4693230000000  0.4737780000000  0.4274790000000 1.0
C      1  0.4417020000000  0.4453020000000  0.4881380000000 1.0
C      1  0.4460850000000  0.5398030000000  0.4697490000000 1.0
C      1  0.4823880000000  0.4472810000000  0.4605090000000 1.0
C      1  0.5796560000000  0.4892590000000  0.5170280000000 1.0
C      1  0.4791890000000  0.5656680000000  0.5039810000000 1.0
C      1  0.5312110000000  0.5175700000000  0.5848400000000 1.0
C      1  0.4852820000000  0.5690450000000  0.4766060000000 1.0
C      1  0.5324970000000  0.4527330000000  0.4458260000000 1.0
C      1  0.4815840000000  0.4960710000000  0.5332310000000 1.0
C      1  0.5416340000000  0.4473230000000  0.4715840000000 1.0
C      1  0.4311270000000  0.5349580000000  0.5110620000000 1.0
C      1  0.5015770000000  0.4835530000000  0.5641960000000 1.0
C      1  0.4684190000000  0.5139650000000  0.5714350000000 1.0
C      1  0.5486250000000  0.4510160000000  0.5285530000000 1.0
C      1  0.4229750000000  0.4703270000000  0.5258980000000 1.0
C      1  0.4867920000000  0.4749440000000  0.4946500000000 1.0
C      1  0.4756750000000  0.4853730000000  0.5754040000000 1.0
C      1  0.5514630000000  0.5070180000000  0.4609630000000 1.0
C      1  0.4959630000000  0.5492900000000  0.5452890000000 1.0
C      1  0.4235390000000  0.4897570000000  0.4856300000000 1.0
C      1  0.4431650000000  0.4930870000000  0.4631220000000 1.0
C      1  0.4642020000000  0.4661650000000  0.5110440000000 1.0
C      1  0.5271030000000  0.5242970000000  0.4242480000000 1.0
C      1  0.4749440000000  0.5486330000000  0.5257880000000 1.0
C      1  0.4471100000000  0.4695430000000  0.4448270000000 1.0
C      1  0.5501210000000  0.5372490000000  0.4637350000000 1.0
C      1  0.5739410000000  0.4892340000000  0.4708170000000 1.0
END
