TITL C-950527-2551-432 5.00410679184869e-07 125000 -610.308062144437 0 0 99 (C1) n - 1
REM
REM in /home/bkarasulu/work/CARBON/AIRSS/Generating-Clusters/EDIP-Nigel-Params/with-SteepDescent/Only-C1/SD-CG/HFTN-CG
REM
REM
REM
REM
REM
REM ./C.cell (11c1c37f851c82e70ff6c80c92926a4b)
REM
REM compiler GCC version 9.2.1 20190827 (Red Hat 9.2.1-1)
REM options -cpp -mtune=generic -march=x86-64 -g -O0 -fpre-include=/usr/include/finclude/math-vector-fortran.h
REM seed -1381883445 -2062963972 -1414917277 747564315 1207288481 -276649658 1071104971 -2052391266 458929824 1560792685 -853264045 1353832595 1169014009 -151038790 2002589248 -288594174 -655803524 -959611124 -14533287 32333035 -26148443 1276171869 -1979531846 416890326 504358620 -1574467271 -1964272536 266288693 403179185 111682518 1610949011 1195489694 -2095388750
REM
CELL 1.54180   50.00000   50.00000   50.00000   90.00000   90.00000   90.00000
LATT -1
SFAC C  
C      1  0.4600170000000  0.5720950000000  0.4881980000000 1.0
C      1  0.5595870000000  0.4585380000000  0.5639970000000 1.0
C      1  0.4815910000000  0.4667980000000  0.4957530000000 1.0
C      1  0.5064510000000  0.4819440000000  0.5397980000000 1.0
C      1  0.5698960000000  0.5285210000000  0.5275370000000 1.0
C      1  0.4424310000000  0.4734990000000  0.4531310000000 1.0
C      1  0.4556680000000  0.4994840000000  0.4125770000000 1.0
C      1  0.4347940000000  0.4853020000000  0.5646770000000 1.0
C      1  0.5809940000000  0.5219460000000  0.5009080000000 1.0
C      1  0.5589150000000  0.4632240000000  0.5344570000000 1.0
C      1  0.5547470000000  0.5608040000000  0.4722800000000 1.0
C      1  0.5058580000000  0.5068440000000  0.4126520000000 1.0
C      1  0.4468900000000  0.4601820000000  0.5514410000000 1.0
C      1  0.4289390000000  0.4869080000000  0.5209770000000 1.0
C      1  0.5305580000000  0.4261280000000  0.5240930000000 1.0
C      1  0.4577180000000  0.4966050000000  0.5811750000000 1.0
C      1  0.5296340000000  0.4719830000000  0.5845890000000 1.0
C      1  0.4447950000000  0.4412990000000  0.5270500000000 1.0
C      1  0.4699010000000  0.5761410000000  0.5488600000000 1.0
C      1  0.5525850000000  0.4716320000000  0.4239410000000 1.0
C      1  0.5352190000000  0.4796880000000  0.4979560000000 1.0
C      1  0.5041940000000  0.5505110000000  0.5806650000000 1.0
C      1  0.4857220000000  0.5803760000000  0.4992470000000 1.0
C      1  0.4699460000000  0.4511320000000  0.5675260000000 1.0
C      1  0.4848560000000  0.4204470000000  0.5024020000000 1.0
C      1  0.5122180000000  0.4804310000000  0.4566260000000 1.0
C      1  0.4796910000000  0.5254090000000  0.4829870000000 1.0
C      1  0.5170670000000  0.4372690000000  0.4481340000000 1.0
C      1  0.5563280000000  0.4395820000000  0.5157990000000 1.0
C      1  0.5021970000000  0.5103950000000  0.4986990000000 1.0
C      1  0.5015020000000  0.4834100000000  0.3939550000000 1.0
C      1  0.5162380000000  0.4594540000000  0.4015480000000 1.0
C      1  0.5504020000000  0.4534420000000  0.4882440000000 1.0
C      1  0.4970970000000  0.5278780000000  0.4569490000000 1.0
C      1  0.5253610000000  0.5490540000000  0.4236320000000 1.0
C      1  0.4813620000000  0.4655800000000  0.4292320000000 1.0
C      1  0.4249360000000  0.5172130000000  0.4797280000000 1.0
C      1  0.5431120000000  0.5215130000000  0.4440430000000 1.0
C      1  0.4566950000000  0.5432320000000  0.4969160000000 1.0
C      1  0.4421680000000  0.4458030000000  0.4964390000000 1.0
C      1  0.5817390000000  0.4939580000000  0.4571270000000 1.0
C      1  0.5337440000000  0.4777600000000  0.5270810000000 1.0
C      1  0.5538010000000  0.4971660000000  0.5676420000000 1.0
C      1  0.5310830000000  0.5190560000000  0.4943390000000 1.0
C      1  0.4617370000000  0.5705930000000  0.4583110000000 1.0
C      1  0.5175200000000  0.4369260000000  0.5490110000000 1.0
C      1  0.5411640000000  0.4782200000000  0.4501830000000 1.0
C      1  0.5051580000000  0.5709830000000  0.4796680000000 1.0
C      1  0.5328720000000  0.5191240000000  0.5683160000000 1.0
C      1  0.4895340000000  0.5734440000000  0.5272710000000 1.0
C      1  0.4599740000000  0.4879620000000  0.5207080000000 1.0
C      1  0.4207450000000  0.5050710000000  0.5438650000000 1.0
C      1  0.4889130000000  0.4310140000000  0.5543800000000 1.0
C      1  0.5703420000000  0.5359120000000  0.4760900000000 1.0
C      1  0.4362770000000  0.5222140000000  0.4530420000000 1.0
C      1  0.4823420000000  0.4643390000000  0.5271980000000 1.0
C      1  0.4797180000000  0.4743970000000  0.5834780000000 1.0
C      1  0.4617830000000  0.5392340000000  0.5259090000000 1.0
C      1  0.4720900000000  0.4262750000000  0.5294180000000 1.0
C      1  0.5751310000000  0.4765070000000  0.4788820000000 1.0
C      1  0.5276890000000  0.4356780000000  0.4750540000000 1.0
C      1  0.4719450000000  0.5133980000000  0.5352380000000 1.0
C      1  0.5067300000000  0.4820640000000  0.4860840000000 1.0
C      1  0.4667540000000  0.4312380000000  0.4578200000000 1.0
C      1  0.4956830000000  0.4999100000000  0.4409650000000 1.0
C      1  0.4445850000000  0.5653060000000  0.5572720000000 1.0
C      1  0.5334060000000  0.5729340000000  0.4874680000000 1.0
C      1  0.5140120000000  0.4249200000000  0.4994770000000 1.0
C      1  0.5413060000000  0.5351060000000  0.5199350000000 1.0
C      1  0.5038220000000  0.4466470000000  0.4241870000000 1.0
C      1  0.4301440000000  0.4681360000000  0.4792740000000 1.0
C      1  0.5167060000000  0.5740640000000  0.5356200000000 1.0
C      1  0.5212570000000  0.5309260000000  0.5428320000000 1.0
C      1  0.4374580000000  0.5402810000000  0.5431210000000 1.0
C      1  0.5726890000000  0.5201980000000  0.4513910000000 1.0
C      1  0.5313590000000  0.5223550000000  0.4131380000000 1.0
C      1  0.5005760000000  0.5103250000000  0.5296130000000 1.0
C      1  0.4258990000000  0.5398600000000  0.4972280000000 1.0
C      1  0.4591410000000  0.4530040000000  0.4426010000000 1.0
C      1  0.5058400000000  0.4840080000000  0.5713320000000 1.0
C      1  0.4743790000000  0.5475990000000  0.5738100000000 1.0
C      1  0.5268430000000  0.5340460000000  0.4678090000000 1.0
C      1  0.4693000000000  0.4393390000000  0.4852830000000 1.0
C      1  0.4146970000000  0.5378100000000  0.5241600000000 1.0
C      1  0.5212360000000  0.5645950000000  0.5620100000000 1.0
C      1  0.5749640000000  0.5050260000000  0.5464480000000 1.0
C      1  0.5381850000000  0.5723000000000  0.5160000000000 1.0
C      1  0.4474300000000  0.5478320000000  0.4480110000000 1.0
C      1  0.4697290000000  0.5186050000000  0.5648010000000 1.0
C      1  0.5181040000000  0.5277680000000  0.5911880000000 1.0
C      1  0.4429000000000  0.4985760000000  0.4379190000000 1.0
C      1  0.5580990000000  0.4543320000000  0.4444380000000 1.0
C      1  0.5344540000000  0.4441430000000  0.5719670000000 1.0
C      1  0.4987400000000  0.5498660000000  0.4355360000000 1.0
C      1  0.5817430000000  0.4819960000000  0.5288850000000 1.0
C      1  0.4726480000000  0.4785560000000  0.4036200000000 1.0
C      1  0.4186390000000  0.4910430000000  0.4932170000000 1.0
C      1  0.5853290000000  0.4923650000000  0.5013960000000 1.0
C      1  0.4916310000000  0.5719970000000  0.4531110000000 1.0
END
