TITL C-951347-9520-533 1.36356018552415e-06 125000 -456.652553787424 0 0 75 (C1) n - 1
REM
REM in /home/bkarasulu/work/CARBON/AIRSS/Generating-Clusters/EDIP-Nigel-Params/with-SteepDescent/Only-C1/SD-CG/HFTN-CG
REM
REM
REM
REM
REM
REM ./C.cell (11c1c37f851c82e70ff6c80c92926a4b)
REM
REM compiler GCC version 9.2.1 20190827 (Red Hat 9.2.1-1)
REM options -cpp -mtune=generic -march=x86-64 -g -O0 -fpre-include=/usr/include/finclude/math-vector-fortran.h
REM seed -1237447359 -1561980056 1655126436 1312287835 -681168241 102700203 1139470076 -2046059447 -627088997 209937095 -382329559 1970767179 376832053 -1794049360 1010517050 -429302959 -1494920738 1148349654 -887132625 1049559854 -438889742 174345698 714075924 -415905235 -1900800523 -1183421501 -1462497743 -982539329 -38397783 2002853844 -431213361 -1829893192 1171167926
REM
CELL 1.54180   50.00000   50.00000   50.00000   90.00000   90.00000   90.00000
LATT -1
SFAC C  
C      1  0.5157540000000  0.5140920000000  0.5114760000000 1.0
C      1  0.5721210000000  0.4784160000000  0.4937930000000 1.0
C      1  0.4731810000000  0.5807630000000  0.5174690000000 1.0
C      1  0.4875790000000  0.4665840000000  0.5044110000000 1.0
C      1  0.4558120000000  0.4537920000000  0.5641210000000 1.0
C      1  0.4994590000000  0.5096820000000  0.4864880000000 1.0
C      1  0.5062820000000  0.4742620000000  0.4247660000000 1.0
C      1  0.5826550000000  0.5142100000000  0.5257590000000 1.0
C      1  0.5741100000000  0.5070710000000  0.5000310000000 1.0
C      1  0.5484080000000  0.4812120000000  0.5360520000000 1.0
C      1  0.5167660000000  0.4486380000000  0.4287230000000 1.0
C      1  0.4459580000000  0.5239060000000  0.5684530000000 1.0
C      1  0.5210840000000  0.4961290000000  0.4374490000000 1.0
C      1  0.4854540000000  0.5538390000000  0.5649780000000 1.0
C      1  0.4548440000000  0.5707770000000  0.4991490000000 1.0
C      1  0.5542340000000  0.4698040000000  0.4712340000000 1.0
C      1  0.4439000000000  0.5440800000000  0.5037420000000 1.0
C      1  0.5608620000000  0.5186280000000  0.4534690000000 1.0
C      1  0.4681110000000  0.4739980000000  0.5492850000000 1.0
C      1  0.4629970000000  0.4552340000000  0.4417590000000 1.0
C      1  0.4510360000000  0.5640580000000  0.4511380000000 1.0
C      1  0.4346920000000  0.4963780000000  0.4817300000000 1.0
C      1  0.5383380000000  0.5321220000000  0.4984930000000 1.0
C      1  0.5764270000000  0.5272200000000  0.4785610000000 1.0
C      1  0.4445990000000  0.4652780000000  0.4618530000000 1.0
C      1  0.5456500000000  0.5295860000000  0.5520100000000 1.0
C      1  0.5174600000000  0.5251600000000  0.4310960000000 1.0
C      1  0.4942030000000  0.4192530000000  0.4913970000000 1.0
C      1  0.5082320000000  0.4132010000000  0.5149750000000 1.0
C      1  0.4994520000000  0.5734410000000  0.5239160000000 1.0
C      1  0.4452790000000  0.4538840000000  0.4885710000000 1.0
C      1  0.4766060000000  0.4751920000000  0.4251370000000 1.0
C      1  0.5455840000000  0.5600600000000  0.5087780000000 1.0
C      1  0.4995730000000  0.5039220000000  0.5572100000000 1.0
C      1  0.4765660000000  0.4943300000000  0.4950880000000 1.0
C      1  0.5077240000000  0.5615970000000  0.4763110000000 1.0
C      1  0.4336520000000  0.5111170000000  0.5453680000000 1.0
C      1  0.5280550000000  0.4276820000000  0.5291510000000 1.0
C      1  0.5654030000000  0.4626670000000  0.5186000000000 1.0
C      1  0.4507020000000  0.4913650000000  0.5311630000000 1.0
C      1  0.5468100000000  0.4920450000000  0.4520160000000 1.0
C      1  0.4897300000000  0.5656360000000  0.4523260000000 1.0
C      1  0.5682300000000  0.5547930000000  0.4885230000000 1.0
C      1  0.4908970000000  0.5397120000000  0.4354010000000 1.0
C      1  0.5161950000000  0.4694980000000  0.4948050000000 1.0
C      1  0.4364870000000  0.4780450000000  0.5049610000000 1.0
C      1  0.5392450000000  0.5381600000000  0.4471610000000 1.0
C      1  0.4675680000000  0.5225430000000  0.4387600000000 1.0
C      1  0.4627760000000  0.4290700000000  0.5237590000000 1.0
C      1  0.5014960000000  0.5498220000000  0.5429330000000 1.0
C      1  0.5232330000000  0.4828740000000  0.5795410000000 1.0
C      1  0.5256070000000  0.5481460000000  0.5570500000000 1.0
C      1  0.5243280000000  0.4868670000000  0.5185680000000 1.0
C      1  0.4945610000000  0.4676130000000  0.5350580000000 1.0
C      1  0.4955120000000  0.5210130000000  0.5330320000000 1.0
C      1  0.4598640000000  0.5792380000000  0.4726350000000 1.0
C      1  0.5612610000000  0.5080230000000  0.5425810000000 1.0
C      1  0.5223300000000  0.5370780000000  0.4729620000000 1.0
C      1  0.4642580000000  0.4999060000000  0.4234840000000 1.0
C      1  0.5192040000000  0.5736020000000  0.5015380000000 1.0
C      1  0.5488290000000  0.4389040000000  0.5095780000000 1.0
C      1  0.4388130000000  0.5256860000000  0.4803840000000 1.0
C      1  0.5345480000000  0.4490570000000  0.4844880000000 1.0
C      1  0.5037390000000  0.4304790000000  0.4452780000000 1.0
C      1  0.4548820000000  0.4316840000000  0.5491400000000 1.0
C      1  0.4692690000000  0.5115800000000  0.5188270000000 1.0
C      1  0.5163590000000  0.5098600000000  0.5787820000000 1.0
C      1  0.4375210000000  0.5389370000000  0.5329260000000 1.0
C      1  0.4577950000000  0.5493350000000  0.5642960000000 1.0
C      1  0.5364640000000  0.4661580000000  0.5598750000000 1.0
C      1  0.5147700000000  0.4277630000000  0.4719550000000 1.0
C      1  0.4715560000000  0.4403390000000  0.4989430000000 1.0
C      1  0.5159210000000  0.4478700000000  0.5481430000000 1.0
C      1  0.4454410000000  0.5357830000000  0.4528640000000 1.0
C      1  0.4757010000000  0.4302480000000  0.4442700000000 1.0
END
