TITL C-950535-5962-47 -2.40941012667936e-06 125000 -348.200437595095 0 0 58 (C1) n - 1
REM
REM in /home/bkarasulu/work/CARBON/AIRSS/Generating-Clusters/EDIP-Nigel-Params/with-SteepDescent/Only-C1/SD-CG/HFTN-CG
REM
REM
REM
REM
REM
REM ./C.cell (11c1c37f851c82e70ff6c80c92926a4b)
REM
REM compiler GCC version 9.2.1 20190827 (Red Hat 9.2.1-1)
REM options -cpp -mtune=generic -march=x86-64 -g -O0 -fpre-include=/usr/include/finclude/math-vector-fortran.h
REM seed -1904319289 -1361947365 1625382599 -34339434 -1565870196 -1129283084 1700421705 -1703634171 1120393451 170627812 -560773226 -957181717 -94941767 514864614 953647368 761682263 -1926619989 1845961834 453547281 -857165612 1357501090 1930461210 -1031965630 489674035 1052268502 2090388209 -799377398 906765406 -27874387 280538044 -552241871 1565498651 1758702917
REM
CELL 1.54180   50.00000   50.00000   50.00000   90.00000   90.00000   90.00000
LATT -1
SFAC C  
C      1  0.4853580000000  0.5614050000000  0.5252510000000 1.0
C      1  0.5078780000000  0.4786350000000  0.4299190000000 1.0
C      1  0.5020970000000  0.4692260000000  0.5554900000000 1.0
C      1  0.4624270000000  0.5029630000000  0.5453940000000 1.0
C      1  0.5098130000000  0.4358700000000  0.5384560000000 1.0
C      1  0.4721630000000  0.4746930000000  0.5520870000000 1.0
C      1  0.4504120000000  0.5339970000000  0.4919440000000 1.0
C      1  0.4665890000000  0.5216050000000  0.5667030000000 1.0
C      1  0.5711470000000  0.5201400000000  0.4884290000000 1.0
C      1  0.4998900000000  0.5323300000000  0.4374350000000 1.0
C      1  0.4413800000000  0.5514740000000  0.5120260000000 1.0
C      1  0.4706240000000  0.4518790000000  0.5080280000000 1.0
C      1  0.4468780000000  0.4826920000000  0.4705210000000 1.0
C      1  0.4613470000000  0.5474270000000  0.4668280000000 1.0
C      1  0.5442130000000  0.4579590000000  0.4637400000000 1.0
C      1  0.5663620000000  0.4755740000000  0.4742940000000 1.0
C      1  0.5176860000000  0.4890320000000  0.5078580000000 1.0
C      1  0.4657720000000  0.4974200000000  0.4521790000000 1.0
C      1  0.4825050000000  0.5177490000000  0.5285010000000 1.0
C      1  0.5404670000000  0.5602490000000  0.4839430000000 1.0
C      1  0.4580250000000  0.5657430000000  0.5280630000000 1.0
C      1  0.4944310000000  0.5222190000000  0.4825950000000 1.0
C      1  0.4824820000000  0.4775700000000  0.4959440000000 1.0
C      1  0.5341860000000  0.5314640000000  0.5294570000000 1.0
C      1  0.4323060000000  0.4935860000000  0.4939150000000 1.0
C      1  0.4728470000000  0.5109760000000  0.5009720000000 1.0
C      1  0.5107390000000  0.5139410000000  0.5770420000000 1.0
C      1  0.4792930000000  0.5248440000000  0.4565110000000 1.0
C      1  0.4375220000000  0.4852200000000  0.5216460000000 1.0
C      1  0.5392990000000  0.5086080000000  0.4514080000000 1.0
C      1  0.5072360000000  0.4308710000000  0.4887770000000 1.0
C      1  0.4540270000000  0.4625080000000  0.5307340000000 1.0
C      1  0.4429260000000  0.4551730000000  0.4670450000000 1.0
C      1  0.4256680000000  0.5210880000000  0.4898380000000 1.0
C      1  0.4928730000000  0.4320030000000  0.5152610000000 1.0
C      1  0.4869160000000  0.4378510000000  0.4682280000000 1.0
C      1  0.5391890000000  0.5493040000000  0.5084240000000 1.0
C      1  0.5359000000000  0.5552610000000  0.4580490000000 1.0
C      1  0.4788370000000  0.5670580000000  0.4768940000000 1.0
C      1  0.5564950000000  0.5128660000000  0.5367810000000 1.0
C      1  0.5711130000000  0.5038360000000  0.5121530000000 1.0
C      1  0.5151450000000  0.5003290000000  0.4794610000000 1.0
C      1  0.4952450000000  0.4683420000000  0.4677580000000 1.0
C      1  0.5187260000000  0.4955590000000  0.5562710000000 1.0
C      1  0.5658460000000  0.4755840000000  0.5047700000000 1.0
C      1  0.4920130000000  0.5333300000000  0.5694230000000 1.0
C      1  0.4599160000000  0.4388750000000  0.4818130000000 1.0
C      1  0.5644790000000  0.5041790000000  0.4656580000000 1.0
C      1  0.4946920000000  0.5572530000000  0.4979610000000 1.0
C      1  0.5299800000000  0.4667690000000  0.4409800000000 1.0
C      1  0.5274990000000  0.5336660000000  0.4428980000000 1.0
C      1  0.5479840000000  0.4925540000000  0.5553830000000 1.0
C      1  0.5125220000000  0.5092510000000  0.5301420000000 1.0
C      1  0.5298890000000  0.4496000000000  0.4879900000000 1.0
C      1  0.4988770000000  0.5510360000000  0.5480800000000 1.0
C      1  0.5375510000000  0.4661330000000  0.5113240000000 1.0
C      1  0.4801960000000  0.4803010000000  0.4343020000000 1.0
C      1  0.5321200000000  0.4529290000000  0.5370270000000 1.0
END
