TITL C-951345-2650-449 -2.36920959592461e-06 125000 -1047.05186067941 0 0 166 (C1) n - 1
REM
REM in /home/bkarasulu/work/CARBON/AIRSS/Generating-Clusters/EDIP-Nigel-Params/with-SteepDescent/Only-C1/SD-CG/HFTN-CG
REM
REM
REM
REM
REM
REM ./C.cell (11c1c37f851c82e70ff6c80c92926a4b)
REM
REM compiler GCC version 9.2.1 20190827 (Red Hat 9.2.1-1)
REM options -cpp -mtune=generic -march=x86-64 -g -O0 -fpre-include=/usr/include/finclude/math-vector-fortran.h
REM seed -308369245 1269680705 -1748220708 1862461074 847920427 -1905629572 878588680 221751391 1377350107 -233993467 -193597468 -1910108696 -878002342 513128032 -1663734727 -1421686452 -1125115397 1679151780 237725346 1822048054 1444460783 -1898367525 921285105 -1902821207 -1182693692 966583945 -124180077 -586395212 -1980176600 1881721292 -2134247760 1614279841 1461871102
REM
CELL 1.54180   50.00000   50.00000   50.00000   90.00000   90.00000   90.00000
LATT -1
SFAC C  
C      1  0.4356760000000  0.5096720000000  0.5749710000000 1.0
C      1  0.4526580000000  0.5854060000000  0.4472520000000 1.0
C      1  0.5812470000000  0.5318570000000  0.5791500000000 1.0
C      1  0.4073440000000  0.4385060000000  0.4875650000000 1.0
C      1  0.5091230000000  0.4949000000000  0.4333570000000 1.0
C      1  0.4488240000000  0.5028070000000  0.6001880000000 1.0
C      1  0.5805120000000  0.4336240000000  0.4695140000000 1.0
C      1  0.4112890000000  0.4515320000000  0.5347370000000 1.0
C      1  0.4822840000000  0.4572850000000  0.4001980000000 1.0
C      1  0.4523680000000  0.4806640000000  0.5373740000000 1.0
C      1  0.4974630000000  0.4249490000000  0.4985290000000 1.0
C      1  0.4968760000000  0.5452150000000  0.4153750000000 1.0
C      1  0.4492730000000  0.5893710000000  0.5187540000000 1.0
C      1  0.4398040000000  0.4687220000000  0.4898920000000 1.0
C      1  0.5843980000000  0.5423980000000  0.5312120000000 1.0
C      1  0.5509740000000  0.4107210000000  0.5029690000000 1.0
C      1  0.5391830000000  0.5093770000000  0.4664780000000 1.0
C      1  0.6020980000000  0.5508290000000  0.4841480000000 1.0
C      1  0.4940790000000  0.5566800000000  0.4985470000000 1.0
C      1  0.4800870000000  0.5199100000000  0.4106440000000 1.0
C      1  0.5770750000000  0.5529300000000  0.5579340000000 1.0
C      1  0.5762090000000  0.5284360000000  0.4352020000000 1.0
C      1  0.4895320000000  0.4511570000000  0.5966010000000 1.0
C      1  0.5222810000000  0.4976290000000  0.6100500000000 1.0
C      1  0.4534540000000  0.5796260000000  0.5651420000000 1.0
C      1  0.5701540000000  0.5549180000000  0.4461500000000 1.0
C      1  0.6039940000000  0.4585320000000  0.5139170000000 1.0
C      1  0.5278020000000  0.5175910000000  0.4417690000000 1.0
C      1  0.4210310000000  0.5545820000000  0.5352720000000 1.0
C      1  0.5229790000000  0.4279230000000  0.5688360000000 1.0
C      1  0.5570000000000  0.5171360000000  0.5869970000000 1.0
C      1  0.4398950000000  0.4539930000000  0.4226780000000 1.0
C      1  0.5813670000000  0.4433090000000  0.5204440000000 1.0
C      1  0.4648560000000  0.4782610000000  0.4495280000000 1.0
C      1  0.4709140000000  0.4499350000000  0.5745950000000 1.0
C      1  0.4534360000000  0.5535430000000  0.5781440000000 1.0
C      1  0.5008690000000  0.4777610000000  0.5235840000000 1.0
C      1  0.3999820000000  0.5130670000000  0.5451800000000 1.0
C      1  0.5740090000000  0.5897480000000  0.4804610000000 1.0
C      1  0.4243800000000  0.4252800000000  0.5309790000000 1.0
C      1  0.4831280000000  0.4541150000000  0.4557130000000 1.0
C      1  0.4525420000000  0.3999820000000  0.5079270000000 1.0
C      1  0.4804530000000  0.5877230000000  0.4364560000000 1.0
C      1  0.4956660000000  0.5158320000000  0.4815250000000 1.0
C      1  0.5982290000000  0.5619030000000  0.5120260000000 1.0
C      1  0.5456210000000  0.4976780000000  0.4027930000000 1.0
C      1  0.4208070000000  0.5397360000000  0.5094980000000 1.0
C      1  0.5407580000000  0.5475260000000  0.4080520000000 1.0
C      1  0.5017360000000  0.4138530000000  0.4543250000000 1.0
C      1  0.4776960000000  0.5949910000000  0.5263220000000 1.0
C      1  0.4683450000000  0.5196780000000  0.5207730000000 1.0
C      1  0.4496620000000  0.4739310000000  0.6054450000000 1.0
C      1  0.5839290000000  0.5106290000000  0.4574690000000 1.0
C      1  0.5119050000000  0.4633450000000  0.4483600000000 1.0
C      1  0.4841140000000  0.4363730000000  0.4210420000000 1.0
C      1  0.6001320000000  0.5123210000000  0.5713330000000 1.0
C      1  0.4354110000000  0.5791230000000  0.5415190000000 1.0
C      1  0.4232690000000  0.4658190000000  0.4436490000000 1.0
C      1  0.5175960000000  0.4513220000000  0.5875190000000 1.0
C      1  0.4586800000000  0.5062120000000  0.5530230000000 1.0
C      1  0.5293990000000  0.5806130000000  0.5511920000000 1.0
C      1  0.4604450000000  0.3995430000000  0.5353720000000 1.0
C      1  0.5203810000000  0.4038450000000  0.4342190000000 1.0
C      1  0.5616400000000  0.4920420000000  0.4642790000000 1.0
C      1  0.5282460000000  0.5861190000000  0.5223630000000 1.0
C      1  0.4530280000000  0.4368370000000  0.5301260000000 1.0
C      1  0.5384900000000  0.4028120000000  0.4798010000000 1.0
C      1  0.5848670000000  0.5262790000000  0.4846530000000 1.0
C      1  0.4423790000000  0.4919520000000  0.3949800000000 1.0
C      1  0.4771360000000  0.5136290000000  0.5961000000000 1.0
C      1  0.5816130000000  0.5871990000000  0.5094400000000 1.0
C      1  0.4128440000000  0.4930100000000  0.5640050000000 1.0
C      1  0.4434570000000  0.4575200000000  0.5792170000000 1.0
C      1  0.5154760000000  0.4944160000000  0.4030440000000 1.0
C      1  0.4526920000000  0.4219120000000  0.4573510000000 1.0
C      1  0.4502500000000  0.5980420000000  0.4726230000000 1.0
C      1  0.5364050000000  0.5236560000000  0.6066190000000 1.0
C      1  0.5164370000000  0.5486530000000  0.3944500000000 1.0
C      1  0.4050830000000  0.5138680000000  0.5150300000000 1.0
C      1  0.5549780000000  0.5710340000000  0.5159250000000 1.0
C      1  0.4251800000000  0.4956040000000  0.4417860000000 1.0
C      1  0.5512620000000  0.5043360000000  0.5262430000000 1.0
C      1  0.4479170000000  0.5295520000000  0.5023980000000 1.0
C      1  0.5713580000000  0.4601860000000  0.4352970000000 1.0
C      1  0.5536580000000  0.5688240000000  0.5588650000000 1.0
C      1  0.5476550000000  0.4108220000000  0.4369390000000 1.0
C      1  0.5474160000000  0.5757650000000  0.4779740000000 1.0
C      1  0.5224320000000  0.5477190000000  0.6051310000000 1.0
C      1  0.4949110000000  0.4138120000000  0.5649900000000 1.0
C      1  0.4498670000000  0.5548820000000  0.4152150000000 1.0
C      1  0.4790010000000  0.4706410000000  0.6163560000000 1.0
C      1  0.4818170000000  0.4482800000000  0.4876260000000 1.0
C      1  0.5551650000000  0.4703530000000  0.4111160000000 1.0
C      1  0.4850310000000  0.5046000000000  0.5668740000000 1.0
C      1  0.5724470000000  0.4739300000000  0.5591580000000 1.0
C      1  0.4561120000000  0.4308340000000  0.4303050000000 1.0
C      1  0.4293090000000  0.4488980000000  0.4683800000000 1.0
C      1  0.4751200000000  0.4035930000000  0.4637940000000 1.0
C      1  0.5223260000000  0.4420850000000  0.4276500000000 1.0
C      1  0.5559130000000  0.5428440000000  0.4970510000000 1.0
C      1  0.5004320000000  0.5851650000000  0.5074280000000 1.0
C      1  0.4483770000000  0.5155960000000  0.4766260000000 1.0
C      1  0.4284910000000  0.5082650000000  0.4151480000000 1.0
C      1  0.5824260000000  0.5115110000000  0.5284350000000 1.0
C      1  0.4589210000000  0.4736940000000  0.4109000000000 1.0
C      1  0.4796190000000  0.4370480000000  0.5498020000000 1.0
C      1  0.5010640000000  0.5591100000000  0.5910940000000 1.0
C      1  0.5312570000000  0.4120630000000  0.5241510000000 1.0
C      1  0.4983810000000  0.5473240000000  0.5451140000000 1.0
C      1  0.5494580000000  0.4774080000000  0.5133890000000 1.0
C      1  0.5367560000000  0.5232500000000  0.5086450000000 1.0
C      1  0.4009670000000  0.4613240000000  0.5073180000000 1.0
C      1  0.5068590000000  0.3946830000000  0.5208060000000 1.0
C      1  0.5969660000000  0.4763450000000  0.4923240000000 1.0
C      1  0.5326270000000  0.4530010000000  0.4027200000000 1.0
C      1  0.4181060000000  0.5597410000000  0.4868260000000 1.0
C      1  0.5498080000000  0.5214350000000  0.4207790000000 1.0
C      1  0.4941200000000  0.5434310000000  0.4696510000000 1.0
C      1  0.4804210000000  0.5892860000000  0.5555890000000 1.0
C      1  0.4793560000000  0.5038920000000  0.4361870000000 1.0
C      1  0.4880900000000  0.3939320000000  0.5435700000000 1.0
C      1  0.4756870000000  0.5446350000000  0.5954150000000 1.0
C      1  0.4083480000000  0.5403430000000  0.5565060000000 1.0
C      1  0.5671520000000  0.4764720000000  0.4894760000000 1.0
C      1  0.5686590000000  0.4325410000000  0.4969770000000 1.0
C      1  0.5890270000000  0.5693310000000  0.4645210000000 1.0
C      1  0.5179710000000  0.4245110000000  0.4768060000000 1.0
C      1  0.5590380000000  0.4570540000000  0.5358060000000 1.0
C      1  0.4081890000000  0.4906660000000  0.4960280000000 1.0
C      1  0.5617810000000  0.4339560000000  0.4464310000000 1.0
C      1  0.4921070000000  0.5373740000000  0.5202010000000 1.0
C      1  0.5929880000000  0.4944330000000  0.5510280000000 1.0
C      1  0.4688200000000  0.5275280000000  0.4567680000000 1.0
C      1  0.4771780000000  0.5678760000000  0.4143410000000 1.0
C      1  0.5132920000000  0.5447080000000  0.4430010000000 1.0
C      1  0.5314360000000  0.5827150000000  0.4535500000000 1.0
C      1  0.4725730000000  0.6136580000000  0.4796210000000 1.0
C      1  0.4184210000000  0.4158140000000  0.5036820000000 1.0
C      1  0.4574910000000  0.4490750000000  0.5025780000000 1.0
C      1  0.4392010000000  0.5810100000000  0.4924050000000 1.0
C      1  0.5342190000000  0.4750610000000  0.5944480000000 1.0
C      1  0.5955350000000  0.4585570000000  0.4611630000000 1.0
C      1  0.5236020000000  0.4562660000000  0.4752700000000 1.0
C      1  0.4596660000000  0.4879130000000  0.4790410000000 1.0
C      1  0.5092750000000  0.4681050000000  0.3914340000000 1.0
C      1  0.4283900000000  0.5377510000000  0.5781620000000 1.0
C      1  0.5451380000000  0.5655290000000  0.4330550000000 1.0
C      1  0.5973360000000  0.5058040000000  0.5030670000000 1.0
C      1  0.5299340000000  0.4370400000000  0.5407510000000 1.0
C      1  0.5026490000000  0.5853610000000  0.4572910000000 1.0
C      1  0.4788200000000  0.3998110000000  0.4935140000000 1.0
C      1  0.4933690000000  0.4980160000000  0.6167470000000 1.0
C      1  0.4521760000000  0.5275780000000  0.4030620000000 1.0
C      1  0.5355080000000  0.5011320000000  0.5518080000000 1.0
C      1  0.5024180000000  0.4495450000000  0.5335780000000 1.0
C      1  0.5516680000000  0.4899930000000  0.5744510000000 1.0
C      1  0.4192350000000  0.5454900000000  0.4603530000000 1.0
C      1  0.5030490000000  0.5697080000000  0.5618960000000 1.0
C      1  0.5220130000000  0.4773740000000  0.4997420000000 1.0
C      1  0.4976840000000  0.6010490000000  0.4816810000000 1.0
C      1  0.5220860000000  0.5063080000000  0.4890610000000 1.0
C      1  0.4285700000000  0.4694030000000  0.5532540000000 1.0
C      1  0.4727570000000  0.4885010000000  0.5144040000000 1.0
C      1  0.4406480000000  0.5583750000000  0.4430990000000 1.0
C      1  0.4194190000000  0.5128220000000  0.4660080000000 1.0
C      1  0.5073730000000  0.4938930000000  0.5489930000000 1.0
END
