TITL C-951343-2256-14 -1.22754893466218e-06 125000 -893.855477968566 0 0 142 (C1) n - 1
REM
REM in /home/bkarasulu/work/CARBON/AIRSS/Generating-Clusters/EDIP-Nigel-Params/with-SteepDescent/Only-C1/SD-CG/HFTN-CG
REM
REM
REM
REM
REM
REM ./C.cell (11c1c37f851c82e70ff6c80c92926a4b)
REM
REM compiler GCC version 9.2.1 20190827 (Red Hat 9.2.1-1)
REM options -cpp -mtune=generic -march=x86-64 -g -O0 -fpre-include=/usr/include/finclude/math-vector-fortran.h
REM seed 1374875064 1795806731 398829721 -1968127101 -1770458480 -405038423 1994723494 -220751080 -2068791185 198532598 131815173 1590928223 1289528219 -357884867 304707812 1714490008 657053504 -71099564 -2011581706 -2077313516 -1554482983 -1091437010 1376961974 -1157114731 1202434107 1271529744 1238390323 15637232 948996585 851226990 987275823 -1919083496 1831438382
REM
CELL 1.54180   50.00000   50.00000   50.00000   90.00000   90.00000   90.00000
LATT -1
SFAC C  
C      1  0.4804620000000  0.5862040000000  0.4533640000000 1.0
C      1  0.4933390000000  0.4085470000000  0.5051880000000 1.0
C      1  0.4382460000000  0.5378680000000  0.5939030000000 1.0
C      1  0.5315530000000  0.5351090000000  0.5356510000000 1.0
C      1  0.5192370000000  0.5128110000000  0.5537120000000 1.0
C      1  0.5506910000000  0.5874630000000  0.4561910000000 1.0
C      1  0.5252100000000  0.5927360000000  0.5282930000000 1.0
C      1  0.5185560000000  0.5518650000000  0.4946580000000 1.0
C      1  0.4674330000000  0.4430680000000  0.5009150000000 1.0
C      1  0.4818190000000  0.5931670000000  0.5023270000000 1.0
C      1  0.5475210000000  0.4848170000000  0.4273510000000 1.0
C      1  0.4609920000000  0.4444330000000  0.5299490000000 1.0
C      1  0.5709280000000  0.5504430000000  0.4424930000000 1.0
C      1  0.4952860000000  0.4653360000000  0.3995730000000 1.0
C      1  0.4443700000000  0.5084170000000  0.4128790000000 1.0
C      1  0.5803970000000  0.4264350000000  0.4989450000000 1.0
C      1  0.6035460000000  0.5118570000000  0.4856110000000 1.0
C      1  0.5064740000000  0.4932360000000  0.3990820000000 1.0
C      1  0.5313300000000  0.5246980000000  0.5812110000000 1.0
C      1  0.4948840000000  0.4875090000000  0.6004170000000 1.0
C      1  0.5578560000000  0.4877610000000  0.5769330000000 1.0
C      1  0.5299760000000  0.4833640000000  0.5430740000000 1.0
C      1  0.4657840000000  0.5122560000000  0.4340000000000 1.0
C      1  0.5826060000000  0.5179170000000  0.5332750000000 1.0
C      1  0.5120670000000  0.5603370000000  0.4361690000000 1.0
C      1  0.4762760000000  0.4692700000000  0.4631520000000 1.0
C      1  0.5510280000000  0.4907150000000  0.5198300000000 1.0
C      1  0.5116240000000  0.5984810000000  0.5020780000000 1.0
C      1  0.5203900000000  0.4528100000000  0.5854580000000 1.0
C      1  0.5114800000000  0.5862100000000  0.4531000000000 1.0
C      1  0.5205910000000  0.4339280000000  0.5633610000000 1.0
C      1  0.4436280000000  0.4650410000000  0.5768780000000 1.0
C      1  0.4912460000000  0.4128570000000  0.4578180000000 1.0
C      1  0.4633440000000  0.5401810000000  0.4492300000000 1.0
C      1  0.4490280000000  0.5072930000000  0.4800020000000 1.0
C      1  0.5226650000000  0.5796890000000  0.4817070000000 1.0
C      1  0.5362880000000  0.4239950000000  0.5164350000000 1.0
C      1  0.4343740000000  0.5676850000000  0.5091010000000 1.0
C      1  0.4457770000000  0.4866340000000  0.5033500000000 1.0
C      1  0.4713200000000  0.4710630000000  0.4935350000000 1.0
C      1  0.4259720000000  0.5254260000000  0.5310550000000 1.0
C      1  0.4725320000000  0.4520440000000  0.5742300000000 1.0
C      1  0.5015610000000  0.3905810000000  0.5489400000000 1.0
C      1  0.5133880000000  0.4945450000000  0.4859420000000 1.0
C      1  0.4069720000000  0.4692800000000  0.4942890000000 1.0
C      1  0.4194270000000  0.4955960000000  0.4251780000000 1.0
C      1  0.4645930000000  0.5304640000000  0.6015750000000 1.0
C      1  0.4435980000000  0.5676500000000  0.4825160000000 1.0
C      1  0.5852000000000  0.4452650000000  0.5192250000000 1.0
C      1  0.4568570000000  0.4393610000000  0.4370400000000 1.0
C      1  0.5593220000000  0.5045920000000  0.4497900000000 1.0
C      1  0.5362650000000  0.4292150000000  0.4670160000000 1.0
C      1  0.5480210000000  0.5213940000000  0.5150480000000 1.0
C      1  0.4762630000000  0.5720430000000  0.5223780000000 1.0
C      1  0.4342840000000  0.4572610000000  0.5269280000000 1.0
C      1  0.5191350000000  0.4724720000000  0.4363120000000 1.0
C      1  0.4197160000000  0.4651530000000  0.4211580000000 1.0
C      1  0.4647440000000  0.5378510000000  0.5079200000000 1.0
C      1  0.5715620000000  0.4743800000000  0.5549770000000 1.0
C      1  0.4089770000000  0.5014110000000  0.4540950000000 1.0
C      1  0.4950640000000  0.4836880000000  0.5068190000000 1.0
C      1  0.5898170000000  0.4847800000000  0.4833270000000 1.0
C      1  0.4658160000000  0.4715310000000  0.4006370000000 1.0
C      1  0.4449970000000  0.5654070000000  0.5564960000000 1.0
C      1  0.4373680000000  0.4405420000000  0.4581680000000 1.0
C      1  0.4814420000000  0.3978100000000  0.5301220000000 1.0
C      1  0.5900050000000  0.5603790000000  0.4619500000000 1.0
C      1  0.4471290000000  0.4540650000000  0.4142420000000 1.0
C      1  0.5113050000000  0.5980410000000  0.5519450000000 1.0
C      1  0.5537140000000  0.4225040000000  0.4926620000000 1.0
C      1  0.6022200000000  0.5241460000000  0.4594970000000 1.0
C      1  0.4703180000000  0.5790080000000  0.4791770000000 1.0
C      1  0.4229030000000  0.4635530000000  0.5536950000000 1.0
C      1  0.5886850000000  0.5039360000000  0.4424460000000 1.0
C      1  0.5692970000000  0.4464270000000  0.5445970000000 1.0
C      1  0.4669470000000  0.5812010000000  0.5487960000000 1.0
C      1  0.5558920000000  0.5725120000000  0.4299550000000 1.0
C      1  0.5067980000000  0.5293490000000  0.4785760000000 1.0
C      1  0.4620760000000  0.4170860000000  0.5429780000000 1.0
C      1  0.5092340000000  0.5519270000000  0.5221320000000 1.0
C      1  0.5402860000000  0.4840940000000  0.4930930000000 1.0
C      1  0.5008890000000  0.4122390000000  0.5672040000000 1.0
C      1  0.5602410000000  0.5174320000000  0.5792040000000 1.0
C      1  0.5902840000000  0.4898670000000  0.5381910000000 1.0
C      1  0.4728710000000  0.4221800000000  0.5700030000000 1.0
C      1  0.5860110000000  0.4741550000000  0.5128760000000 1.0
C      1  0.4416030000000  0.4306720000000  0.4860690000000 1.0
C      1  0.4032460000000  0.4910070000000  0.5142150000000 1.0
C      1  0.5425330000000  0.4424280000000  0.4385120000000 1.0
C      1  0.5104490000000  0.4362680000000  0.5085850000000 1.0
C      1  0.5380960000000  0.4999860000000  0.4004060000000 1.0
C      1  0.4856230000000  0.4374670000000  0.4423810000000 1.0
C      1  0.5634620000000  0.5378030000000  0.4937830000000 1.0
C      1  0.4451070000000  0.4911810000000  0.5898240000000 1.0
C      1  0.5218910000000  0.5365560000000  0.4532580000000 1.0
C      1  0.4698640000000  0.5018660000000  0.6006700000000 1.0
C      1  0.4898150000000  0.5155560000000  0.5473750000000 1.0
C      1  0.4277340000000  0.5136710000000  0.5830330000000 1.0
C      1  0.4515260000000  0.5079310000000  0.5242810000000 1.0
C      1  0.5613460000000  0.4892890000000  0.4745940000000 1.0
C      1  0.4089510000000  0.5192200000000  0.5047830000000 1.0
C      1  0.5077420000000  0.4473780000000  0.4219470000000 1.0
C      1  0.4909800000000  0.5850060000000  0.5661480000000 1.0
C      1  0.4853230000000  0.5485630000000  0.5986870000000 1.0
C      1  0.5682340000000  0.4611670000000  0.4320130000000 1.0
C      1  0.4129390000000  0.5135290000000  0.5567250000000 1.0
C      1  0.5293570000000  0.5543780000000  0.5775530000000 1.0
C      1  0.4932190000000  0.4595370000000  0.5949640000000 1.0
C      1  0.4023880000000  0.4744440000000  0.4655210000000 1.0
C      1  0.5505390000000  0.5767900000000  0.5286250000000 1.0
C      1  0.5919640000000  0.4738300000000  0.4469500000000 1.0
C      1  0.4063440000000  0.4870180000000  0.5447160000000 1.0
C      1  0.4940890000000  0.5065860000000  0.4231320000000 1.0
C      1  0.5904070000000  0.5295280000000  0.5053100000000 1.0
C      1  0.5335370000000  0.5592310000000  0.4141630000000 1.0
C      1  0.4794990000000  0.4648820000000  0.5457000000000 1.0
C      1  0.4542320000000  0.4949600000000  0.3896620000000 1.0
C      1  0.4126070000000  0.4529260000000  0.4479420000000 1.0
C      1  0.4786910000000  0.5624010000000  0.4350260000000 1.0
C      1  0.5398770000000  0.5299660000000  0.4076220000000 1.0
C      1  0.4222660000000  0.5205760000000  0.4751880000000 1.0
C      1  0.5186090000000  0.4072590000000  0.4613630000000 1.0
C      1  0.5061570000000  0.4658470000000  0.5285460000000 1.0
C      1  0.5721350000000  0.5799210000000  0.4760020000000 1.0
C      1  0.4193550000000  0.4437890000000  0.5041210000000 1.0
C      1  0.5529140000000  0.5333370000000  0.4595720000000 1.0
C      1  0.5172570000000  0.5162320000000  0.4352680000000 1.0
C      1  0.5296150000000  0.4804630000000  0.5819800000000 1.0
C      1  0.5726020000000  0.5345490000000  0.5570590000000 1.0
C      1  0.5071050000000  0.4724940000000  0.4647500000000 1.0
C      1  0.5488750000000  0.5540380000000  0.5515330000000 1.0
C      1  0.4763960000000  0.5352090000000  0.4780970000000 1.0
C      1  0.4695370000000  0.4947240000000  0.5456400000000 1.0
C      1  0.5175410000000  0.4478820000000  0.4803320000000 1.0
C      1  0.4358110000000  0.5463360000000  0.4633180000000 1.0
C      1  0.4326990000000  0.5544240000000  0.5335340000000 1.0
C      1  0.5596880000000  0.5670050000000  0.5002210000000 1.0
C      1  0.4604680000000  0.4935810000000  0.4562420000000 1.0
C      1  0.4891030000000  0.5310130000000  0.5233010000000 1.0
C      1  0.5439550000000  0.4306560000000  0.5443960000000 1.0
C      1  0.5006350000000  0.5605320000000  0.5787320000000 1.0
C      1  0.4744410000000  0.4097620000000  0.4820300000000 1.0
END
