TITL C-951333-8791-458 -6.23671748963862e-06 125000 -1159.88971695925 0 0 184 (C1) n - 1
REM
REM in /home/bkarasulu/work/CARBON/AIRSS/Generating-Clusters/EDIP-Nigel-Params/with-SteepDescent/Only-C1/SD-CG/HFTN-CG
REM
REM
REM
REM
REM
REM ./C.cell (11c1c37f851c82e70ff6c80c92926a4b)
REM
REM compiler GCC version 9.2.1 20190827 (Red Hat 9.2.1-1)
REM options -cpp -mtune=generic -march=x86-64 -g -O0 -fpre-include=/usr/include/finclude/math-vector-fortran.h
REM seed 1768116261 1908670386 -1174221899 1499168233 692770944 -574081229 442539616 1610160025 9680767 254198821 -1728209586 -1875625868 -42344070 -573207070 -1348801018 -1981597933 153226502 1607865570 -1019444775 -710344185 827090110 1528104675 -884320436 -1149530660 -227203773 1385405050 -871892050 -813629359 433877620 -1326124528 -671588682 -1499899151 -56511657
REM
CELL 1.54180   50.00000   50.00000   50.00000   90.00000   90.00000   90.00000
LATT -1
SFAC C  
C      1  0.4907980000000  0.4984370000000  0.4447880000000 1.0
C      1  0.4288630000000  0.4750060000000  0.5811730000000 1.0
C      1  0.4334190000000  0.4464990000000  0.5295560000000 1.0
C      1  0.4097180000000  0.5283050000000  0.5616100000000 1.0
C      1  0.4918890000000  0.5637870000000  0.5198610000000 1.0
C      1  0.5051810000000  0.4116730000000  0.5559300000000 1.0
C      1  0.5168630000000  0.4721790000000  0.5551910000000 1.0
C      1  0.5520410000000  0.4836800000000  0.5786640000000 1.0
C      1  0.3772890000000  0.5378890000000  0.4957480000000 1.0
C      1  0.4820550000000  0.4620160000000  0.3973270000000 1.0
C      1  0.4542770000000  0.5328820000000  0.5214610000000 1.0
C      1  0.5737580000000  0.4388030000000  0.5638440000000 1.0
C      1  0.5650490000000  0.4556700000000  0.5236910000000 1.0
C      1  0.4641490000000  0.5587640000000  0.5110130000000 1.0
C      1  0.5278840000000  0.5559370000000  0.4816590000000 1.0
C      1  0.4647690000000  0.6024030000000  0.5285990000000 1.0
C      1  0.3870990000000  0.5288690000000  0.4690460000000 1.0
C      1  0.4452570000000  0.5622320000000  0.5729290000000 1.0
C      1  0.4310690000000  0.5088500000000  0.4787400000000 1.0
C      1  0.4254690000000  0.5486880000000  0.4480030000000 1.0
C      1  0.5617500000000  0.4995820000000  0.5045710000000 1.0
C      1  0.5824440000000  0.4883400000000  0.4178520000000 1.0
C      1  0.4986800000000  0.5413170000000  0.6036500000000 1.0
C      1  0.4314720000000  0.5705670000000  0.5481960000000 1.0
C      1  0.5392300000000  0.5666660000000  0.5981820000000 1.0
C      1  0.5349320000000  0.5046190000000  0.4595200000000 1.0
C      1  0.4710100000000  0.6024480000000  0.4754190000000 1.0
C      1  0.4832510000000  0.5871310000000  0.4286770000000 1.0
C      1  0.4989420000000  0.4909300000000  0.5922410000000 1.0
C      1  0.4951180000000  0.5525510000000  0.4408040000000 1.0
C      1  0.5819540000000  0.4269380000000  0.4518630000000 1.0
C      1  0.4316010000000  0.5018970000000  0.4306580000000 1.0
C      1  0.4556580000000  0.4110820000000  0.5431490000000 1.0
C      1  0.5474430000000  0.6099230000000  0.5244270000000 1.0
C      1  0.5289930000000  0.3998130000000  0.5451140000000 1.0
C      1  0.5248480000000  0.4731030000000  0.5276850000000 1.0
C      1  0.4480720000000  0.4874100000000  0.4112900000000 1.0
C      1  0.5005280000000  0.4229180000000  0.4226420000000 1.0
C      1  0.4621140000000  0.5593440000000  0.4814770000000 1.0
C      1  0.5416850000000  0.5192100000000  0.6117560000000 1.0
C      1  0.4732880000000  0.4381200000000  0.4754850000000 1.0
C      1  0.4161890000000  0.4883420000000  0.5372540000000 1.0
C      1  0.4853710000000  0.5156410000000  0.6044510000000 1.0
C      1  0.4101020000000  0.4455510000000  0.4510590000000 1.0
C      1  0.4932090000000  0.4413630000000  0.5343720000000 1.0
C      1  0.6119310000000  0.5121410000000  0.4974650000000 1.0
C      1  0.5616750000000  0.5732670000000  0.5821250000000 1.0
C      1  0.5776870000000  0.4574250000000  0.4555900000000 1.0
C      1  0.4071460000000  0.4598570000000  0.5396370000000 1.0
C      1  0.5529700000000  0.5972940000000  0.4985000000000 1.0
C      1  0.4320200000000  0.4085790000000  0.5256480000000 1.0
C      1  0.6074490000000  0.5583600000000  0.5035630000000 1.0
C      1  0.5922250000000  0.5011040000000  0.5434410000000 1.0
C      1  0.4989320000000  0.4747480000000  0.5118560000000 1.0
C      1  0.4696880000000  0.5767860000000  0.5780420000000 1.0
C      1  0.6014760000000  0.4667050000000  0.5016330000000 1.0
C      1  0.5573630000000  0.4212150000000  0.4356540000000 1.0
C      1  0.4849390000000  0.5647130000000  0.5979580000000 1.0
C      1  0.4189800000000  0.4917820000000  0.4566480000000 1.0
C      1  0.5433800000000  0.4328110000000  0.4830100000000 1.0
C      1  0.4579160000000  0.4575380000000  0.4585420000000 1.0
C      1  0.4817420000000  0.4837650000000  0.3774780000000 1.0
C      1  0.5723160000000  0.5695990000000  0.5556500000000 1.0
C      1  0.6141840000000  0.4859790000000  0.4847410000000 1.0
C      1  0.4534430000000  0.4403090000000  0.4326290000000 1.0
C      1  0.5774470000000  0.5905210000000  0.5370960000000 1.0
C      1  0.3907270000000  0.4612140000000  0.4987670000000 1.0
C      1  0.5021630000000  0.4707070000000  0.4822090000000 1.0
C      1  0.4912020000000  0.5527250000000  0.5479920000000 1.0
C      1  0.4271920000000  0.5816260000000  0.4976940000000 1.0
C      1  0.5816950000000  0.5131130000000  0.4570700000000 1.0
C      1  0.4821770000000  0.5903820000000  0.5538640000000 1.0
C      1  0.4757040000000  0.5282360000000  0.3990050000000 1.0
C      1  0.4744680000000  0.4729450000000  0.5834980000000 1.0
C      1  0.4272200000000  0.4632730000000  0.4659090000000 1.0
C      1  0.5916950000000  0.4516630000000  0.5364970000000 1.0
C      1  0.5833360000000  0.4107220000000  0.4748020000000 1.0
C      1  0.5447500000000  0.4319780000000  0.5581840000000 1.0
C      1  0.5428800000000  0.3885240000000  0.4937950000000 1.0
C      1  0.5623810000000  0.4117290000000  0.4933330000000 1.0
C      1  0.5044330000000  0.4419050000000  0.3997200000000 1.0
C      1  0.4645210000000  0.5021220000000  0.3914670000000 1.0
C      1  0.3842320000000  0.4533050000000  0.5246740000000 1.0
C      1  0.4265450000000  0.4279420000000  0.4375750000000 1.0
C      1  0.4559570000000  0.5144430000000  0.5991140000000 1.0
C      1  0.5488640000000  0.5546730000000  0.4601970000000 1.0
C      1  0.4124980000000  0.5537200000000  0.4976440000000 1.0
C      1  0.4595600000000  0.5431920000000  0.4182590000000 1.0
C      1  0.4615140000000  0.4332170000000  0.5014380000000 1.0
C      1  0.5986420000000  0.4858820000000  0.4589050000000 1.0
C      1  0.4927400000000  0.5041230000000  0.5183210000000 1.0
C      1  0.4373980000000  0.4163140000000  0.4974920000000 1.0
C      1  0.5049960000000  0.5317110000000  0.3970140000000 1.0
C      1  0.5048570000000  0.5904060000000  0.5100610000000 1.0
C      1  0.5976890000000  0.4751430000000  0.5553220000000 1.0
C      1  0.4969480000000  0.3962300000000  0.4777000000000 1.0
C      1  0.5230510000000  0.4747560000000  0.6037890000000 1.0
C      1  0.5394570000000  0.5768180000000  0.4425510000000 1.0
C      1  0.4204690000000  0.4630680000000  0.4966130000000 1.0
C      1  0.3894420000000  0.4992620000000  0.4644210000000 1.0
C      1  0.5183070000000  0.5097640000000  0.3858010000000 1.0
C      1  0.5095510000000  0.4991220000000  0.5650170000000 1.0
C      1  0.4456870000000  0.4007630000000  0.4728220000000 1.0
C      1  0.5418890000000  0.4385120000000  0.5279520000000 1.0
C      1  0.5183380000000  0.5434320000000  0.4216040000000 1.0
C      1  0.6085960000000  0.4857980000000  0.4309100000000 1.0
C      1  0.5478180000000  0.5080480000000  0.5589410000000 1.0
C      1  0.5226650000000  0.5244200000000  0.5240240000000 1.0
C      1  0.5125010000000  0.5934250000000  0.5561820000000 1.0
C      1  0.5766080000000  0.5809190000000  0.5088330000000 1.0
C      1  0.5082210000000  0.5143580000000  0.4638440000000 1.0
C      1  0.5196780000000  0.6055480000000  0.5310650000000 1.0
C      1  0.5381670000000  0.5427070000000  0.5056180000000 1.0
C      1  0.5750070000000  0.5549360000000  0.4737920000000 1.0
C      1  0.5774810000000  0.4662510000000  0.5757180000000 1.0
C      1  0.5193590000000  0.4370230000000  0.5034990000000 1.0
C      1  0.5015000000000  0.5423480000000  0.4696850000000 1.0
C      1  0.4614430000000  0.5104580000000  0.4765490000000 1.0
C      1  0.5470440000000  0.4924190000000  0.6074960000000 1.0
C      1  0.5411810000000  0.5002980000000  0.5277770000000 1.0
C      1  0.5252910000000  0.3926280000000  0.4679920000000 1.0
C      1  0.5264560000000  0.5859920000000  0.4877680000000 1.0
C      1  0.4685540000000  0.5136120000000  0.5047050000000 1.0
C      1  0.5967520000000  0.5391730000000  0.4609100000000 1.0
C      1  0.5038990000000  0.4803920000000  0.4240070000000 1.0
C      1  0.5340640000000  0.4197010000000  0.4568360000000 1.0
C      1  0.4665230000000  0.5381160000000  0.4607140000000 1.0
C      1  0.4217320000000  0.5343060000000  0.5193420000000 1.0
C      1  0.4588960000000  0.5720630000000  0.4252990000000 1.0
C      1  0.4382140000000  0.5751780000000  0.4469820000000 1.0
C      1  0.4782570000000  0.4176460000000  0.5211290000000 1.0
C      1  0.3865610000000  0.4909480000000  0.4932740000000 1.0
C      1  0.4238540000000  0.4925830000000  0.5059550000000 1.0
C      1  0.5400670000000  0.5135000000000  0.4297910000000 1.0
C      1  0.6151630000000  0.5378770000000  0.4836050000000 1.0
C      1  0.5038060000000  0.4090190000000  0.5046150000000 1.0
C      1  0.4550680000000  0.4586910000000  0.4094750000000 1.0
C      1  0.5232930000000  0.3904750000000  0.5179140000000 1.0
C      1  0.6116620000000  0.5152130000000  0.5263670000000 1.0
C      1  0.4733880000000  0.4168010000000  0.4324280000000 1.0
C      1  0.4768850000000  0.4427690000000  0.5805950000000 1.0
C      1  0.4655550000000  0.4817690000000  0.5544510000000 1.0
C      1  0.6042740000000  0.5433220000000  0.5285920000000 1.0
C      1  0.4538210000000  0.4318260000000  0.5658950000000 1.0
C      1  0.5184770000000  0.5396820000000  0.5509870000000 1.0
C      1  0.5682250000000  0.5434650000000  0.5029460000000 1.0
C      1  0.5560900000000  0.4598000000000  0.4766030000000 1.0
C      1  0.4312090000000  0.4471900000000  0.5739630000000 1.0
C      1  0.4815920000000  0.6081040000000  0.5033540000000 1.0
C      1  0.4126520000000  0.5494150000000  0.5425660000000 1.0
C      1  0.5655910000000  0.4672630000000  0.4304400000000 1.0
C      1  0.5299580000000  0.4747390000000  0.4656260000000 1.0
C      1  0.5757510000000  0.5194690000000  0.5586150000000 1.0
C      1  0.5291860000000  0.5679390000000  0.5613120000000 1.0
C      1  0.5272240000000  0.5416590000000  0.6045780000000 1.0
C      1  0.5311530000000  0.4561850000000  0.4010700000000 1.0
C      1  0.4506610000000  0.4839790000000  0.5994120000000 1.0
C      1  0.5206200000000  0.5946540000000  0.4596500000000 1.0
C      1  0.4734220000000  0.4108140000000  0.4633510000000 1.0
C      1  0.5703080000000  0.5134620000000  0.4283910000000 1.0
C      1  0.5805980000000  0.5443800000000  0.5452300000000 1.0
C      1  0.3874560000000  0.5157400000000  0.5134800000000 1.0
C      1  0.5250980000000  0.4505540000000  0.5742230000000 1.0
C      1  0.5030600000000  0.4315070000000  0.5759270000000 1.0
C      1  0.4454750000000  0.5313970000000  0.5732320000000 1.0
C      1  0.5325210000000  0.5681300000000  0.4164540000000 1.0
C      1  0.4917090000000  0.5940460000000  0.4549350000000 1.0
C      1  0.5268690000000  0.4945580000000  0.4086720000000 1.0
C      1  0.4157100000000  0.5362590000000  0.4728440000000 1.0
C      1  0.5556310000000  0.4446800000000  0.4151240000000 1.0
C      1  0.5581290000000  0.5149840000000  0.4780320000000 1.0
C      1  0.4655250000000  0.4594510000000  0.5332800000000 1.0
C      1  0.4771050000000  0.4826460000000  0.4658920000000 1.0
C      1  0.5115200000000  0.4352370000000  0.4462600000000 1.0
C      1  0.4473570000000  0.5831800000000  0.4744600000000 1.0
C      1  0.5711960000000  0.4714680000000  0.5005500000000 1.0
C      1  0.4366340000000  0.5303990000000  0.4293540000000 1.0
C      1  0.4285540000000  0.4032010000000  0.4506950000000 1.0
C      1  0.4373590000000  0.4915690000000  0.5578460000000 1.0
C      1  0.5228690000000  0.4613600000000  0.4390020000000 1.0
C      1  0.3956770000000  0.5085450000000  0.5439750000000 1.0
C      1  0.4454500000000  0.5802750000000  0.5224450000000 1.0
C      1  0.4841620000000  0.5046560000000  0.5475240000000 1.0
C      1  0.4680480000000  0.5308710000000  0.5494980000000 1.0
END
