TITL C-951343-2256-675 2.04310432046921e-06 125000 -1058.32320259324 0 0 170 (C1) n - 1
REM
REM in /home/bkarasulu/work/CARBON/AIRSS/Generating-Clusters/EDIP-Nigel-Params/with-SteepDescent/Only-C1/SD-CG/HFTN-CG
REM
REM
REM
REM
REM
REM ./C.cell (11c1c37f851c82e70ff6c80c92926a4b)
REM
REM compiler GCC version 9.2.1 20190827 (Red Hat 9.2.1-1)
REM options -cpp -mtune=generic -march=x86-64 -g -O0 -fpre-include=/usr/include/finclude/math-vector-fortran.h
REM seed -1531845805 -556509514 -1604497908 -2120635035 893098497 -401656487 -754446346 1542942098 1631032341 -1123762253 -1489864227 658623287 -301629965 -606957584 859123912 249193771 727622277 -313802158 -535745267 -215167010 47741101 651357363 -1012438520 1774021802 321281392 -1991993769 -1845487185 -1301811040 757838469 -1571341075 1365719671 -621564928 -1869298160
REM
CELL 1.54180   50.00000   50.00000   50.00000   90.00000   90.00000   90.00000
LATT -1
SFAC C  
C      1  0.4574390000000  0.4237650000000  0.4451670000000 1.0
C      1  0.4138700000000  0.4280080000000  0.5104250000000 1.0
C      1  0.5066510000000  0.5658800000000  0.4703130000000 1.0
C      1  0.4489250000000  0.4725830000000  0.5290530000000 1.0
C      1  0.4888140000000  0.4753800000000  0.3965490000000 1.0
C      1  0.5096950000000  0.5275540000000  0.5061530000000 1.0
C      1  0.4695820000000  0.5052310000000  0.4999600000000 1.0
C      1  0.4743410000000  0.3724780000000  0.5338050000000 1.0
C      1  0.4299060000000  0.5361640000000  0.4499760000000 1.0
C      1  0.5991570000000  0.4856020000000  0.5029350000000 1.0
C      1  0.5201980000000  0.4534130000000  0.5263750000000 1.0
C      1  0.5251760000000  0.5528230000000  0.5147820000000 1.0
C      1  0.4732930000000  0.4033000000000  0.4931280000000 1.0
C      1  0.5239150000000  0.5838850000000  0.5135170000000 1.0
C      1  0.5079450000000  0.4420250000000  0.4222870000000 1.0
C      1  0.4540240000000  0.5405750000000  0.4664600000000 1.0
C      1  0.4621170000000  0.4170380000000  0.5499550000000 1.0
C      1  0.4571910000000  0.5858140000000  0.5523080000000 1.0
C      1  0.4881060000000  0.3885620000000  0.5152150000000 1.0
C      1  0.4751650000000  0.5102300000000  0.5542340000000 1.0
C      1  0.4570000000000  0.5017110000000  0.5279780000000 1.0
C      1  0.5258870000000  0.4786610000000  0.5085390000000 1.0
C      1  0.4466780000000  0.5628140000000  0.5362680000000 1.0
C      1  0.5805690000000  0.4664080000000  0.4586200000000 1.0
C      1  0.5417800000000  0.3893270000000  0.4641710000000 1.0
C      1  0.5413610000000  0.4974710000000  0.6079950000000 1.0
C      1  0.5255250000000  0.5478820000000  0.5446540000000 1.0
C      1  0.5778630000000  0.4697440000000  0.4287730000000 1.0
C      1  0.4526280000000  0.5924200000000  0.4868970000000 1.0
C      1  0.4647490000000  0.5529700000000  0.5127730000000 1.0
C      1  0.3952320000000  0.4465310000000  0.4985920000000 1.0
C      1  0.4245060000000  0.4699990000000  0.5079680000000 1.0
C      1  0.5352590000000  0.5995960000000  0.4689610000000 1.0
C      1  0.4024010000000  0.4827170000000  0.5526760000000 1.0
C      1  0.4110610000000  0.5642620000000  0.5048430000000 1.0
C      1  0.4232800000000  0.4970610000000  0.4812290000000 1.0
C      1  0.5786060000000  0.4359170000000  0.4622780000000 1.0
C      1  0.5967170000000  0.4587350000000  0.5173480000000 1.0
C      1  0.4821780000000  0.4334840000000  0.5897910000000 1.0
C      1  0.4647680000000  0.5161820000000  0.4133130000000 1.0
C      1  0.4257340000000  0.5128320000000  0.5254250000000 1.0
C      1  0.5479390000000  0.4032030000000  0.4877390000000 1.0
C      1  0.5979530000000  0.5338930000000  0.5103750000000 1.0
C      1  0.5515180000000  0.4249300000000  0.5531670000000 1.0
C      1  0.5596720000000  0.5451550000000  0.4881290000000 1.0
C      1  0.6026600000000  0.4844130000000  0.4724310000000 1.0
C      1  0.5110560000000  0.4043840000000  0.5244660000000 1.0
C      1  0.5077530000000  0.4179210000000  0.4384180000000 1.0
C      1  0.4622040000000  0.3891700000000  0.5511370000000 1.0
C      1  0.4972070000000  0.5023370000000  0.6088190000000 1.0
C      1  0.4844070000000  0.4824380000000  0.5900750000000 1.0
C      1  0.4612480000000  0.5766980000000  0.5785710000000 1.0
C      1  0.4533050000000  0.5311080000000  0.4936250000000 1.0
C      1  0.4793890000000  0.3889900000000  0.4688050000000 1.0
C      1  0.5487320000000  0.4450850000000  0.5338090000000 1.0
C      1  0.4230400000000  0.4523900000000  0.4606690000000 1.0
C      1  0.5679780000000  0.4493420000000  0.5107990000000 1.0
C      1  0.4956890000000  0.5254420000000  0.4484630000000 1.0
C      1  0.5926750000000  0.5141010000000  0.4352930000000 1.0
C      1  0.4335130000000  0.4635250000000  0.4361550000000 1.0
C      1  0.5186800000000  0.4917110000000  0.6242160000000 1.0
C      1  0.4845510000000  0.4317900000000  0.5616300000000 1.0
C      1  0.4882040000000  0.4469920000000  0.4650100000000 1.0
C      1  0.4287080000000  0.4908390000000  0.4288940000000 1.0
C      1  0.4802720000000  0.5511610000000  0.4562290000000 1.0
C      1  0.5388030000000  0.5822140000000  0.4449190000000 1.0
C      1  0.4815840000000  0.4072570000000  0.4481410000000 1.0
C      1  0.5168670000000  0.5190700000000  0.4713500000000 1.0
C      1  0.5386790000000  0.4990150000000  0.4577900000000 1.0
C      1  0.4948040000000  0.4868180000000  0.5615910000000 1.0
C      1  0.5806340000000  0.4992770000000  0.5578510000000 1.0
C      1  0.4718430000000  0.4559370000000  0.5210510000000 1.0
C      1  0.5325910000000  0.4965400000000  0.3896660000000 1.0
C      1  0.4764590000000  0.5045290000000  0.4400160000000 1.0
C      1  0.4564520000000  0.6166280000000  0.4997470000000 1.0
C      1  0.5467910000000  0.5928320000000  0.4959860000000 1.0
C      1  0.5565210000000  0.4499050000000  0.4221140000000 1.0
C      1  0.4361960000000  0.4151700000000  0.4930340000000 1.0
C      1  0.5102710000000  0.4774210000000  0.4831620000000 1.0
C      1  0.4208290000000  0.4373830000000  0.5372590000000 1.0
C      1  0.5357450000000  0.4098430000000  0.4458020000000 1.0
C      1  0.5728430000000  0.5442430000000  0.5644920000000 1.0
C      1  0.5447480000000  0.5666650000000  0.4005770000000 1.0
C      1  0.4190650000000  0.4582840000000  0.5581900000000 1.0
C      1  0.5701650000000  0.5695120000000  0.5498120000000 1.0
C      1  0.5190350000000  0.4524300000000  0.4641610000000 1.0
C      1  0.4751610000000  0.5657490000000  0.4146400000000 1.0
C      1  0.5071120000000  0.6079570000000  0.4723860000000 1.0
C      1  0.5556690000000  0.5075130000000  0.4019840000000 1.0
C      1  0.4249030000000  0.5228210000000  0.4977980000000 1.0
C      1  0.4548160000000  0.5443770000000  0.4141980000000 1.0
C      1  0.5032100000000  0.5562610000000  0.4081310000000 1.0
C      1  0.3984420000000  0.4607150000000  0.4739840000000 1.0
C      1  0.5696200000000  0.4261700000000  0.4891210000000 1.0
C      1  0.4537420000000  0.4855650000000  0.5842270000000 1.0
C      1  0.5402530000000  0.5728330000000  0.5552220000000 1.0
C      1  0.4173630000000  0.5083450000000  0.4511770000000 1.0
C      1  0.4754440000000  0.6201840000000  0.5193390000000 1.0
C      1  0.4048610000000  0.5320950000000  0.5399950000000 1.0
C      1  0.4556320000000  0.4292110000000  0.5236680000000 1.0
C      1  0.5303160000000  0.4608060000000  0.4308340000000 1.0
C      1  0.5244070000000  0.5063040000000  0.5202810000000 1.0
C      1  0.5367560000000  0.5248720000000  0.5965090000000 1.0
C      1  0.5857340000000  0.4538580000000  0.5661500000000 1.0
C      1  0.5549820000000  0.4770410000000  0.4701470000000 1.0
C      1  0.5688580000000  0.4762440000000  0.5701260000000 1.0
C      1  0.4755590000000  0.5772510000000  0.4411280000000 1.0
C      1  0.4979770000000  0.5957680000000  0.5000510000000 1.0
C      1  0.4456530000000  0.4649470000000  0.5665650000000 1.0
C      1  0.5816490000000  0.5671670000000  0.5225920000000 1.0
C      1  0.5123800000000  0.4298080000000  0.5080620000000 1.0
C      1  0.4966710000000  0.5957380000000  0.4474120000000 1.0
C      1  0.5410290000000  0.4793710000000  0.5830050000000 1.0
C      1  0.4885700000000  0.5226910000000  0.3944840000000 1.0
C      1  0.6134470000000  0.5072990000000  0.5189030000000 1.0
C      1  0.5280950000000  0.4280010000000  0.5694030000000 1.0
C      1  0.4275160000000  0.5809200000000  0.4897500000000 1.0
C      1  0.4602320000000  0.4500010000000  0.4313360000000 1.0
C      1  0.6077380000000  0.4944510000000  0.5467610000000 1.0
C      1  0.5576170000000  0.5421360000000  0.5879510000000 1.0
C      1  0.4649320000000  0.5505790000000  0.5877680000000 1.0
C      1  0.5694620000000  0.5237820000000  0.5156590000000 1.0
C      1  0.5312230000000  0.4295890000000  0.4849680000000 1.0
C      1  0.5651520000000  0.5716920000000  0.4408120000000 1.0
C      1  0.5349330000000  0.5169600000000  0.5461930000000 1.0
C      1  0.4381770000000  0.5097990000000  0.5783940000000 1.0
C      1  0.4929580000000  0.4572560000000  0.5443510000000 1.0
C      1  0.5182810000000  0.4047500000000  0.5528810000000 1.0
C      1  0.5751410000000  0.4977020000000  0.4209040000000 1.0
C      1  0.4856390000000  0.4321670000000  0.4929710000000 1.0
C      1  0.5720330000000  0.4960620000000  0.5064230000000 1.0
C      1  0.4761140000000  0.5748760000000  0.4932320000000 1.0
C      1  0.5541830000000  0.4749280000000  0.4988580000000 1.0
C      1  0.5277330000000  0.5955880000000  0.5414280000000 1.0
C      1  0.4296750000000  0.5495550000000  0.4254090000000 1.0
C      1  0.5345140000000  0.5443010000000  0.4669240000000 1.0
C      1  0.4970990000000  0.4557740000000  0.5966170000000 1.0
C      1  0.4695240000000  0.4791640000000  0.4558810000000 1.0
C      1  0.6041890000000  0.4636940000000  0.5459510000000 1.0
C      1  0.5598150000000  0.5524430000000  0.4203280000000 1.0
C      1  0.4858920000000  0.5359430000000  0.5266430000000 1.0
C      1  0.5243950000000  0.4532560000000  0.5858250000000 1.0
C      1  0.4795750000000  0.4804590000000  0.4855470000000 1.0
C      1  0.5689220000000  0.5726030000000  0.4966110000000 1.0
C      1  0.5957540000000  0.5341700000000  0.4801160000000 1.0
C      1  0.5247420000000  0.5790460000000  0.4174540000000 1.0
C      1  0.4861230000000  0.5351350000000  0.5741230000000 1.0
C      1  0.6017370000000  0.5122690000000  0.4617880000000 1.0
C      1  0.4832610000000  0.4526880000000  0.4115970000000 1.0
C      1  0.3933010000000  0.4907170000000  0.4767730000000 1.0
C      1  0.5067920000000  0.5256150000000  0.5942090000000 1.0
C      1  0.4110250000000  0.5080080000000  0.5669100000000 1.0
C      1  0.5653230000000  0.5214810000000  0.5466050000000 1.0
C      1  0.4969500000000  0.5489690000000  0.5509020000000 1.0
C      1  0.5040310000000  0.6042540000000  0.5538630000000 1.0
C      1  0.3937550000000  0.5441800000000  0.4941460000000 1.0
C      1  0.4436770000000  0.5335390000000  0.5916710000000 1.0
C      1  0.3840580000000  0.5267300000000  0.5152750000000 1.0
C      1  0.5320200000000  0.4921350000000  0.4285440000000 1.0
C      1  0.4065530000000  0.4888050000000  0.5235730000000 1.0
C      1  0.5416850000000  0.5328730000000  0.4352500000000 1.0
C      1  0.4422250000000  0.4997210000000  0.4054060000000 1.0
C      1  0.5234830000000  0.4964480000000  0.5651220000000 1.0
C      1  0.4174660000000  0.5594600000000  0.5330550000000 1.0
C      1  0.4357300000000  0.4266250000000  0.4655060000000 1.0
C      1  0.4799040000000  0.6009480000000  0.5401490000000 1.0
C      1  0.5125120000000  0.5307790000000  0.4239230000000 1.0
C      1  0.5044100000000  0.4983480000000  0.3949100000000 1.0
C      1  0.3835960000000  0.4980550000000  0.5060820000000 1.0
C      1  0.5603420000000  0.4265830000000  0.4398250000000 1.0
END
