TITL C-951335-1172-62 -4.33103165914953e-07 125000 -1134.57716188113 0 0 181 (C1) n - 1
REM
REM in /home/bkarasulu/work/CARBON/AIRSS/Generating-Clusters/EDIP-Nigel-Params/with-SteepDescent/Only-C1/SD-CG/HFTN-CG
REM
REM
REM
REM
REM
REM ./C.cell (11c1c37f851c82e70ff6c80c92926a4b)
REM
REM compiler GCC version 9.2.1 20190827 (Red Hat 9.2.1-1)
REM options -cpp -mtune=generic -march=x86-64 -g -O0 -fpre-include=/usr/include/finclude/math-vector-fortran.h
REM seed 888480987 232516865 1677304290 -2061498354 1237854467 426774043 -1833056433 -308317578 -1883035843 -1983064641 -2022541636 -723351325 -1447828028 729712266 699938269 1701237489 -1127090974 451742259 1822832845 -1541076294 1024215737 -823718948 -980167144 46417392 -438159001 -1262327373 -1251565722 2031745328 -896447753 1855597881 -1800089466 -1150966226 -206972329
REM
CELL 1.54180   50.00000   50.00000   50.00000   90.00000   90.00000   90.00000
LATT -1
SFAC C  
C      1  0.5850960000000  0.5038720000000  0.5411710000000 1.0
C      1  0.5039090000000  0.4085500000000  0.4562290000000 1.0
C      1  0.5497670000000  0.4293640000000  0.5585240000000 1.0
C      1  0.5411790000000  0.5426920000000  0.5998980000000 1.0
C      1  0.5603420000000  0.4666340000000  0.4836470000000 1.0
C      1  0.5445630000000  0.5948880000000  0.5003400000000 1.0
C      1  0.3974370000000  0.4736530000000  0.4389590000000 1.0
C      1  0.5715850000000  0.4994620000000  0.5158690000000 1.0
C      1  0.3871170000000  0.4918430000000  0.5144940000000 1.0
C      1  0.4756430000000  0.5532940000000  0.5966520000000 1.0
C      1  0.5451960000000  0.4647880000000  0.4093310000000 1.0
C      1  0.4582670000000  0.5535890000000  0.5439960000000 1.0
C      1  0.6057980000000  0.5392970000000  0.4513620000000 1.0
C      1  0.5336750000000  0.4452800000000  0.5765720000000 1.0
C      1  0.4807480000000  0.5942240000000  0.4551970000000 1.0
C      1  0.4152680000000  0.4408850000000  0.5775940000000 1.0
C      1  0.6031170000000  0.5426850000000  0.4991520000000 1.0
C      1  0.5451450000000  0.5450220000000  0.5409890000000 1.0
C      1  0.4112110000000  0.5022840000000  0.4782120000000 1.0
C      1  0.4904910000000  0.4313960000000  0.5002930000000 1.0
C      1  0.4029970000000  0.4875910000000  0.5627160000000 1.0
C      1  0.4514880000000  0.4548060000000  0.5998090000000 1.0
C      1  0.4856830000000  0.3873240000000  0.4413390000000 1.0
C      1  0.6135690000000  0.5316340000000  0.5230960000000 1.0
C      1  0.4397450000000  0.4983930000000  0.4654940000000 1.0
C      1  0.4738760000000  0.5082330000000  0.4341310000000 1.0
C      1  0.5249020000000  0.5697850000000  0.5767850000000 1.0
C      1  0.4437450000000  0.4512650000000  0.4669690000000 1.0
C      1  0.4935430000000  0.5405100000000  0.4588770000000 1.0
C      1  0.5160730000000  0.4571650000000  0.4094300000000 1.0
C      1  0.4712510000000  0.3886000000000  0.4855740000000 1.0
C      1  0.5193080000000  0.5403970000000  0.4140900000000 1.0
C      1  0.5046380000000  0.4148110000000  0.5518330000000 1.0
C      1  0.4996270000000  0.5295380000000  0.5459700000000 1.0
C      1  0.5115580000000  0.5276630000000  0.3888630000000 1.0
C      1  0.5879920000000  0.4983190000000  0.4323060000000 1.0
C      1  0.6036220000000  0.4648840000000  0.4626850000000 1.0
C      1  0.4721400000000  0.4777760000000  0.4022780000000 1.0
C      1  0.6014500000000  0.4442270000000  0.5067880000000 1.0
C      1  0.4602350000000  0.4457190000000  0.5407160000000 1.0
C      1  0.4858300000000  0.4915410000000  0.4735330000000 1.0
C      1  0.4663650000000  0.5399650000000  0.4717830000000 1.0
C      1  0.4249850000000  0.5554440000000  0.4760550000000 1.0
C      1  0.4410590000000  0.5801340000000  0.4815730000000 1.0
C      1  0.5879190000000  0.4613990000000  0.5617270000000 1.0
C      1  0.5471470000000  0.5668070000000  0.4408280000000 1.0
C      1  0.4909430000000  0.4353810000000  0.5949990000000 1.0
C      1  0.5050410000000  0.4392970000000  0.5699280000000 1.0
C      1  0.4263150000000  0.4921100000000  0.4054100000000 1.0
C      1  0.5442320000000  0.5567880000000  0.4123180000000 1.0
C      1  0.4740650000000  0.5616460000000  0.5185540000000 1.0
C      1  0.4252780000000  0.4337220000000  0.4292130000000 1.0
C      1  0.4646400000000  0.5290560000000  0.5859700000000 1.0
C      1  0.4580210000000  0.5848880000000  0.5062520000000 1.0
C      1  0.5671940000000  0.5539020000000  0.5907540000000 1.0
C      1  0.4353710000000  0.5426270000000  0.5279570000000 1.0
C      1  0.4773890000000  0.6086330000000  0.5510700000000 1.0
C      1  0.4613810000000  0.5057370000000  0.5442260000000 1.0
C      1  0.4961320000000  0.5553020000000  0.4296000000000 1.0
C      1  0.6151640000000  0.5015100000000  0.5173770000000 1.0
C      1  0.5442770000000  0.4713160000000  0.5837570000000 1.0
C      1  0.3955990000000  0.5333650000000  0.5446740000000 1.0
C      1  0.5470520000000  0.4915340000000  0.4707970000000 1.0
C      1  0.4629750000000  0.4311680000000  0.5875540000000 1.0
C      1  0.5365560000000  0.4085010000000  0.5148060000000 1.0
C      1  0.4920200000000  0.5992310000000  0.5727480000000 1.0
C      1  0.4947740000000  0.4597330000000  0.6092560000000 1.0
C      1  0.5689110000000  0.5246330000000  0.5006040000000 1.0
C      1  0.5623320000000  0.4180780000000  0.5039660000000 1.0
C      1  0.5730650000000  0.4415010000000  0.5463270000000 1.0
C      1  0.5828250000000  0.5347170000000  0.5718440000000 1.0
C      1  0.5186640000000  0.4411510000000  0.4572510000000 1.0
C      1  0.4520100000000  0.5358830000000  0.4074800000000 1.0
C      1  0.5369910000000  0.5928140000000  0.5305800000000 1.0
C      1  0.4746390000000  0.4776700000000  0.4325970000000 1.0
C      1  0.4829240000000  0.5777550000000  0.5881170000000 1.0
C      1  0.3924360000000  0.5027500000000  0.4377190000000 1.0
C      1  0.5639510000000  0.5180250000000  0.4708510000000 1.0
C      1  0.4681810000000  0.5311900000000  0.5015150000000 1.0
C      1  0.4066310000000  0.4300030000000  0.5334700000000 1.0
C      1  0.5731520000000  0.5906720000000  0.4938000000000 1.0
C      1  0.4528050000000  0.5846090000000  0.4549620000000 1.0
C      1  0.4732140000000  0.5522850000000  0.4132220000000 1.0
C      1  0.4833390000000  0.4095850000000  0.5317450000000 1.0
C      1  0.4170300000000  0.4325900000000  0.5078870000000 1.0
C      1  0.5271500000000  0.4932520000000  0.5930500000000 1.0
C      1  0.4958760000000  0.5209100000000  0.5166880000000 1.0
C      1  0.4632110000000  0.4827250000000  0.5627740000000 1.0
C      1  0.5863780000000  0.5723820000000  0.5388180000000 1.0
C      1  0.5490620000000  0.4376460000000  0.4529640000000 1.0
C      1  0.4333710000000  0.5339580000000  0.4305440000000 1.0
C      1  0.5720010000000  0.4735670000000  0.5813740000000 1.0
C      1  0.3991940000000  0.5197030000000  0.5170110000000 1.0
C      1  0.5011160000000  0.5843620000000  0.4362180000000 1.0
C      1  0.5273180000000  0.4987360000000  0.4902170000000 1.0
C      1  0.5925130000000  0.5126240000000  0.4584650000000 1.0
C      1  0.5189770000000  0.5009860000000  0.3937880000000 1.0
C      1  0.4561460000000  0.4205480000000  0.5573690000000 1.0
C      1  0.5010260000000  0.4771090000000  0.3921820000000 1.0
C      1  0.4910970000000  0.4638990000000  0.5561680000000 1.0
C      1  0.3896410000000  0.5158840000000  0.4626420000000 1.0
C      1  0.5396770000000  0.4504600000000  0.5020350000000 1.0
C      1  0.5191080000000  0.5968660000000  0.5643670000000 1.0
C      1  0.5275300000000  0.5181060000000  0.4352580000000 1.0
C      1  0.4518280000000  0.4833020000000  0.5994650000000 1.0
C      1  0.4034720000000  0.5384620000000  0.4905470000000 1.0
C      1  0.6060770000000  0.4918180000000  0.4811220000000 1.0
C      1  0.5319080000000  0.4642520000000  0.5262980000000 1.0
C      1  0.4951240000000  0.5982070000000  0.4801560000000 1.0
C      1  0.4958530000000  0.5113860000000  0.4522740000000 1.0
C      1  0.5128370000000  0.4505020000000  0.4874000000000 1.0
C      1  0.4737600000000  0.5024210000000  0.6003530000000 1.0
C      1  0.3874320000000  0.4767350000000  0.5401120000000 1.0
C      1  0.4529820000000  0.4217220000000  0.4328230000000 1.0
C      1  0.5411520000000  0.5382370000000  0.4564890000000 1.0
C      1  0.4005390000000  0.4764020000000  0.4911140000000 1.0
C      1  0.4246020000000  0.4244340000000  0.5565770000000 1.0
C      1  0.5905070000000  0.5858510000000  0.5150750000000 1.0
C      1  0.4902290000000  0.3889890000000  0.5097110000000 1.0
C      1  0.5181020000000  0.5435820000000  0.4751580000000 1.0
C      1  0.5459530000000  0.4937770000000  0.4029290000000 1.0
C      1  0.6032940000000  0.4810000000000  0.5469160000000 1.0
C      1  0.5608160000000  0.4564590000000  0.4335940000000 1.0
C      1  0.4236320000000  0.4677140000000  0.4255610000000 1.0
C      1  0.4221210000000  0.4603730000000  0.5049990000000 1.0
C      1  0.5092360000000  0.4771620000000  0.5373420000000 1.0
C      1  0.4493940000000  0.4635690000000  0.4947720000000 1.0
C      1  0.5570950000000  0.5223840000000  0.5603530000000 1.0
C      1  0.5580110000000  0.5730160000000  0.5458190000000 1.0
C      1  0.4455630000000  0.4737100000000  0.4469900000000 1.0
C      1  0.4402640000000  0.4657500000000  0.5528440000000 1.0
C      1  0.4339630000000  0.5131020000000  0.5346750000000 1.0
C      1  0.5454000000000  0.5377580000000  0.5123220000000 1.0
C      1  0.5047020000000  0.4812980000000  0.4917460000000 1.0
C      1  0.4762390000000  0.3714700000000  0.4632550000000 1.0
C      1  0.4792640000000  0.6055370000000  0.5034020000000 1.0
C      1  0.4724220000000  0.5297130000000  0.5560690000000 1.0
C      1  0.5900830000000  0.5543390000000  0.4296810000000 1.0
C      1  0.4157910000000  0.5149060000000  0.5600470000000 1.0
C      1  0.5666000000000  0.5104840000000  0.4162440000000 1.0
C      1  0.5961370000000  0.4410310000000  0.4782290000000 1.0
C      1  0.5169070000000  0.3954850000000  0.4985650000000 1.0
C      1  0.4943970000000  0.6031250000000  0.5287210000000 1.0
C      1  0.4599790000000  0.4948580000000  0.4883040000000 1.0
C      1  0.3860950000000  0.4485500000000  0.5388670000000 1.0
C      1  0.4161410000000  0.4390520000000  0.4595770000000 1.0
C      1  0.5682560000000  0.4292270000000  0.4753870000000 1.0
C      1  0.4614950000000  0.4303560000000  0.4588780000000 1.0
C      1  0.4665420000000  0.4455550000000  0.5114240000000 1.0
C      1  0.5275590000000  0.5883000000000  0.4493450000000 1.0
C      1  0.4126600000000  0.5142770000000  0.4197440000000 1.0
C      1  0.5097250000000  0.4654660000000  0.4382490000000 1.0
C      1  0.5319020000000  0.4123080000000  0.5427760000000 1.0
C      1  0.4932480000000  0.4904400000000  0.5174860000000 1.0
C      1  0.4531760000000  0.5003460000000  0.3960540000000 1.0
C      1  0.4517450000000  0.5210680000000  0.4509030000000 1.0
C      1  0.4142710000000  0.4686790000000  0.5809920000000 1.0
C      1  0.6055390000000  0.5572950000000  0.4749360000000 1.0
C      1  0.5243190000000  0.5965740000000  0.4780910000000 1.0
C      1  0.4334020000000  0.5320320000000  0.5820440000000 1.0
C      1  0.4292770000000  0.5581500000000  0.5692160000000 1.0
C      1  0.5749670000000  0.5755300000000  0.4442750000000 1.0
C      1  0.5980240000000  0.5458870000000  0.5461800000000 1.0
C      1  0.4991330000000  0.4865180000000  0.6009570000000 1.0
C      1  0.5164590000000  0.5534560000000  0.5491810000000 1.0
C      1  0.5037810000000  0.5731210000000  0.5268630000000 1.0
C      1  0.4809020000000  0.4158200000000  0.4755380000000 1.0
C      1  0.3940330000000  0.4590770000000  0.4646830000000 1.0
C      1  0.5820960000000  0.5739190000000  0.4718270000000 1.0
C      1  0.5222840000000  0.3922200000000  0.4713310000000 1.0
C      1  0.4140810000000  0.5568680000000  0.5441720000000 1.0
C      1  0.5837200000000  0.4775760000000  0.5001040000000 1.0
C      1  0.5368360000000  0.5196480000000  0.5834940000000 1.0
C      1  0.5214620000000  0.5265890000000  0.4990330000000 1.0
C      1  0.5871540000000  0.4696110000000  0.4382570000000 1.0
C      1  0.5319450000000  0.4879260000000  0.4444510000000 1.0
C      1  0.5694110000000  0.5397560000000  0.4120550000000 1.0
C      1  0.5830710000000  0.4290100000000  0.5224960000000 1.0
C      1  0.4653880000000  0.3978330000000  0.4247790000000 1.0
C      1  0.5558730000000  0.5761770000000  0.5754310000000 1.0
C      1  0.4261440000000  0.5587450000000  0.4460540000000 1.0
END
