TITL C-950523-3027-272 -2.82472040577769e-06 125000 -370.057709195926 0 0 60 (C1) n - 1
REM
REM in /home/bkarasulu/work/CARBON/AIRSS/Generating-Clusters/EDIP-Nigel-Params/with-SteepDescent/Only-C1/SD-CG/HFTN-CG
REM
REM
REM
REM
REM
REM ./C.cell (11c1c37f851c82e70ff6c80c92926a4b)
REM
REM compiler GCC version 9.2.1 20190827 (Red Hat 9.2.1-1)
REM options -cpp -mtune=generic -march=x86-64 -g -O0 -fpre-include=/usr/include/finclude/math-vector-fortran.h
REM seed -2099413859 906236828 -1469856296 -1316658784 -697049725 -1846604649 204985724 1430311207 1424807151 -700727008 659115649 -1726948848 -1273720749 39278122 129263410 1366015798 1774468435 862624211 -197154769 865341042 1903719762 31951327 -280921181 -1955168368 1110318847 -154691589 -842244642 1404380594 1826120026 -704983659 1298267580 1026072147 -1490025541
REM
CELL 1.54180   50.00000   50.00000   50.00000   90.00000   90.00000   90.00000
LATT -1
SFAC C  
C      1  0.5201210000000  0.4325480000000  0.5452980000000 1.0
C      1  0.4600440000000  0.5197240000000  0.5356850000000 1.0
C      1  0.4432490000000  0.5424040000000  0.5241310000000 1.0
C      1  0.5645990000000  0.4596590000000  0.5378980000000 1.0
C      1  0.5001110000000  0.4339960000000  0.4495980000000 1.0
C      1  0.5267240000000  0.5454570000000  0.5466790000000 1.0
C      1  0.4778550000000  0.5076260000000  0.4810800000000 1.0
C      1  0.5391430000000  0.4797980000000  0.4447240000000 1.0
C      1  0.5592830000000  0.4979190000000  0.4508830000000 1.0
C      1  0.4888470000000  0.5598130000000  0.4576350000000 1.0
C      1  0.5490080000000  0.5333420000000  0.5343860000000 1.0
C      1  0.4808350000000  0.5389170000000  0.4410870000000 1.0
C      1  0.4636670000000  0.5183580000000  0.4552890000000 1.0
C      1  0.5468470000000  0.5593470000000  0.4906610000000 1.0
C      1  0.4937780000000  0.4760340000000  0.4238240000000 1.0
C      1  0.4885470000000  0.5264470000000  0.5261560000000 1.0
C      1  0.4871610000000  0.4585190000000  0.4457130000000 1.0
C      1  0.4995640000000  0.5308230000000  0.4220560000000 1.0
C      1  0.5539830000000  0.4834420000000  0.5488180000000 1.0
C      1  0.4816280000000  0.5335130000000  0.4966480000000 1.0
C      1  0.4512540000000  0.5316000000000  0.5717360000000 1.0
C      1  0.4951390000000  0.5110570000000  0.5802090000000 1.0
C      1  0.5109350000000  0.4585900000000  0.5512080000000 1.0
C      1  0.5279840000000  0.5133620000000  0.4889480000000 1.0
C      1  0.4405540000000  0.5309900000000  0.4731990000000 1.0
C      1  0.4652600000000  0.4753460000000  0.5400960000000 1.0
C      1  0.4525020000000  0.4657770000000  0.4816160000000 1.0
C      1  0.4960080000000  0.4652730000000  0.5026080000000 1.0
C      1  0.5191360000000  0.4388360000000  0.4693880000000 1.0
C      1  0.5181170000000  0.4909690000000  0.4278080000000 1.0
C      1  0.4714260000000  0.4500300000000  0.4959730000000 1.0
C      1  0.5204800000000  0.5153700000000  0.4141180000000 1.0
C      1  0.5080460000000  0.4366310000000  0.4969060000000 1.0
C      1  0.5521160000000  0.4674670000000  0.4919120000000 1.0
C      1  0.4712440000000  0.4911810000000  0.4150210000000 1.0
C      1  0.5524050000000  0.4494320000000  0.5146090000000 1.0
C      1  0.5159490000000  0.5054090000000  0.5622170000000 1.0
C      1  0.5302010000000  0.4668210000000  0.4705680000000 1.0
C      1  0.4519620000000  0.4931120000000  0.4933690000000 1.0
C      1  0.5284500000000  0.4335360000000  0.5186300000000 1.0
C      1  0.4815060000000  0.5646430000000  0.5546600000000 1.0
C      1  0.4281830000000  0.5077970000000  0.4837900000000 1.0
C      1  0.4993590000000  0.5527470000000  0.4825310000000 1.0
C      1  0.4538350000000  0.5457640000000  0.4964420000000 1.0
C      1  0.5606410000000  0.4944400000000  0.5002660000000 1.0
C      1  0.4559220000000  0.4936590000000  0.4388000000000 1.0
C      1  0.5260570000000  0.5426420000000  0.4818790000000 1.0
C      1  0.4603460000000  0.4838400000000  0.5662900000000 1.0
C      1  0.4600930000000  0.4673510000000  0.4528500000000 1.0
C      1  0.5576520000000  0.5486850000000  0.5129250000000 1.0
C      1  0.5455980000000  0.5039270000000  0.5275550000000 1.0
C      1  0.5292830000000  0.4787290000000  0.5647900000000 1.0
C      1  0.4546680000000  0.5566580000000  0.5566280000000 1.0
C      1  0.5074160000000  0.5026380000000  0.5327860000000 1.0
C      1  0.4998760000000  0.5499470000000  0.5398650000000 1.0
C      1  0.4943100000000  0.4747240000000  0.5317300000000 1.0
C      1  0.4675850000000  0.5083710000000  0.5776240000000 1.0
C      1  0.4510550000000  0.4940920000000  0.5235180000000 1.0
C      1  0.5566100000000  0.5110870000000  0.4755070000000 1.0
C      1  0.5058430000000  0.4897830000000  0.4811760000000 1.0
END
