TITL C-950527-2551-488 2.5504973977158e-06 125000 -326.040727675055 0 0 54 (C1) n - 1
REM
REM in /home/bkarasulu/work/CARBON/AIRSS/Generating-Clusters/EDIP-Nigel-Params/with-SteepDescent/Only-C1/SD-CG/HFTN-CG
REM
REM
REM
REM
REM
REM ./C.cell (11c1c37f851c82e70ff6c80c92926a4b)
REM
REM compiler GCC version 9.2.1 20190827 (Red Hat 9.2.1-1)
REM options -cpp -mtune=generic -march=x86-64 -g -O0 -fpre-include=/usr/include/finclude/math-vector-fortran.h
REM seed 581027018 -1011615201 1383850446 -1198471283 1252989637 -1871944863 -1775771039 -1253069644 1208589055 -1861264560 -185622707 1880835296 -2087403013 666127745 670086957 -615430323 -848652120 -152272052 2131833042 2092155304 -711046594 -433727525 -1661435679 1277989120 -780545717 -90887186 1522165453 -1705017300 415633565 -1940865626 963626060 -2993666 773057074
REM
CELL 1.54180   50.00000   50.00000   50.00000   90.00000   90.00000   90.00000
LATT -1
SFAC C  
C      1  0.5275500000000  0.5570000000000  0.4828750000000 1.0
C      1  0.4936180000000  0.4896030000000  0.4848530000000 1.0
C      1  0.5087790000000  0.5122930000000  0.5597440000000 1.0
C      1  0.5002180000000  0.5770830000000  0.5206080000000 1.0
C      1  0.5226100000000  0.5180520000000  0.5066870000000 1.0
C      1  0.5333330000000  0.4556100000000  0.5232320000000 1.0
C      1  0.5409770000000  0.5530650000000  0.5330380000000 1.0
C      1  0.4731940000000  0.4842040000000  0.5341540000000 1.0
C      1  0.4901280000000  0.4887570000000  0.5600480000000 1.0
C      1  0.4235200000000  0.4829340000000  0.4910560000000 1.0
C      1  0.4510990000000  0.4582180000000  0.4796870000000 1.0
C      1  0.5597690000000  0.4918480000000  0.4871160000000 1.0
C      1  0.5606220000000  0.4516340000000  0.5150380000000 1.0
C      1  0.4750960000000  0.4613520000000  0.4396170000000 1.0
C      1  0.5072920000000  0.4641470000000  0.5614390000000 1.0
C      1  0.4842790000000  0.4971720000000  0.4271880000000 1.0
C      1  0.4538480000000  0.5380740000000  0.4795860000000 1.0
C      1  0.4962710000000  0.5347750000000  0.5441300000000 1.0
C      1  0.4238200000000  0.4979510000000  0.5351750000000 1.0
C      1  0.5134310000000  0.5601940000000  0.5417100000000 1.0
C      1  0.4822010000000  0.4579230000000  0.5224150000000 1.0
C      1  0.5413480000000  0.5414180000000  0.5053190000000 1.0
C      1  0.5328900000000  0.5013450000000  0.5462990000000 1.0
C      1  0.5505860000000  0.5283490000000  0.4522080000000 1.0
C      1  0.5028360000000  0.5697540000000  0.4919840000000 1.0
C      1  0.4968290000000  0.5241520000000  0.5170340000000 1.0
C      1  0.4351710000000  0.4770300000000  0.4668630000000 1.0
C      1  0.4546610000000  0.5446760000000  0.5266540000000 1.0
C      1  0.5486820000000  0.4466330000000  0.4710650000000 1.0
C      1  0.5663020000000  0.5085900000000  0.5099800000000 1.0
C      1  0.4722380000000  0.4462820000000  0.4639160000000 1.0
C      1  0.4995170000000  0.4424730000000  0.4773840000000 1.0
C      1  0.4772700000000  0.5043700000000  0.5095230000000 1.0
C      1  0.5256190000000  0.5325450000000  0.4646130000000 1.0
C      1  0.4954510000000  0.4801930000000  0.4475320000000 1.0
C      1  0.4456520000000  0.4835490000000  0.5420430000000 1.0
C      1  0.4652330000000  0.5686670000000  0.5132300000000 1.0
C      1  0.5214920000000  0.4677850000000  0.4408760000000 1.0
C      1  0.5614410000000  0.4627960000000  0.4897660000000 1.0
C      1  0.5187600000000  0.5070990000000  0.4806350000000 1.0
C      1  0.5449830000000  0.4831580000000  0.4415040000000 1.0
C      1  0.5554430000000  0.5184720000000  0.5358650000000 1.0
C      1  0.5236110000000  0.4444840000000  0.4584770000000 1.0
C      1  0.4683060000000  0.5393880000000  0.5508050000000 1.0
C      1  0.4963470000000  0.4423400000000  0.5433470000000 1.0
C      1  0.4540200000000  0.5273730000000  0.4543550000000 1.0
C      1  0.5194470000000  0.4306550000000  0.5305180000000 1.0
C      1  0.4659490000000  0.5635250000000  0.4845550000000 1.0
C      1  0.5329400000000  0.4721870000000  0.5482110000000 1.0
C      1  0.4664590000000  0.5165650000000  0.4336480000000 1.0
C      1  0.4521470000000  0.5224710000000  0.5051790000000 1.0
C      1  0.5023530000000  0.4627760000000  0.4998940000000 1.0
C      1  0.4274100000000  0.5054410000000  0.5084100000000 1.0
C      1  0.5569510000000  0.5015720000000  0.4589090000000 1.0
END
