TITL C-950528-5794-77 -1.64623520172351e-06 125000 -945.65327602421 0 0 152 (C1) n - 1
REM
REM in /home/bkarasulu/work/CARBON/AIRSS/Generating-Clusters/EDIP-Nigel-Params/with-SteepDescent/Only-C1/SD-CG/HFTN-CG
REM
REM
REM
REM
REM
REM ./C.cell (11c1c37f851c82e70ff6c80c92926a4b)
REM
REM compiler GCC version 9.2.1 20190827 (Red Hat 9.2.1-1)
REM options -cpp -mtune=generic -march=x86-64 -g -O0 -fpre-include=/usr/include/finclude/math-vector-fortran.h
REM seed -1436890146 -722150089 1434242061 992032914 -1606252173 1912738422 1830292589 -1783423015 1805867353 -1789062530 1531901026 2135308686 1905436785 1585170178 -261840974 -44834057 -1740505877 1876918844 1129637336 -1425148810 919771295 -227974765 -173684423 296153927 799820460 -1145034131 1275203458 -511732149 -744502811 -2085342535 -630226946 -925153891 -989568927
REM
CELL 1.54180   50.00000   50.00000   50.00000   90.00000   90.00000   90.00000
LATT -1
SFAC C  
C      1  0.4767720000000  0.5206710000000  0.4038650000000 1.0
C      1  0.4652410000000  0.4084930000000  0.4645080000000 1.0
C      1  0.5605820000000  0.4549860000000  0.5543960000000 1.0
C      1  0.4625960000000  0.5102320000000  0.5438820000000 1.0
C      1  0.5333430000000  0.4692630000000  0.5546170000000 1.0
C      1  0.5530060000000  0.5984880000000  0.4704150000000 1.0
C      1  0.4331550000000  0.5641800000000  0.5220170000000 1.0
C      1  0.5269180000000  0.5397760000000  0.4559870000000 1.0
C      1  0.5200830000000  0.5157540000000  0.5370450000000 1.0
C      1  0.5323750000000  0.3988860000000  0.4927960000000 1.0
C      1  0.5255970000000  0.5409590000000  0.4078910000000 1.0
C      1  0.4362840000000  0.5656970000000  0.4747850000000 1.0
C      1  0.4569070000000  0.5550010000000  0.4301280000000 1.0
C      1  0.5217720000000  0.4594540000000  0.4269390000000 1.0
C      1  0.5429450000000  0.4731840000000  0.4102810000000 1.0
C      1  0.4108910000000  0.4788880000000  0.4690990000000 1.0
C      1  0.4234070000000  0.5352910000000  0.5224210000000 1.0
C      1  0.5668490000000  0.5149240000000  0.5654380000000 1.0
C      1  0.5745480000000  0.4566470000000  0.5274710000000 1.0
C      1  0.4546290000000  0.4116750000000  0.5476140000000 1.0
C      1  0.4634110000000  0.5549600000000  0.5579280000000 1.0
C      1  0.4852000000000  0.4868960000000  0.5048960000000 1.0
C      1  0.5054240000000  0.5198520000000  0.4170800000000 1.0
C      1  0.5030790000000  0.4887410000000  0.3877800000000 1.0
C      1  0.4098990000000  0.4452900000000  0.5535590000000 1.0
C      1  0.4538570000000  0.4502590000000  0.5723890000000 1.0
C      1  0.4537560000000  0.5082260000000  0.4202060000000 1.0
C      1  0.5090510000000  0.5162720000000  0.4487370000000 1.0
C      1  0.4491400000000  0.4831450000000  0.4671250000000 1.0
C      1  0.5149080000000  0.4213460000000  0.4560220000000 1.0
C      1  0.4024610000000  0.5314030000000  0.4976180000000 1.0
C      1  0.5072250000000  0.4545170000000  0.5459520000000 1.0
C      1  0.5264650000000  0.6012140000000  0.4786530000000 1.0
C      1  0.5919360000000  0.4905880000000  0.4691230000000 1.0
C      1  0.4394960000000  0.4736930000000  0.5819710000000 1.0
C      1  0.4444510000000  0.4593710000000  0.4236720000000 1.0
C      1  0.4829810000000  0.4098900000000  0.5454210000000 1.0
C      1  0.4542380000000  0.5207150000000  0.5946120000000 1.0
C      1  0.5448350000000  0.5166020000000  0.5869450000000 1.0
C      1  0.5308930000000  0.4933290000000  0.3928120000000 1.0
C      1  0.5318410000000  0.4654910000000  0.4549720000000 1.0
C      1  0.5450820000000  0.5205280000000  0.3978480000000 1.0
C      1  0.5407540000000  0.4099710000000  0.4663700000000 1.0
C      1  0.5078180000000  0.5835860000000  0.4624850000000 1.0
C      1  0.4205200000000  0.4500000000000  0.4652710000000 1.0
C      1  0.4749180000000  0.5356120000000  0.5377300000000 1.0
C      1  0.4630110000000  0.5991830000000  0.5335820000000 1.0
C      1  0.4700720000000  0.6035960000000  0.4868340000000 1.0
C      1  0.5127430000000  0.4302720000000  0.4263050000000 1.0
C      1  0.4974910000000  0.4300360000000  0.5630730000000 1.0
C      1  0.4932620000000  0.4139310000000  0.5168780000000 1.0
C      1  0.5761470000000  0.4975410000000  0.4950860000000 1.0
C      1  0.4781840000000  0.5154660000000  0.4927290000000 1.0
C      1  0.5691860000000  0.5763220000000  0.4639140000000 1.0
C      1  0.5278560000000  0.4502820000000  0.5007220000000 1.0
C      1  0.5069660000000  0.5497830000000  0.5019880000000 1.0
C      1  0.4929330000000  0.4028310000000  0.4665670000000 1.0
C      1  0.4322670000000  0.4859980000000  0.4212200000000 1.0
C      1  0.5246650000000  0.5697370000000  0.5452150000000 1.0
C      1  0.5681110000000  0.5147080000000  0.4172640000000 1.0
C      1  0.4219280000000  0.5240770000000  0.5522980000000 1.0
C      1  0.5114810000000  0.5566520000000  0.4738680000000 1.0
C      1  0.5334130000000  0.5577430000000  0.4321110000000 1.0
C      1  0.3931740000000  0.5031780000000  0.4927200000000 1.0
C      1  0.4429030000000  0.4728720000000  0.5304000000000 1.0
C      1  0.4703900000000  0.4675190000000  0.4864890000000 1.0
C      1  0.5369630000000  0.4195150000000  0.5792630000000 1.0
C      1  0.4300880000000  0.4420230000000  0.4401100000000 1.0
C      1  0.5328130000000  0.5401980000000  0.5516970000000 1.0
C      1  0.6193620000000  0.4870500000000  0.4748180000000 1.0
C      1  0.4866200000000  0.4731060000000  0.5530720000000 1.0
C      1  0.5343240000000  0.4420520000000  0.5946360000000 1.0
C      1  0.5147050000000  0.4478790000000  0.4714430000000 1.0
C      1  0.5307280000000  0.4930980000000  0.5984370000000 1.0
C      1  0.5547590000000  0.5275300000000  0.4631750000000 1.0
C      1  0.4420970000000  0.5138650000000  0.5049740000000 1.0
C      1  0.4885240000000  0.4591720000000  0.4651200000000 1.0
C      1  0.4309430000000  0.4854910000000  0.5076650000000 1.0
C      1  0.5617410000000  0.5385330000000  0.5408320000000 1.0
C      1  0.4705590000000  0.4848820000000  0.5316970000000 1.0
C      1  0.4903020000000  0.4648820000000  0.6000640000000 1.0
C      1  0.5634680000000  0.5623410000000  0.4371780000000 1.0
C      1  0.5255590000000  0.4987820000000  0.4916260000000 1.0
C      1  0.5593020000000  0.4565780000000  0.4623410000000 1.0
C      1  0.5832520000000  0.5717240000000  0.5122110000000 1.0
C      1  0.4119330000000  0.5462680000000  0.4719680000000 1.0
C      1  0.5985440000000  0.4974310000000  0.5152760000000 1.0
C      1  0.5312340000000  0.4209920000000  0.5139600000000 1.0
C      1  0.5784930000000  0.4736520000000  0.4488660000000 1.0
C      1  0.5564100000000  0.4260270000000  0.5596500000000 1.0
C      1  0.5451610000000  0.4817600000000  0.5062370000000 1.0
C      1  0.5471940000000  0.6062750000000  0.5234020000000 1.0
C      1  0.4223650000000  0.4430460000000  0.5164850000000 1.0
C      1  0.5020910000000  0.6193860000000  0.5162090000000 1.0
C      1  0.4489630000000  0.5768890000000  0.5432500000000 1.0
C      1  0.5255450000000  0.4944880000000  0.4629140000000 1.0
C      1  0.4961500000000  0.4950500000000  0.5680350000000 1.0
C      1  0.5027520000000  0.3945790000000  0.4935580000000 1.0
C      1  0.4378500000000  0.4324230000000  0.5566850000000 1.0
C      1  0.4211650000000  0.5237060000000  0.4520230000000 1.0
C      1  0.4412570000000  0.5394160000000  0.5727680000000 1.0
C      1  0.5026480000000  0.4560080000000  0.5154350000000 1.0
C      1  0.4499910000000  0.5667440000000  0.4998360000000 1.0
C      1  0.4027340000000  0.4840980000000  0.5121230000000 1.0
C      1  0.4686960000000  0.4523070000000  0.4076500000000 1.0
C      1  0.4845570000000  0.5202430000000  0.6027450000000 1.0
C      1  0.4579940000000  0.5695440000000  0.4553560000000 1.0
C      1  0.5429890000000  0.4683310000000  0.5918810000000 1.0
C      1  0.4283430000000  0.4338210000000  0.4886040000000 1.0
C      1  0.3964110000000  0.4565420000000  0.5195290000000 1.0
C      1  0.4863680000000  0.5639180000000  0.5761200000000 1.0
C      1  0.5931640000000  0.4781630000000  0.5365090000000 1.0
C      1  0.4536210000000  0.4190490000000  0.4877300000000 1.0
C      1  0.5732380000000  0.5342530000000  0.4401620000000 1.0
C      1  0.5249610000000  0.5244400000000  0.5084760000000 1.0
C      1  0.4818070000000  0.5172040000000  0.4620360000000 1.0
C      1  0.5796050000000  0.4887250000000  0.5606080000000 1.0
C      1  0.5808380000000  0.4232250000000  0.4905900000000 1.0
C      1  0.6225430000000  0.4936180000000  0.5010540000000 1.0
C      1  0.4389550000000  0.5323040000000  0.4296690000000 1.0
C      1  0.5137410000000  0.5733080000000  0.5184050000000 1.0
C      1  0.5567740000000  0.4159980000000  0.5316950000000 1.0
C      1  0.4779320000000  0.5899520000000  0.4636760000000 1.0
C      1  0.4778210000000  0.5422570000000  0.5084640000000 1.0
C      1  0.4235480000000  0.4913650000000  0.5502610000000 1.0
C      1  0.4794110000000  0.4429300000000  0.5846710000000 1.0
C      1  0.4581040000000  0.4988260000000  0.5747350000000 1.0
C      1  0.4887990000000  0.4744040000000  0.4402700000000 1.0
C      1  0.4393270000000  0.5118760000000  0.4738360000000 1.0
C      1  0.4725280000000  0.4335650000000  0.5048370000000 1.0
C      1  0.4789950000000  0.5483020000000  0.4128800000000 1.0
C      1  0.5532110000000  0.5315680000000  0.5121850000000 1.0
C      1  0.4688380000000  0.4956270000000  0.4452000000000 1.0
C      1  0.5290390000000  0.5410050000000  0.5893570000000 1.0
C      1  0.5722800000000  0.5672790000000  0.5379230000000 1.0
C      1  0.4109560000000  0.4712190000000  0.5691900000000 1.0
C      1  0.5004560000000  0.4923380000000  0.5962320000000 1.0
C      1  0.4814830000000  0.4730300000000  0.3935120000000 1.0
C      1  0.5380750000000  0.4912450000000  0.5353140000000 1.0
C      1  0.4998340000000  0.5422170000000  0.5903940000000 1.0
C      1  0.5702850000000  0.5307950000000  0.4885890000000 1.0
C      1  0.4122620000000  0.4949270000000  0.4430220000000 1.0
C      1  0.4865400000000  0.4318150000000  0.4157990000000 1.0
C      1  0.5499680000000  0.5859740000000  0.5431800000000 1.0
C      1  0.4753890000000  0.6126550000000  0.5125970000000 1.0
C      1  0.5630650000000  0.4871810000000  0.4269350000000 1.0
C      1  0.5058440000000  0.5801100000000  0.5644600000000 1.0
C      1  0.5794750000000  0.4294020000000  0.5178600000000 1.0
C      1  0.5812000000000  0.5598820000000  0.4866590000000 1.0
C      1  0.5644750000000  0.4281640000000  0.4684030000000 1.0
C      1  0.5225010000000  0.6004790000000  0.5086540000000 1.0
C      1  0.5174330000000  0.5820060000000  0.4350090000000 1.0
END
