TITL C-951348-1603-513 9.4429874690908e-07 125000 -909.7489373694 0 0 146 (C1) n - 1
REM
REM in /home/bkarasulu/work/CARBON/AIRSS/Generating-Clusters/EDIP-Nigel-Params/with-SteepDescent/Only-C1/SD-CG/HFTN-CG
REM
REM
REM
REM
REM
REM ./C.cell (11c1c37f851c82e70ff6c80c92926a4b)
REM
REM compiler GCC version 9.2.1 20190827 (Red Hat 9.2.1-1)
REM options -cpp -mtune=generic -march=x86-64 -g -O0 -fpre-include=/usr/include/finclude/math-vector-fortran.h
REM seed 86165375 1415744564 -769296728 1992527201 -1702598380 -1421068366 -1284121805 -1892644640 -131649506 -1157358748 -1282301253 1390317068 878245956 1813555777 1817290322 202071647 9533198 -1866897325 -317874156 -1608174290 -508831189 -336701908 1557705077 748728150 -1898734706 1440802684 526153611 -191790009 -928624667 -1275190544 1971322245 586359221 1309694139
REM
CELL 1.54180   50.00000   50.00000   50.00000   90.00000   90.00000   90.00000
LATT -1
SFAC C  
C      1  0.5114920000000  0.3864200000000  0.5155280000000 1.0
C      1  0.5119650000000  0.4461430000000  0.5315850000000 1.0
C      1  0.4807020000000  0.5235210000000  0.4686260000000 1.0
C      1  0.5403330000000  0.5428680000000  0.5171740000000 1.0
C      1  0.4569390000000  0.5690940000000  0.4442200000000 1.0
C      1  0.4806650000000  0.4954190000000  0.5992710000000 1.0
C      1  0.5473080000000  0.4859850000000  0.5803920000000 1.0
C      1  0.5933960000000  0.4821030000000  0.5442670000000 1.0
C      1  0.5530780000000  0.4177000000000  0.4615890000000 1.0
C      1  0.4482240000000  0.4059410000000  0.4841540000000 1.0
C      1  0.4853940000000  0.4473780000000  0.5664490000000 1.0
C      1  0.5021650000000  0.5019850000000  0.4314880000000 1.0
C      1  0.5085880000000  0.5554790000000  0.5929710000000 1.0
C      1  0.4904260000000  0.5416270000000  0.4909500000000 1.0
C      1  0.5028070000000  0.4758420000000  0.5954900000000 1.0
C      1  0.4976270000000  0.4002310000000  0.5363680000000 1.0
C      1  0.5250700000000  0.3920520000000  0.4911280000000 1.0
C      1  0.4724700000000  0.5564640000000  0.5088530000000 1.0
C      1  0.4383560000000  0.5136810000000  0.5874870000000 1.0
C      1  0.4522610000000  0.4557820000000  0.4878050000000 1.0
C      1  0.5400180000000  0.5579330000000  0.4895980000000 1.0
C      1  0.5551250000000  0.5427820000000  0.5636140000000 1.0
C      1  0.5016800000000  0.5260620000000  0.4491450000000 1.0
C      1  0.5372860000000  0.4981810000000  0.5551120000000 1.0
C      1  0.4788060000000  0.4495880000000  0.4396220000000 1.0
C      1  0.5830460000000  0.4727180000000  0.4930900000000 1.0
C      1  0.4211990000000  0.5556350000000  0.4705420000000 1.0
C      1  0.4327140000000  0.4915290000000  0.5418020000000 1.0
C      1  0.4514990000000  0.4871140000000  0.5936590000000 1.0
C      1  0.5766430000000  0.5723030000000  0.5244810000000 1.0
C      1  0.5150120000000  0.5329100000000  0.4037490000000 1.0
C      1  0.5015260000000  0.4805930000000  0.4844470000000 1.0
C      1  0.4126790000000  0.4673670000000  0.4500250000000 1.0
C      1  0.5622860000000  0.4346040000000  0.5559570000000 1.0
C      1  0.5884580000000  0.4742240000000  0.5731400000000 1.0
C      1  0.4326390000000  0.5266310000000  0.4737280000000 1.0
C      1  0.4895090000000  0.4911380000000  0.3910530000000 1.0
C      1  0.5102450000000  0.5299720000000  0.5821440000000 1.0
C      1  0.4204880000000  0.5448050000000  0.4236370000000 1.0
C      1  0.4597370000000  0.4714950000000  0.4395420000000 1.0
C      1  0.4481580000000  0.5438080000000  0.5195580000000 1.0
C      1  0.4968970000000  0.5787960000000  0.5858590000000 1.0
C      1  0.5285180000000  0.4850520000000  0.6022920000000 1.0
C      1  0.4681490000000  0.4065860000000  0.5327220000000 1.0
C      1  0.4529270000000  0.4786180000000  0.4689180000000 1.0
C      1  0.5233970000000  0.4337240000000  0.4315030000000 1.0
C      1  0.4435220000000  0.4649320000000  0.5754870000000 1.0
C      1  0.5399000000000  0.6007940000000  0.4986460000000 1.0
C      1  0.5155550000000  0.4213250000000  0.5477090000000 1.0
C      1  0.5676330000000  0.4538550000000  0.5761240000000 1.0
C      1  0.5069420000000  0.4520280000000  0.4488150000000 1.0
C      1  0.4582940000000  0.3944790000000  0.5087650000000 1.0
C      1  0.5433530000000  0.4786140000000  0.4143940000000 1.0
C      1  0.4672630000000  0.5842650000000  0.4996630000000 1.0
C      1  0.4699480000000  0.5964350000000  0.5499510000000 1.0
C      1  0.5209480000000  0.5947630000000  0.5197090000000 1.0
C      1  0.4228190000000  0.4893970000000  0.4700330000000 1.0
C      1  0.4425790000000  0.5269320000000  0.4249780000000 1.0
C      1  0.4033710000000  0.5237530000000  0.5309080000000 1.0
C      1  0.4638150000000  0.4248890000000  0.4412130000000 1.0
C      1  0.4613020000000  0.5304370000000  0.4018890000000 1.0
C      1  0.4612120000000  0.5522600000000  0.5673690000000 1.0
C      1  0.5292040000000  0.5265320000000  0.5596930000000 1.0
C      1  0.5523000000000  0.5393960000000  0.4675290000000 1.0
C      1  0.4861730000000  0.5435520000000  0.4117440000000 1.0
C      1  0.5861610000000  0.5115240000000  0.5420560000000 1.0
C      1  0.5754370000000  0.4996360000000  0.5859380000000 1.0
C      1  0.5032040000000  0.5652710000000  0.5387810000000 1.0
C      1  0.5798970000000  0.5246440000000  0.5679500000000 1.0
C      1  0.5585290000000  0.4962160000000  0.5332370000000 1.0
C      1  0.5484290000000  0.4101660000000  0.4897010000000 1.0
C      1  0.4088480000000  0.4853320000000  0.4969750000000 1.0
C      1  0.5557700000000  0.5177220000000  0.5103520000000 1.0
C      1  0.4019110000000  0.4600730000000  0.5066290000000 1.0
C      1  0.5084710000000  0.4525660000000  0.4824340000000 1.0
C      1  0.5993150000000  0.4953680000000  0.4852500000000 1.0
C      1  0.4765370000000  0.4954810000000  0.4798940000000 1.0
C      1  0.4168140000000  0.4371270000000  0.4601320000000 1.0
C      1  0.4566880000000  0.5368840000000  0.5916010000000 1.0
C      1  0.4856880000000  0.4942280000000  0.5526100000000 1.0
C      1  0.4725720000000  0.4948450000000  0.4249530000000 1.0
C      1  0.5446070000000  0.4895390000000  0.4649460000000 1.0
C      1  0.5411520000000  0.4167530000000  0.5592330000000 1.0
C      1  0.5933300000000  0.5110530000000  0.4609060000000 1.0
C      1  0.4432750000000  0.5191640000000  0.5034840000000 1.0
C      1  0.5479780000000  0.4509380000000  0.4265300000000 1.0
C      1  0.4691060000000  0.5011090000000  0.5073810000000 1.0
C      1  0.5524720000000  0.5834000000000  0.4541380000000 1.0
C      1  0.4595640000000  0.4774590000000  0.5427010000000 1.0
C      1  0.5138070000000  0.5053710000000  0.3949890000000 1.0
C      1  0.4502150000000  0.5359160000000  0.5475390000000 1.0
C      1  0.4494490000000  0.4247160000000  0.5459960000000 1.0
C      1  0.5629210000000  0.4450620000000  0.4528870000000 1.0
C      1  0.4297680000000  0.5174180000000  0.5580660000000 1.0
C      1  0.5006670000000  0.4709210000000  0.5663410000000 1.0
C      1  0.5025500000000  0.5805020000000  0.4367350000000 1.0
C      1  0.4336020000000  0.4619350000000  0.4279230000000 1.0
C      1  0.5083780000000  0.3978560000000  0.4664320000000 1.0
C      1  0.4887640000000  0.4149450000000  0.4954780000000 1.0
C      1  0.5841550000000  0.5273890000000  0.5008890000000 1.0
C      1  0.5929040000000  0.5511650000000  0.5152830000000 1.0
C      1  0.5747660000000  0.4987120000000  0.4429060000000 1.0
C      1  0.5810240000000  0.5354020000000  0.4721160000000 1.0
C      1  0.4209210000000  0.5039400000000  0.5168010000000 1.0
C      1  0.5628380000000  0.4443340000000  0.5280630000000 1.0
C      1  0.4584500000000  0.4416710000000  0.5676500000000 1.0
C      1  0.5202150000000  0.4804750000000  0.4445750000000 1.0
C      1  0.5846220000000  0.4633430000000  0.5212870000000 1.0
C      1  0.5128960000000  0.5553820000000  0.4502620000000 1.0
C      1  0.4669640000000  0.4626590000000  0.5126860000000 1.0
C      1  0.4925040000000  0.4439010000000  0.5081590000000 1.0
C      1  0.4650780000000  0.5050510000000  0.3883980000000 1.0
C      1  0.5175710000000  0.4906990000000  0.5065480000000 1.0
C      1  0.5334340000000  0.6010090000000  0.4689490000000 1.0
C      1  0.4659760000000  0.6002620000000  0.5234530000000 1.0
C      1  0.5708220000000  0.5781690000000  0.4759960000000 1.0
C      1  0.5365780000000  0.4607470000000  0.5218960000000 1.0
C      1  0.4329260000000  0.4328670000000  0.4857640000000 1.0
C      1  0.4306220000000  0.5747720000000  0.4902750000000 1.0
C      1  0.5582860000000  0.4646000000000  0.4759160000000 1.0
C      1  0.4143180000000  0.4353220000000  0.5092610000000 1.0
C      1  0.4946900000000  0.5881530000000  0.4848420000000 1.0
C      1  0.4277120000000  0.5647340000000  0.4427270000000 1.0
C      1  0.5531870000000  0.5044900000000  0.4247520000000 1.0
C      1  0.5367300000000  0.4526560000000  0.4928290000000 1.0
C      1  0.4244050000000  0.4282100000000  0.5342980000000 1.0
C      1  0.5098640000000  0.5615520000000  0.4802350000000 1.0
C      1  0.5376660000000  0.5050890000000  0.4906230000000 1.0
C      1  0.5289970000000  0.4092230000000  0.4467940000000 1.0
C      1  0.5298110000000  0.5807060000000  0.5429120000000 1.0
C      1  0.5674710000000  0.5898850000000  0.5017010000000 1.0
C      1  0.4549550000000  0.5320360000000  0.4540830000000 1.0
C      1  0.5407840000000  0.5323730000000  0.4204410000000 1.0
C      1  0.4346600000000  0.4318540000000  0.4354090000000 1.0
C      1  0.4256320000000  0.5625140000000  0.5159130000000 1.0
C      1  0.4825180000000  0.5730450000000  0.5612040000000 1.0
C      1  0.5141800000000  0.5357570000000  0.5336940000000 1.0
C      1  0.5633900000000  0.4216180000000  0.5103920000000 1.0
C      1  0.4982880000000  0.6009130000000  0.4580980000000 1.0
C      1  0.4703560000000  0.4056010000000  0.4631740000000 1.0
C      1  0.4013670000000  0.5492100000000  0.5201420000000 1.0
C      1  0.5528200000000  0.5613110000000  0.5386700000000 1.0
C      1  0.4972440000000  0.5079810000000  0.5246150000000 1.0
C      1  0.4841310000000  0.5160150000000  0.5775780000000 1.0
C      1  0.5425180000000  0.5541320000000  0.4434460000000 1.0
C      1  0.4788400000000  0.5694140000000  0.4247450000000 1.0
END
