TITL C-950533-5798-377 2.49890926076239e-06 125000 -326.286268454107 0 0 55 (C1) n - 1
REM
REM in /home/bkarasulu/work/CARBON/AIRSS/Generating-Clusters/EDIP-Nigel-Params/with-SteepDescent/Only-C1/SD-CG/HFTN-CG
REM
REM
REM
REM
REM
REM ./C.cell (11c1c37f851c82e70ff6c80c92926a4b)
REM
REM compiler GCC version 9.2.1 20190827 (Red Hat 9.2.1-1)
REM options -cpp -mtune=generic -march=x86-64 -g -O0 -fpre-include=/usr/include/finclude/math-vector-fortran.h
REM seed -498233294 -1919164157 -705359460 -1409484467 1268252839 751274915 -133166222 289030302 -1378453091 890313552 684966209 385690366 -57302716 -1000775054 1403252931 718888304 2133379714 650633492 1241236148 992524741 187246752 1729017732 302704 1011362859 -1722498504 -2096757770 -1486345182 994027775 1722517850 -1032584872 893858393 -504546993 -543561600
REM
CELL 1.54180   50.00000   50.00000   50.00000   90.00000   90.00000   90.00000
LATT -1
SFAC C  
C      1  0.5655560000000  0.5047360000000  0.5045230000000 1.0
C      1  0.4847170000000  0.4148700000000  0.5174110000000 1.0
C      1  0.4561280000000  0.5169230000000  0.4473050000000 1.0
C      1  0.5325610000000  0.5073390000000  0.4744860000000 1.0
C      1  0.4746860000000  0.5250320000000  0.4272960000000 1.0
C      1  0.5460230000000  0.4687740000000  0.5257850000000 1.0
C      1  0.4870400000000  0.4688750000000  0.4714940000000 1.0
C      1  0.5489020000000  0.4771500000000  0.4472480000000 1.0
C      1  0.5219920000000  0.4483940000000  0.5610390000000 1.0
C      1  0.5024610000000  0.4855000000000  0.4270850000000 1.0
C      1  0.5158430000000  0.5440650000000  0.5343410000000 1.0
C      1  0.5636700000000  0.5251120000000  0.4590120000000 1.0
C      1  0.4811520000000  0.4706510000000  0.4414910000000 1.0
C      1  0.4781490000000  0.4421680000000  0.5111980000000 1.0
C      1  0.4941860000000  0.4879310000000  0.5639110000000 1.0
C      1  0.5420670000000  0.4699970000000  0.4743900000000 1.0
C      1  0.5544830000000  0.5254000000000  0.4866760000000 1.0
C      1  0.4672540000000  0.5813350000000  0.4904090000000 1.0
C      1  0.5102870000000  0.5207490000000  0.5202920000000 1.0
C      1  0.4690110000000  0.4480360000000  0.4838720000000 1.0
C      1  0.5319430000000  0.4454820000000  0.5352560000000 1.0
C      1  0.4853890000000  0.5127240000000  0.5770720000000 1.0
C      1  0.5011340000000  0.5486730000000  0.5585370000000 1.0
C      1  0.5010710000000  0.5475460000000  0.4695230000000 1.0
C      1  0.4531900000000  0.5030240000000  0.4895050000000 1.0
C      1  0.5110630000000  0.5382230000000  0.4270300000000 1.0
C      1  0.5144600000000  0.5574900000000  0.4467810000000 1.0
C      1  0.4442740000000  0.4899700000000  0.5309960000000 1.0
C      1  0.5057570000000  0.5323990000000  0.5818990000000 1.0
C      1  0.4850280000000  0.4971710000000  0.4860760000000 1.0
C      1  0.5549020000000  0.4885170000000  0.5445660000000 1.0
C      1  0.4347120000000  0.4832670000000  0.5033730000000 1.0
C      1  0.4974830000000  0.4970570000000  0.5133750000000 1.0
C      1  0.4670970000000  0.5632200000000  0.5110590000000 1.0
C      1  0.4445540000000  0.4665380000000  0.4776370000000 1.0
C      1  0.5429060000000  0.4891760000000  0.5699370000000 1.0
C      1  0.4547870000000  0.4852440000000  0.4510720000000 1.0
C      1  0.5279760000000  0.4742790000000  0.4291890000000 1.0
C      1  0.4550630000000  0.5187450000000  0.5348150000000 1.0
C      1  0.4681200000000  0.4593610000000  0.5317050000000 1.0
C      1  0.4730340000000  0.5587250000000  0.4729800000000 1.0
C      1  0.5629260000000  0.5012590000000  0.4448620000000 1.0
C      1  0.5191790000000  0.4739040000000  0.5727020000000 1.0
C      1  0.4507510000000  0.5398030000000  0.5144910000000 1.0
C      1  0.4821550000000  0.4849030000000  0.5361700000000 1.0
C      1  0.4685110000000  0.5282820000000  0.5586900000000 1.0
C      1  0.5071550000000  0.4036360000000  0.5288690000000 1.0
C      1  0.5033770000000  0.5169860000000  0.4682100000000 1.0
C      1  0.4397330000000  0.5293180000000  0.4899410000000 1.0
C      1  0.4502360000000  0.5401620000000  0.4654510000000 1.0
C      1  0.5675030000000  0.5104320000000  0.5323370000000 1.0
C      1  0.5539260000000  0.4779780000000  0.4996220000000 1.0
C      1  0.5224160000000  0.4243260000000  0.5188390000000 1.0
C      1  0.4993480000000  0.5135230000000  0.4375950000000 1.0
C      1  0.5226690000000  0.5656180000000  0.5205760000000 1.0
END
