TITL C-950533-5798-600 9.67666808995675e-07 125000 -1032.54928488168 0 0 165 (C1) n - 1
REM
REM in /home/bkarasulu/work/CARBON/AIRSS/Generating-Clusters/EDIP-Nigel-Params/with-SteepDescent/Only-C1/SD-CG/HFTN-CG
REM
REM
REM
REM
REM
REM ./C.cell (11c1c37f851c82e70ff6c80c92926a4b)
REM
REM compiler GCC version 9.2.1 20190827 (Red Hat 9.2.1-1)
REM options -cpp -mtune=generic -march=x86-64 -g -O0 -fpre-include=/usr/include/finclude/math-vector-fortran.h
REM seed -1655424519 -1572396086 748024607 -156115139 1983654202 2200808 780357008 1407392354 1052265632 565272408 13471 -1431582910 -458734717 300087968 1537985392 169748146 965508316 -757535094 448793051 350949625 -673020781 -2079518004 -1061566966 892055894 1712423879 -1722823234 529359809 -223294544 -1589348143 -302787121 262457920 136323712 -24646073
REM
CELL 1.54180   50.00000   50.00000   50.00000   90.00000   90.00000   90.00000
LATT -1
SFAC C  
C      1  0.5940990000000  0.5332990000000  0.4428510000000 1.0
C      1  0.4637200000000  0.5521480000000  0.4114840000000 1.0
C      1  0.5718330000000  0.4556140000000  0.4619220000000 1.0
C      1  0.5591960000000  0.5562200000000  0.4113520000000 1.0
C      1  0.4381930000000  0.5165010000000  0.4778900000000 1.0
C      1  0.5060150000000  0.4861430000000  0.3995800000000 1.0
C      1  0.4205970000000  0.4343650000000  0.5330410000000 1.0
C      1  0.5315500000000  0.5241420000000  0.4245430000000 1.0
C      1  0.4969450000000  0.5923860000000  0.4395350000000 1.0
C      1  0.5524310000000  0.5265550000000  0.4030010000000 1.0
C      1  0.5028800000000  0.5891890000000  0.5488020000000 1.0
C      1  0.4766750000000  0.4874380000000  0.3949840000000 1.0
C      1  0.5232030000000  0.3950120000000  0.5245340000000 1.0
C      1  0.5899830000000  0.5456100000000  0.5374050000000 1.0
C      1  0.5288950000000  0.5075650000000  0.6091430000000 1.0
C      1  0.4913700000000  0.4246840000000  0.5740500000000 1.0
C      1  0.4884820000000  0.4428420000000  0.4048310000000 1.0
C      1  0.4911560000000  0.4979760000000  0.4587620000000 1.0
C      1  0.5024740000000  0.4883330000000  0.5361890000000 1.0
C      1  0.4264070000000  0.4234280000000  0.5608020000000 1.0
C      1  0.5293140000000  0.4801330000000  0.4434350000000 1.0
C      1  0.4142650000000  0.5002640000000  0.5535690000000 1.0
C      1  0.5157120000000  0.5452660000000  0.4727160000000 1.0
C      1  0.4710420000000  0.5088800000000  0.4143610000000 1.0
C      1  0.4227450000000  0.4811310000000  0.4442100000000 1.0
C      1  0.5486300000000  0.5778050000000  0.5344380000000 1.0
C      1  0.4068220000000  0.4580620000000  0.4866820000000 1.0
C      1  0.5772210000000  0.5578220000000  0.4358100000000 1.0
C      1  0.5069760000000  0.4985720000000  0.5895120000000 1.0
C      1  0.5018690000000  0.4577140000000  0.6061840000000 1.0
C      1  0.4429560000000  0.5437420000000  0.5675650000000 1.0
C      1  0.5587810000000  0.4237090000000  0.5031630000000 1.0
C      1  0.4551060000000  0.5609230000000  0.4388200000000 1.0
C      1  0.5400520000000  0.4585640000000  0.4258940000000 1.0
C      1  0.4498880000000  0.4339590000000  0.5253000000000 1.0
C      1  0.5251790000000  0.6145210000000  0.5084160000000 1.0
C      1  0.5729440000000  0.5084330000000  0.4102620000000 1.0
C      1  0.5912370000000  0.4739380000000  0.5314810000000 1.0
C      1  0.5919820000000  0.4698770000000  0.5024200000000 1.0
C      1  0.6069480000000  0.5205070000000  0.4905000000000 1.0
C      1  0.4757910000000  0.6032430000000  0.5163910000000 1.0
C      1  0.4466520000000  0.4928420000000  0.5214190000000 1.0
C      1  0.4228050000000  0.4778270000000  0.5341590000000 1.0
C      1  0.5441920000000  0.4077680000000  0.4826430000000 1.0
C      1  0.4945580000000  0.3966170000000  0.5322600000000 1.0
C      1  0.5263480000000  0.3873740000000  0.4964990000000 1.0
C      1  0.5437980000000  0.5919510000000  0.4594250000000 1.0
C      1  0.4354180000000  0.5843580000000  0.4780650000000 1.0
C      1  0.4415640000000  0.4389710000000  0.4428470000000 1.0
C      1  0.4787660000000  0.5831980000000  0.4928070000000 1.0
C      1  0.4578720000000  0.5093290000000  0.5434430000000 1.0
C      1  0.4596760000000  0.5941030000000  0.5388310000000 1.0
C      1  0.4887890000000  0.4296120000000  0.4319820000000 1.0
C      1  0.5526390000000  0.4405850000000  0.4448050000000 1.0
C      1  0.5517240000000  0.4927060000000  0.5493150000000 1.0
C      1  0.5312290000000  0.5577940000000  0.5747900000000 1.0
C      1  0.5247970000000  0.4471140000000  0.5930420000000 1.0
C      1  0.5675520000000  0.4533240000000  0.4921200000000 1.0
C      1  0.5307390000000  0.5907160000000  0.4877560000000 1.0
C      1  0.4636080000000  0.5319230000000  0.4820830000000 1.0
C      1  0.4018170000000  0.4775480000000  0.4658460000000 1.0
C      1  0.4977170000000  0.5401950000000  0.4480120000000 1.0
C      1  0.4762480000000  0.5819760000000  0.5590880000000 1.0
C      1  0.5500420000000  0.6032680000000  0.5191790000000 1.0
C      1  0.4075770000000  0.5467350000000  0.4653540000000 1.0
C      1  0.5582720000000  0.5512350000000  0.4914930000000 1.0
C      1  0.5784750000000  0.4866630000000  0.4583280000000 1.0
C      1  0.4650980000000  0.4953630000000  0.4415240000000 1.0
C      1  0.4610700000000  0.5941950000000  0.4713240000000 1.0
C      1  0.4565760000000  0.4602580000000  0.4847540000000 1.0
C      1  0.4605320000000  0.5589930000000  0.4988880000000 1.0
C      1  0.5119630000000  0.5567270000000  0.4020940000000 1.0
C      1  0.5509510000000  0.5244140000000  0.4473930000000 1.0
C      1  0.4817600000000  0.3849190000000  0.5099990000000 1.0
C      1  0.4645910000000  0.4616260000000  0.4031640000000 1.0
C      1  0.5281630000000  0.5794370000000  0.5562440000000 1.0
C      1  0.4549240000000  0.4961300000000  0.5903930000000 1.0
C      1  0.5497580000000  0.4974250000000  0.4598740000000 1.0
C      1  0.5073720000000  0.5717900000000  0.4868130000000 1.0
C      1  0.4499640000000  0.4067330000000  0.5536580000000 1.0
C      1  0.4020410000000  0.4752020000000  0.5104450000000 1.0
C      1  0.4311630000000  0.4546260000000  0.5640930000000 1.0
C      1  0.3947860000000  0.5004120000000  0.4841190000000 1.0
C      1  0.4275130000000  0.5268000000000  0.4285290000000 1.0
C      1  0.5449460000000  0.5489640000000  0.4646990000000 1.0
C      1  0.5331120000000  0.5715470000000  0.4133840000000 1.0
C      1  0.4677080000000  0.4829800000000  0.5012910000000 1.0
C      1  0.4801790000000  0.4436590000000  0.5939990000000 1.0
C      1  0.4332540000000  0.4601410000000  0.4220390000000 1.0
C      1  0.5100170000000  0.4112930000000  0.4464530000000 1.0
C      1  0.4802120000000  0.5100260000000  0.5995660000000 1.0
C      1  0.4622850000000  0.3998380000000  0.4581700000000 1.0
C      1  0.4108900000000  0.5257160000000  0.4857070000000 1.0
C      1  0.4661260000000  0.4563310000000  0.5372650000000 1.0
C      1  0.5554480000000  0.5034210000000  0.5997330000000 1.0
C      1  0.5885550000000  0.5056780000000  0.4334500000000 1.0
C      1  0.4477570000000  0.5277250000000  0.4067200000000 1.0
C      1  0.5178140000000  0.5191380000000  0.4930770000000 1.0
C      1  0.5987440000000  0.5450880000000  0.5081960000000 1.0
C      1  0.5839580000000  0.5651590000000  0.4921500000000 1.0
C      1  0.5132780000000  0.4577380000000  0.4002410000000 1.0
C      1  0.5578930000000  0.4840680000000  0.5785390000000 1.0
C      1  0.4861490000000  0.5408340000000  0.5928360000000 1.0
C      1  0.5887810000000  0.5210240000000  0.5530200000000 1.0
C      1  0.5730010000000  0.5671230000000  0.5499340000000 1.0
C      1  0.5749390000000  0.4520130000000  0.5410150000000 1.0
C      1  0.5198540000000  0.4238180000000  0.5773590000000 1.0
C      1  0.4856640000000  0.4213170000000  0.4971160000000 1.0
C      1  0.4860250000000  0.4685200000000  0.5198050000000 1.0
C      1  0.5605290000000  0.5553110000000  0.5747960000000 1.0
C      1  0.4452910000000  0.5455780000000  0.5372450000000 1.0
C      1  0.4604320000000  0.4608040000000  0.4561340000000 1.0
C      1  0.4017850000000  0.5181090000000  0.5360000000000 1.0
C      1  0.5425850000000  0.4157360000000  0.5281270000000 1.0
C      1  0.5706080000000  0.5775880000000  0.4581970000000 1.0
C      1  0.5028700000000  0.4729780000000  0.5647390000000 1.0
C      1  0.5394030000000  0.5574980000000  0.5135440000000 1.0
C      1  0.5085020000000  0.5205880000000  0.5676860000000 1.0
C      1  0.5416830000000  0.4691670000000  0.5312820000000 1.0
C      1  0.5141980000000  0.5514130000000  0.5982380000000 1.0
C      1  0.5185170000000  0.4594370000000  0.4887620000000 1.0
C      1  0.4689490000000  0.5886440000000  0.4440770000000 1.0
C      1  0.4919300000000  0.5413760000000  0.4166160000000 1.0
C      1  0.4572210000000  0.4317610000000  0.4956490000000 1.0
C      1  0.4001960000000  0.4318820000000  0.4800730000000 1.0
C      1  0.4612850000000  0.4174050000000  0.4344720000000 1.0
C      1  0.4933490000000  0.5344090000000  0.5265220000000 1.0
C      1  0.5071630000000  0.4702610000000  0.4623640000000 1.0
C      1  0.4396340000000  0.5123200000000  0.5679680000000 1.0
C      1  0.4787980000000  0.4066180000000  0.5553590000000 1.0
C      1  0.5037460000000  0.4453300000000  0.5096740000000 1.0
C      1  0.5529610000000  0.4563430000000  0.5865190000000 1.0
C      1  0.5256300000000  0.5341750000000  0.6171470000000 1.0
C      1  0.4903030000000  0.4027520000000  0.4688570000000 1.0
C      1  0.4687410000000  0.5565030000000  0.5739970000000 1.0
C      1  0.4887060000000  0.5131490000000  0.5450870000000 1.0
C      1  0.4714790000000  0.5536110000000  0.5254690000000 1.0
C      1  0.6098120000000  0.5332990000000  0.4658040000000 1.0
C      1  0.5670090000000  0.5271200000000  0.5729130000000 1.0
C      1  0.5409570000000  0.4995570000000  0.4879620000000 1.0
C      1  0.5424100000000  0.4717170000000  0.4999640000000 1.0
C      1  0.4232690000000  0.5530630000000  0.4420570000000 1.0
C      1  0.4057210000000  0.5355120000000  0.5143310000000 1.0
C      1  0.5777910000000  0.4994630000000  0.5368210000000 1.0
C      1  0.4222500000000  0.5573990000000  0.5215350000000 1.0
C      1  0.4426340000000  0.4109560000000  0.4779300000000 1.0
C      1  0.4234120000000  0.5774320000000  0.5016350000000 1.0
C      1  0.4873360000000  0.4516540000000  0.4513820000000 1.0
C      1  0.4210050000000  0.4236330000000  0.4627230000000 1.0
C      1  0.5245830000000  0.5858300000000  0.4377060000000 1.0
C      1  0.4988800000000  0.3805300000000  0.4865960000000 1.0
C      1  0.5198350000000  0.4500700000000  0.5422130000000 1.0
C      1  0.4710690000000  0.4720720000000  0.5620440000000 1.0
C      1  0.5346100000000  0.4216480000000  0.4585750000000 1.0
C      1  0.5020300000000  0.6097420000000  0.5277940000000 1.0
C      1  0.5649370000000  0.4395150000000  0.5651110000000 1.0
C      1  0.4704470000000  0.5417290000000  0.4556770000000 1.0
C      1  0.5134430000000  0.4996110000000  0.4263260000000 1.0
C      1  0.5355550000000  0.5207460000000  0.5509590000000 1.0
C      1  0.5427480000000  0.4223330000000  0.5573920000000 1.0
C      1  0.4847140000000  0.5082480000000  0.4871590000000 1.0
C      1  0.5234760000000  0.5331300000000  0.5216250000000 1.0
C      1  0.4377350000000  0.5064370000000  0.4489090000000 1.0
C      1  0.5915680000000  0.4945460000000  0.4857060000000 1.0
C      1  0.4550210000000  0.4618080000000  0.5860600000000 1.0
END
