TITL C-951341-1326-570 -5.17405553474424e-07 125000 -261.012395904939 0 0 44 (C1) n - 1
REM
REM in /home/bkarasulu/work/CARBON/AIRSS/Generating-Clusters/EDIP-Nigel-Params/with-SteepDescent/Only-C1/SD-CG/HFTN-CG
REM
REM
REM
REM
REM
REM ./C.cell (11c1c37f851c82e70ff6c80c92926a4b)
REM
REM compiler GCC version 9.2.1 20190827 (Red Hat 9.2.1-1)
REM options -cpp -mtune=generic -march=x86-64 -g -O0 -fpre-include=/usr/include/finclude/math-vector-fortran.h
REM seed -1459719800 942987462 414750860 -1352113434 -764172102 -1335417327 -1063362875 -542503990 -754829158 -916140324 2105788291 -1439463853 1795512637 1992158545 -1045101207 1239607606 -1565495792 1289426018 -1246434018 -1965343519 -1998341806 767489540 1986054074 1910483495 337795714 997625238 -490191118 -614681347 -1180555099 1030318188 -1687571539 1404128825 -47107305
REM
CELL 1.54180   50.00000   50.00000   50.00000   90.00000   90.00000   90.00000
LATT -1
SFAC C  
C      1  0.4993040000000  0.4971810000000  0.5093040000000 1.0
C      1  0.4424940000000  0.4692160000000  0.4756690000000 1.0
C      1  0.5286670000000  0.5644440000000  0.4964420000000 1.0
C      1  0.4298860000000  0.4992440000000  0.5122680000000 1.0
C      1  0.4948320000000  0.4458510000000  0.4858600000000 1.0
C      1  0.5215280000000  0.4636920000000  0.5273760000000 1.0
C      1  0.4906500000000  0.5156070000000  0.4507530000000 1.0
C      1  0.4959870000000  0.5602310000000  0.4750650000000 1.0
C      1  0.4510900000000  0.4834280000000  0.4996850000000 1.0
C      1  0.5464820000000  0.4776430000000  0.5179900000000 1.0
C      1  0.4744290000000  0.5016950000000  0.4900010000000 1.0
C      1  0.5284900000000  0.4644350000000  0.4576630000000 1.0
C      1  0.4948990000000  0.4770340000000  0.5602370000000 1.0
C      1  0.5204340000000  0.4673800000000  0.5565630000000 1.0
C      1  0.4634180000000  0.4654350000000  0.5204000000000 1.0
C      1  0.5499620000000  0.5062570000000  0.4719350000000 1.0
C      1  0.4865460000000  0.5207360000000  0.5570960000000 1.0
C      1  0.5156580000000  0.4264540000000  0.4916620000000 1.0
C      1  0.5541780000000  0.4517430000000  0.5070140000000 1.0
C      1  0.5360770000000  0.5504410000000  0.5214150000000 1.0
C      1  0.4447000000000  0.5184680000000  0.5267250000000 1.0
C      1  0.5346240000000  0.4792590000000  0.4336850000000 1.0
C      1  0.4774930000000  0.4454830000000  0.5085190000000 1.0
C      1  0.4791350000000  0.5542850000000  0.5202700000000 1.0
C      1  0.4555700000000  0.5340960000000  0.4813720000000 1.0
C      1  0.4605330000000  0.5098130000000  0.5492700000000 1.0
C      1  0.4849150000000  0.4887500000000  0.4652380000000 1.0
C      1  0.5410120000000  0.5236390000000  0.5176340000000 1.0
C      1  0.5392240000000  0.5522250000000  0.4729940000000 1.0
C      1  0.4781250000000  0.4413830000000  0.4620540000000 1.0
C      1  0.5538610000000  0.4827910000000  0.4552750000000 1.0
C      1  0.5301780000000  0.4364940000000  0.5137300000000 1.0
C      1  0.4950500000000  0.5450880000000  0.5429590000000 1.0
C      1  0.4650060000000  0.4665320000000  0.4589640000000 1.0
C      1  0.4580200000000  0.5374580000000  0.5097150000000 1.0
C      1  0.4792330000000  0.5384660000000  0.4657620000000 1.0
C      1  0.5167600000000  0.5223480000000  0.4433960000000 1.0
C      1  0.5209430000000  0.5558210000000  0.5444830000000 1.0
C      1  0.5398980000000  0.5290390000000  0.4575840000000 1.0
C      1  0.4829790000000  0.4837540000000  0.5332900000000 1.0
C      1  0.5085390000000  0.4735230000000  0.4790370000000 1.0
C      1  0.5053260000000  0.5015440000000  0.5689410000000 1.0
C      1  0.4911010000000  0.5716310000000  0.5005610000000 1.0
C      1  0.5327640000000  0.4999620000000  0.5041430000000 1.0
END
