TITL C-950526-5686-735 2.75304638602451e-06 125000 -596.831088164094 0 0 97 (C1) n - 1
REM
REM in /home/bkarasulu/work/CARBON/AIRSS/Generating-Clusters/EDIP-Nigel-Params/with-SteepDescent/Only-C1/SD-CG/HFTN-CG
REM
REM
REM
REM
REM
REM ./C.cell (11c1c37f851c82e70ff6c80c92926a4b)
REM
REM compiler GCC version 9.2.1 20190827 (Red Hat 9.2.1-1)
REM options -cpp -mtune=generic -march=x86-64 -g -O0 -fpre-include=/usr/include/finclude/math-vector-fortran.h
REM seed -1607806337 1706540545 1170027560 -1944590846 583583612 675886393 -1271752994 -1721381019 -679793246 1789926289 -312426508 943247934 860585672 287203834 -1025192250 -2107114278 -672613676 569834192 899422523 1326698940 -1673702875 -1796205904 -561738252 -1069660983 -565711063 -1672406673 -242429329 -116643109 1296462386 2036323542 -243400668 -1253375878 -2048259712
REM
CELL 1.54180   50.00000   50.00000   50.00000   90.00000   90.00000   90.00000
LATT -1
SFAC C  
C      1  0.5977400000000  0.4903280000000  0.5017220000000 1.0
C      1  0.5029900000000  0.4943310000000  0.5746290000000 1.0
C      1  0.5347030000000  0.4958830000000  0.4309670000000 1.0
C      1  0.5535210000000  0.5792940000000  0.4945690000000 1.0
C      1  0.4952000000000  0.4566790000000  0.4863890000000 1.0
C      1  0.5115000000000  0.5408970000000  0.5837410000000 1.0
C      1  0.5156030000000  0.4223880000000  0.4679820000000 1.0
C      1  0.4497440000000  0.5020460000000  0.5674500000000 1.0
C      1  0.4278570000000  0.5106340000000  0.5489300000000 1.0
C      1  0.5986340000000  0.5275820000000  0.5337220000000 1.0
C      1  0.4874920000000  0.4146490000000  0.4748890000000 1.0
C      1  0.4592340000000  0.5425800000000  0.4438380000000 1.0
C      1  0.4922700000000  0.5177900000000  0.5906900000000 1.0
C      1  0.5532010000000  0.4569210000000  0.5215940000000 1.0
C      1  0.5028380000000  0.5846090000000  0.5104430000000 1.0
C      1  0.4202970000000  0.4657330000000  0.5246870000000 1.0
C      1  0.4471330000000  0.4546400000000  0.5656010000000 1.0
C      1  0.5306830000000  0.5021480000000  0.5067210000000 1.0
C      1  0.4892460000000  0.5100250000000  0.4228610000000 1.0
C      1  0.4624830000000  0.5152780000000  0.4334120000000 1.0
C      1  0.4863890000000  0.5788820000000  0.5336440000000 1.0
C      1  0.5536490000000  0.5404010000000  0.4466330000000 1.0
C      1  0.4518350000000  0.4812550000000  0.4873270000000 1.0
C      1  0.5573420000000  0.4810500000000  0.4421050000000 1.0
C      1  0.5152360000000  0.5146480000000  0.4658960000000 1.0
C      1  0.5356930000000  0.5252360000000  0.4287230000000 1.0
C      1  0.4196270000000  0.4526380000000  0.4967130000000 1.0
C      1  0.4141270000000  0.5066850000000  0.4364970000000 1.0
C      1  0.5937310000000  0.4817360000000  0.4751850000000 1.0
C      1  0.4773350000000  0.5394560000000  0.5527600000000 1.0
C      1  0.5180250000000  0.5428820000000  0.4798670000000 1.0
C      1  0.4564740000000  0.4333910000000  0.5218460000000 1.0
C      1  0.4392800000000  0.4998650000000  0.4257270000000 1.0
C      1  0.4537470000000  0.5487020000000  0.5373640000000 1.0
C      1  0.4564120000000  0.5740560000000  0.4948280000000 1.0
C      1  0.4903980000000  0.5043410000000  0.4806090000000 1.0
C      1  0.4497430000000  0.4770560000000  0.5815760000000 1.0
C      1  0.5541020000000  0.4528290000000  0.4498730000000 1.0
C      1  0.4286570000000  0.5226870000000  0.4806830000000 1.0
C      1  0.4891910000000  0.4038280000000  0.5007630000000 1.0
C      1  0.5804650000000  0.5401630000000  0.5487890000000 1.0
C      1  0.4207690000000  0.4952580000000  0.5251150000000 1.0
C      1  0.4964050000000  0.5597980000000  0.5645690000000 1.0
C      1  0.4424900000000  0.4321370000000  0.4963490000000 1.0
C      1  0.4833550000000  0.4733510000000  0.5618680000000 1.0
C      1  0.5302630000000  0.5726460000000  0.5105980000000 1.0
C      1  0.4642690000000  0.4357360000000  0.4743440000000 1.0
C      1  0.5064270000000  0.4423690000000  0.5269160000000 1.0
C      1  0.5159210000000  0.5096340000000  0.5528700000000 1.0
C      1  0.4864740000000  0.5527920000000  0.4456070000000 1.0
C      1  0.5812930000000  0.5351210000000  0.4894350000000 1.0
C      1  0.4844870000000  0.4265060000000  0.5172860000000 1.0
C      1  0.5365770000000  0.5580150000000  0.5342980000000 1.0
C      1  0.4286460000000  0.5381530000000  0.5432860000000 1.0
C      1  0.5065790000000  0.4822980000000  0.5085770000000 1.0
C      1  0.4843880000000  0.5791930000000  0.4873380000000 1.0
C      1  0.5202290000000  0.5302560000000  0.5123020000000 1.0
C      1  0.5932790000000  0.5175630000000  0.5085240000000 1.0
C      1  0.5054760000000  0.5322270000000  0.4328760000000 1.0
C      1  0.4669980000000  0.5238790000000  0.5764260000000 1.0
C      1  0.4509270000000  0.4331050000000  0.4492570000000 1.0
C      1  0.5750870000000  0.4591350000000  0.5013280000000 1.0
C      1  0.5364070000000  0.4659830000000  0.4817810000000 1.0
C      1  0.5668300000000  0.5224290000000  0.4669270000000 1.0
C      1  0.4855650000000  0.4960250000000  0.5237040000000 1.0
C      1  0.4776870000000  0.4779360000000  0.4751530000000 1.0
C      1  0.5319310000000  0.4223180000000  0.4914840000000 1.0
C      1  0.5354610000000  0.5596150000000  0.4594560000000 1.0
C      1  0.5519070000000  0.4700770000000  0.5483940000000 1.0
C      1  0.4621870000000  0.4817850000000  0.5303310000000 1.0
C      1  0.5045140000000  0.4526160000000  0.5539760000000 1.0
C      1  0.4163640000000  0.5009160000000  0.4638260000000 1.0
C      1  0.4467700000000  0.4576010000000  0.5366200000000 1.0
C      1  0.5283140000000  0.4808310000000  0.5848620000000 1.0
C      1  0.5472310000000  0.5841580000000  0.4678450000000 1.0
C      1  0.4715150000000  0.5263120000000  0.4914080000000 1.0
C      1  0.4457700000000  0.5467740000000  0.4708910000000 1.0
C      1  0.4451910000000  0.4712090000000  0.4235110000000 1.0
C      1  0.4710460000000  0.4635920000000  0.4149750000000 1.0
C      1  0.4277900000000  0.4726310000000  0.4716120000000 1.0
C      1  0.5387380000000  0.4980090000000  0.4786530000000 1.0
C      1  0.5163630000000  0.4511670000000  0.4602840000000 1.0
C      1  0.4458760000000  0.5082160000000  0.4998530000000 1.0
C      1  0.4973140000000  0.4611010000000  0.4219850000000 1.0
C      1  0.5683990000000  0.4456800000000  0.4753690000000 1.0
C      1  0.5770870000000  0.4963560000000  0.4571190000000 1.0
C      1  0.5375530000000  0.5246100000000  0.5687290000000 1.0
C      1  0.5516510000000  0.4966290000000  0.5749510000000 1.0
C      1  0.4360780000000  0.4564650000000  0.4468550000000 1.0
C      1  0.5071460000000  0.4869620000000  0.4256520000000 1.0
C      1  0.5310910000000  0.4586900000000  0.5658540000000 1.0
C      1  0.4593040000000  0.5733080000000  0.5240240000000 1.0
C      1  0.4898110000000  0.5524380000000  0.4752770000000 1.0
C      1  0.5746640000000  0.5611230000000  0.4971270000000 1.0
C      1  0.5324440000000  0.4374980000000  0.5153790000000 1.0
C      1  0.5530120000000  0.5419740000000  0.5508630000000 1.0
C      1  0.4968210000000  0.5215750000000  0.5338530000000 1.0
END
