TITL C-951348-1603-653 -1.16881705674104e-07 125000 -310.51712134357 0 0 51 (C1) n - 1
REM
REM in /home/bkarasulu/work/CARBON/AIRSS/Generating-Clusters/EDIP-Nigel-Params/with-SteepDescent/Only-C1/SD-CG/HFTN-CG
REM
REM
REM
REM
REM
REM ./C.cell (11c1c37f851c82e70ff6c80c92926a4b)
REM
REM compiler GCC version 9.2.1 20190827 (Red Hat 9.2.1-1)
REM options -cpp -mtune=generic -march=x86-64 -g -O0 -fpre-include=/usr/include/finclude/math-vector-fortran.h
REM seed 101618441 302955288 -313406197 -1130605003 1134944470 -937696622 1639266893 636795969 1113858022 432686701 1932806695 611655369 1382516912 -650711673 -1807317738 1566558251 -1949649763 -955176183 -357136432 1212049972 1734458489 254318386 -2143381141 183357280 -1290434045 -879449761 -995532265 253941212 -1536226209 559734849 782605648 1353689424 804051856
REM
CELL 1.54180   50.00000   50.00000   50.00000   90.00000   90.00000   90.00000
LATT -1
SFAC C  
C      1  0.4620500000000  0.4415310000000  0.4882890000000 1.0
C      1  0.5495220000000  0.4886590000000  0.4451590000000 1.0
C      1  0.5378160000000  0.5650910000000  0.4985400000000 1.0
C      1  0.4590340000000  0.4375790000000  0.4604420000000 1.0
C      1  0.5309860000000  0.5471770000000  0.4774220000000 1.0
C      1  0.5370740000000  0.4509740000000  0.5265080000000 1.0
C      1  0.5177770000000  0.4728190000000  0.5634650000000 1.0
C      1  0.5652910000000  0.5101200000000  0.4808480000000 1.0
C      1  0.5058660000000  0.5103790000000  0.4420940000000 1.0
C      1  0.5083380000000  0.4485430000000  0.4779310000000 1.0
C      1  0.4744910000000  0.4966140000000  0.5664510000000 1.0
C      1  0.4572760000000  0.5387580000000  0.5273770000000 1.0
C      1  0.4921780000000  0.5557710000000  0.4974510000000 1.0
C      1  0.4655770000000  0.4622850000000  0.5397020000000 1.0
C      1  0.5283120000000  0.5018050000000  0.4575720000000 1.0
C      1  0.4595570000000  0.4585470000000  0.4412800000000 1.0
C      1  0.5141230000000  0.4589850000000  0.5396320000000 1.0
C      1  0.4769840000000  0.5408290000000  0.5475100000000 1.0
C      1  0.4502060000000  0.5077180000000  0.4389380000000 1.0
C      1  0.4921340000000  0.5003850000000  0.5203300000000 1.0
C      1  0.4421960000000  0.4629140000000  0.5247860000000 1.0
C      1  0.5344210000000  0.5202690000000  0.5589970000000 1.0
C      1  0.4612260000000  0.5298390000000  0.4528350000000 1.0
C      1  0.5356240000000  0.5173780000000  0.4823310000000 1.0
C      1  0.4554230000000  0.5117980000000  0.5180370000000 1.0
C      1  0.5217840000000  0.4983890000000  0.5715560000000 1.0
C      1  0.5221470000000  0.5457800000000  0.5585780000000 1.0
C      1  0.5427550000000  0.5126140000000  0.5316650000000 1.0
C      1  0.5022950000000  0.5498180000000  0.4714750000000 1.0
C      1  0.5720140000000  0.4931200000000  0.4594630000000 1.0
C      1  0.5137820000000  0.5676530000000  0.5130010000000 1.0
C      1  0.5148800000000  0.5648120000000  0.5407050000000 1.0
C      1  0.4409720000000  0.5096970000000  0.4936280000000 1.0
C      1  0.5785120000000  0.4764300000000  0.5119530000000 1.0
C      1  0.4471980000000  0.5354610000000  0.4792230000000 1.0
C      1  0.4452550000000  0.4828880000000  0.4512650000000 1.0
C      1  0.5052560000000  0.4507100000000  0.4510770000000 1.0
C      1  0.4874310000000  0.5138920000000  0.5483500000000 1.0
C      1  0.5780780000000  0.5038400000000  0.5061190000000 1.0
C      1  0.4904120000000  0.4681360000000  0.5236640000000 1.0
C      1  0.4875890000000  0.4637580000000  0.4333730000000 1.0
C      1  0.4410770000000  0.4599730000000  0.4969740000000 1.0
C      1  0.5217280000000  0.5089950000000  0.5103170000000 1.0
C      1  0.5689080000000  0.5212770000000  0.5258320000000 1.0
C      1  0.4641970000000  0.4717000000000  0.5659380000000 1.0
C      1  0.4628870000000  0.5524100000000  0.5013770000000 1.0
C      1  0.4933230000000  0.4905050000000  0.4270740000000 1.0
C      1  0.4896250000000  0.5277470000000  0.4579180000000 1.0
C      1  0.4881570000000  0.4528930000000  0.4967800000000 1.0
C      1  0.4444280000000  0.4841680000000  0.4803930000000 1.0
C      1  0.5618260000000  0.4565660000000  0.5183760000000 1.0
END
