TITL C-950534-5965-29 -1.19878244041337e-06 125000 -234.670021636924 0 0 39 (C1) n - 1
REM
REM in /home/bkarasulu/work/CARBON/AIRSS/Generating-Clusters/EDIP-Nigel-Params/with-SteepDescent/Only-C1/SD-CG/HFTN-CG
REM
REM
REM
REM
REM
REM ./C.cell (11c1c37f851c82e70ff6c80c92926a4b)
REM
REM compiler GCC version 9.2.1 20190827 (Red Hat 9.2.1-1)
REM options -cpp -mtune=generic -march=x86-64 -g -O0 -fpre-include=/usr/include/finclude/math-vector-fortran.h
REM seed -1023229825 514053600 -359120392 891691044 -1546477968 589935002 -1124533667 -1212152301 1184801841 -346125956 1297075659 1357084574 609096107 654165567 -566977957 2106688140 1999760806 154405094 -217737708 643123611 220013497 911601475 1062001656 -1640879661 -1865179972 1653709114 1241573723 1578381479 416832204 -155822564 -2141161234 1612168998 -1199432732
REM
CELL 1.54180   50.00000   50.00000   50.00000   90.00000   90.00000   90.00000
LATT -1
SFAC C  
C      1  0.5440580000000  0.4706670000000  0.5288760000000 1.0
C      1  0.4997040000000  0.5034490000000  0.5228130000000 1.0
C      1  0.5457020000000  0.4622290000000  0.4999490000000 1.0
C      1  0.4926210000000  0.4578540000000  0.5409460000000 1.0
C      1  0.5541930000000  0.4793140000000  0.4535720000000 1.0
C      1  0.4758800000000  0.5477480000000  0.5316670000000 1.0
C      1  0.4574720000000  0.5485500000000  0.4777120000000 1.0
C      1  0.5146470000000  0.4821180000000  0.4705070000000 1.0
C      1  0.5050430000000  0.5118260000000  0.4715160000000 1.0
C      1  0.4629420000000  0.5199050000000  0.4825610000000 1.0
C      1  0.5050220000000  0.4179780000000  0.5144810000000 1.0
C      1  0.4776890000000  0.4819470000000  0.5298180000000 1.0
C      1  0.5303270000000  0.5418540000000  0.5365050000000 1.0
C      1  0.5381700000000  0.5354690000000  0.4884090000000 1.0
C      1  0.4738560000000  0.4779530000000  0.4545580000000 1.0
C      1  0.4859320000000  0.4334810000000  0.5273270000000 1.0
C      1  0.5246760000000  0.5143980000000  0.5397250000000 1.0
C      1  0.4910020000000  0.5193700000000  0.4977520000000 1.0
C      1  0.4828170000000  0.5249920000000  0.5485610000000 1.0
C      1  0.4633070000000  0.5029570000000  0.5471120000000 1.0
C      1  0.5029410000000  0.5591120000000  0.4630600000000 1.0
C      1  0.4458660000000  0.5030360000000  0.5016170000000 1.0
C      1  0.5172740000000  0.4609710000000  0.4921400000000 1.0
C      1  0.4824340000000  0.5615250000000  0.4822990000000 1.0
C      1  0.4706450000000  0.4678990000000  0.4808540000000 1.0
C      1  0.4482300000000  0.5450940000000  0.5266370000000 1.0
C      1  0.4977610000000  0.4681380000000  0.4394780000000 1.0
C      1  0.4601190000000  0.4772960000000  0.5052600000000 1.0
C      1  0.5205460000000  0.4617940000000  0.5422760000000 1.0
C      1  0.4719390000000  0.5071940000000  0.4558800000000 1.0
C      1  0.5440300000000  0.4998660000000  0.5239490000000 1.0
C      1  0.5208480000000  0.5370930000000  0.4636080000000 1.0
C      1  0.5035480000000  0.4356410000000  0.4930630000000 1.0
C      1  0.5573300000000  0.4844880000000  0.4816040000000 1.0
C      1  0.5276080000000  0.4749240000000  0.4431040000000 1.0
C      1  0.5422840000000  0.5063190000000  0.4954530000000 1.0
C      1  0.5237180000000  0.5508110000000  0.5105590000000 1.0
C      1  0.4937860000000  0.5479520000000  0.5064940000000 1.0
C      1  0.4440330000000  0.5167870000000  0.5282990000000 1.0
END
