TITL C-950526-5686-319 -8.72354566714995e-07 125000 -1143.96929215517 0 0 181 (C1) n - 1
REM
REM in /home/bkarasulu/work/CARBON/AIRSS/Generating-Clusters/EDIP-Nigel-Params/with-SteepDescent/Only-C1/SD-CG/HFTN-CG
REM
REM
REM
REM
REM
REM ./C.cell (11c1c37f851c82e70ff6c80c92926a4b)
REM
REM compiler GCC version 9.2.1 20190827 (Red Hat 9.2.1-1)
REM options -cpp -mtune=generic -march=x86-64 -g -O0 -fpre-include=/usr/include/finclude/math-vector-fortran.h
REM seed -420632592 -1313202195 550899912 -1316312428 1238747815 2092203893 -1680380480 -887091667 -1758648180 -1783961202 -1682073809 1024449396 1097242273 820755307 1616270647 -290040465 -513039285 1149257203 -1469827164 -825156672 133304361 -467628252 1698538881 809659766 -1283607506 1143553794 1849520405 -82822277 -284149236 131946588 -713604753 93243977 1547936530
REM
CELL 1.54180   50.00000   50.00000   50.00000   90.00000   90.00000   90.00000
LATT -1
SFAC C  
C      1  0.4951320000000  0.4874700000000  0.3860580000000 1.0
C      1  0.5243130000000  0.3808930000000  0.4913470000000 1.0
C      1  0.5942900000000  0.5155060000000  0.5246560000000 1.0
C      1  0.5066280000000  0.4809460000000  0.5107440000000 1.0
C      1  0.6014680000000  0.5439980000000  0.4862250000000 1.0
C      1  0.5746170000000  0.5873460000000  0.5236930000000 1.0
C      1  0.6068250000000  0.4569760000000  0.5100300000000 1.0
C      1  0.3973580000000  0.5191180000000  0.4749690000000 1.0
C      1  0.5008780000000  0.5550870000000  0.5406890000000 1.0
C      1  0.5683870000000  0.4362920000000  0.5618920000000 1.0
C      1  0.5069630000000  0.5321290000000  0.4348730000000 1.0
C      1  0.5344490000000  0.5747080000000  0.5849460000000 1.0
C      1  0.4247580000000  0.5123360000000  0.5151100000000 1.0
C      1  0.4542390000000  0.5238470000000  0.4804030000000 1.0
C      1  0.5510670000000  0.5763420000000  0.4285540000000 1.0
C      1  0.4835260000000  0.4613040000000  0.5867530000000 1.0
C      1  0.5507530000000  0.5959360000000  0.5411800000000 1.0
C      1  0.4865680000000  0.4663290000000  0.4042180000000 1.0
C      1  0.4672380000000  0.4312350000000  0.5071680000000 1.0
C      1  0.4590590000000  0.5950220000000  0.4634180000000 1.0
C      1  0.5869320000000  0.5095390000000  0.4520770000000 1.0
C      1  0.4378940000000  0.5489130000000  0.4951220000000 1.0
C      1  0.5939570000000  0.5539610000000  0.4401510000000 1.0
C      1  0.4457710000000  0.4539000000000  0.5014210000000 1.0
C      1  0.5949000000000  0.4841710000000  0.4684510000000 1.0
C      1  0.5120740000000  0.6230520000000  0.5144830000000 1.0
C      1  0.5522290000000  0.4328550000000  0.4411380000000 1.0
C      1  0.5290700000000  0.5901210000000  0.4727460000000 1.0
C      1  0.4992550000000  0.5971230000000  0.4361410000000 1.0
C      1  0.5867850000000  0.4357650000000  0.5077230000000 1.0
C      1  0.5269210000000  0.5785430000000  0.5027970000000 1.0
C      1  0.4602220000000  0.4697790000000  0.4224390000000 1.0
C      1  0.4130640000000  0.4219340000000  0.5256150000000 1.0
C      1  0.5381580000000  0.5252770000000  0.3965440000000 1.0
C      1  0.5788870000000  0.4713050000000  0.5315670000000 1.0
C      1  0.5163200000000  0.5500320000000  0.4580850000000 1.0
C      1  0.4652200000000  0.5262470000000  0.3939800000000 1.0
C      1  0.4584720000000  0.5596700000000  0.5138210000000 1.0
C      1  0.4668530000000  0.5316320000000  0.6053580000000 1.0
C      1  0.4522480000000  0.4700090000000  0.4744570000000 1.0
C      1  0.4213300000000  0.4414610000000  0.4480650000000 1.0
C      1  0.4137530000000  0.4277770000000  0.4739760000000 1.0
C      1  0.4634160000000  0.5637540000000  0.4220700000000 1.0
C      1  0.4025890000000  0.5480860000000  0.4786590000000 1.0
C      1  0.4379000000000  0.4496950000000  0.5643820000000 1.0
C      1  0.4671780000000  0.6168050000000  0.5257290000000 1.0
C      1  0.4757460000000  0.4202020000000  0.5631230000000 1.0
C      1  0.5216850000000  0.5976130000000  0.5254830000000 1.0
C      1  0.5770280000000  0.5033950000000  0.4206700000000 1.0
C      1  0.4256420000000  0.4683420000000  0.5862870000000 1.0
C      1  0.5562700000000  0.5894660000000  0.4549440000000 1.0
C      1  0.4390290000000  0.5197150000000  0.5987790000000 1.0
C      1  0.5920680000000  0.5103870000000  0.5535530000000 1.0
C      1  0.4032620000000  0.4642700000000  0.4458990000000 1.0
C      1  0.5706380000000  0.5831100000000  0.4962750000000 1.0
C      1  0.5238130000000  0.4924920000000  0.3873220000000 1.0
C      1  0.4993450000000  0.5846940000000  0.5419680000000 1.0
C      1  0.5751400000000  0.5279050000000  0.5692990000000 1.0
C      1  0.4787110000000  0.3862510000000  0.5154800000000 1.0
C      1  0.4718190000000  0.4839440000000  0.6003510000000 1.0
C      1  0.4158490000000  0.4893840000000  0.4369120000000 1.0
C      1  0.4977280000000  0.4224470000000  0.4844030000000 1.0
C      1  0.5358410000000  0.5278860000000  0.6011160000000 1.0
C      1  0.5178760000000  0.5065930000000  0.6116870000000 1.0
C      1  0.5325640000000  0.3892900000000  0.4658050000000 1.0
C      1  0.4505060000000  0.5723760000000  0.5398130000000 1.0
C      1  0.4448350000000  0.5668710000000  0.4672300000000 1.0
C      1  0.5699140000000  0.4398880000000  0.4828570000000 1.0
C      1  0.5471050000000  0.5421800000000  0.4706030000000 1.0
C      1  0.3973830000000  0.5625960000000  0.5043600000000 1.0
C      1  0.5151430000000  0.5074720000000  0.4709350000000 1.0
C      1  0.5362840000000  0.5524130000000  0.5143840000000 1.0
C      1  0.5477100000000  0.4107210000000  0.5229770000000 1.0
C      1  0.4899560000000  0.4786190000000  0.4459040000000 1.0
C      1  0.5072830000000  0.5039260000000  0.4432260000000 1.0
C      1  0.5801250000000  0.4605780000000  0.4624230000000 1.0
C      1  0.4863600000000  0.5185140000000  0.5616710000000 1.0
C      1  0.5419740000000  0.4945290000000  0.4705190000000 1.0
C      1  0.4615250000000  0.5244120000000  0.5485950000000 1.0
C      1  0.4740660000000  0.5172090000000  0.5020640000000 1.0
C      1  0.4921340000000  0.5531970000000  0.4775670000000 1.0
C      1  0.5096860000000  0.4552850000000  0.4450800000000 1.0
C      1  0.4051670000000  0.5081160000000  0.5360120000000 1.0
C      1  0.4827520000000  0.3949420000000  0.4868610000000 1.0
C      1  0.4397850000000  0.5472980000000  0.4276650000000 1.0
C      1  0.4110640000000  0.5516130000000  0.5299550000000 1.0
C      1  0.5357510000000  0.4621870000000  0.4616070000000 1.0
C      1  0.4720270000000  0.5541530000000  0.5852180000000 1.0
C      1  0.5821150000000  0.4931770000000  0.5094680000000 1.0
C      1  0.4607740000000  0.4812430000000  0.5317450000000 1.0
C      1  0.5216980000000  0.4299950000000  0.5017760000000 1.0
C      1  0.4562440000000  0.4055120000000  0.5210760000000 1.0
C      1  0.5311910000000  0.5131850000000  0.5397030000000 1.0
C      1  0.5666250000000  0.4174570000000  0.4621780000000 1.0
C      1  0.4854460000000  0.6204780000000  0.5050280000000 1.0
C      1  0.5250350000000  0.5476540000000  0.5814890000000 1.0
C      1  0.4265590000000  0.4232660000000  0.5534900000000 1.0
C      1  0.4000770000000  0.4709720000000  0.4930330000000 1.0
C      1  0.4367680000000  0.4980710000000  0.4716420000000 1.0
C      1  0.5361460000000  0.4811310000000  0.6138460000000 1.0
C      1  0.5472880000000  0.4899350000000  0.5580310000000 1.0
C      1  0.5354980000000  0.4743890000000  0.5110630000000 1.0
C      1  0.4445300000000  0.4904660000000  0.5930150000000 1.0
C      1  0.4020530000000  0.5330950000000  0.5512250000000 1.0
C      1  0.3865130000000  0.4665610000000  0.4686900000000 1.0
C      1  0.5729580000000  0.4663720000000  0.5757870000000 1.0
C      1  0.5514580000000  0.4991880000000  0.5006970000000 1.0
C      1  0.5695100000000  0.4283380000000  0.5317300000000 1.0
C      1  0.5179710000000  0.4279050000000  0.4044670000000 1.0
C      1  0.4800810000000  0.4772230000000  0.4729920000000 1.0
C      1  0.5697840000000  0.4567120000000  0.4351670000000 1.0
C      1  0.5862190000000  0.5622800000000  0.5337440000000 1.0
C      1  0.4963390000000  0.5445950000000  0.5701890000000 1.0
C      1  0.4851010000000  0.5461840000000  0.5085300000000 1.0
C      1  0.5206110000000  0.4859400000000  0.5727820000000 1.0
C      1  0.4658600000000  0.4446030000000  0.5723370000000 1.0
C      1  0.4021530000000  0.4774950000000  0.5735140000000 1.0
C      1  0.4286100000000  0.4005330000000  0.5103740000000 1.0
C      1  0.5595330000000  0.4790960000000  0.4202770000000 1.0
C      1  0.4874340000000  0.5083510000000  0.6047440000000 1.0
C      1  0.4895110000000  0.4716170000000  0.5327450000000 1.0
C      1  0.5135300000000  0.4546210000000  0.4140330000000 1.0
C      1  0.5715000000000  0.5547430000000  0.5577770000000 1.0
C      1  0.5907510000000  0.4809780000000  0.5567860000000 1.0
C      1  0.5174240000000  0.5422710000000  0.4077600000000 1.0
C      1  0.4585780000000  0.4063990000000  0.4714830000000 1.0
C      1  0.5453610000000  0.4235970000000  0.5722940000000 1.0
C      1  0.5399620000000  0.4511850000000  0.4905550000000 1.0
C      1  0.5001910000000  0.4221320000000  0.5462700000000 1.0
C      1  0.4672430000000  0.5457550000000  0.4625400000000 1.0
C      1  0.5058850000000  0.6074010000000  0.4630570000000 1.0
C      1  0.4303340000000  0.4043500000000  0.4809220000000 1.0
C      1  0.5203260000000  0.5740870000000  0.4379290000000 1.0
C      1  0.5672400000000  0.5680990000000  0.4722910000000 1.0
C      1  0.4510230000000  0.5489460000000  0.5630330000000 1.0
C      1  0.6022200000000  0.5350880000000  0.4592090000000 1.0
C      1  0.5281410000000  0.3896600000000  0.5179120000000 1.0
C      1  0.5030790000000  0.3940960000000  0.5323260000000 1.0
C      1  0.4548260000000  0.5085510000000  0.5245200000000 1.0
C      1  0.5603660000000  0.3903240000000  0.4634400000000 1.0
C      1  0.4049150000000  0.5125950000000  0.4486260000000 1.0
C      1  0.4772020000000  0.5070460000000  0.3780860000000 1.0
C      1  0.5318930000000  0.5436060000000  0.5431030000000 1.0
C      1  0.5016690000000  0.5578380000000  0.3898110000000 1.0
C      1  0.5247440000000  0.4398090000000  0.5602750000000 1.0
C      1  0.5330410000000  0.4159700000000  0.4246610000000 1.0
C      1  0.4267640000000  0.5383260000000  0.5781560000000 1.0
C      1  0.4523860000000  0.4081720000000  0.5502680000000 1.0
C      1  0.4212520000000  0.5807180000000  0.5361810000000 1.0
C      1  0.4924150000000  0.4410900000000  0.5236530000000 1.0
C      1  0.4390950000000  0.4921180000000  0.4190900000000 1.0
C      1  0.4448670000000  0.5205680000000  0.4133020000000 1.0
C      1  0.4116980000000  0.4825710000000  0.5471430000000 1.0
C      1  0.5691440000000  0.5525310000000  0.4265790000000 1.0
C      1  0.5423180000000  0.5306830000000  0.4973360000000 1.0
C      1  0.5529510000000  0.5764650000000  0.5636570000000 1.0
C      1  0.4088220000000  0.5899210000000  0.5101430000000 1.0
C      1  0.5158780000000  0.4042310000000  0.4452760000000 1.0
C      1  0.4975730000000  0.4276350000000  0.4545150000000 1.0
C      1  0.5606790000000  0.5155580000000  0.5916550000000 1.0
C      1  0.5579930000000  0.5162250000000  0.4583080000000 1.0
C      1  0.4673850000000  0.4255170000000  0.4503590000000 1.0
C      1  0.4136360000000  0.4989610000000  0.4906030000000 1.0
C      1  0.5465890000000  0.4651500000000  0.5386960000000 1.0
C      1  0.5048850000000  0.4987900000000  0.5509850000000 1.0
C      1  0.4360020000000  0.4657860000000  0.5373960000000 1.0
C      1  0.5616180000000  0.4866580000000  0.5986940000000 1.0
C      1  0.4712580000000  0.5947360000000  0.5425320000000 1.0
C      1  0.4230060000000  0.5598890000000  0.4481960000000 1.0
C      1  0.4754910000000  0.5529190000000  0.3978160000000 1.0
C      1  0.5131440000000  0.4590810000000  0.5828300000000 1.0
C      1  0.5254040000000  0.4552610000000  0.6090560000000 1.0
C      1  0.4503650000000  0.4506250000000  0.4480540000000 1.0
C      1  0.5360370000000  0.4726290000000  0.4038360000000 1.0
C      1  0.4704700000000  0.5893450000000  0.4359890000000 1.0
C      1  0.4941980000000  0.4962270000000  0.4896710000000 1.0
C      1  0.5941450000000  0.5419620000000  0.5136830000000 1.0
C      1  0.6120310000000  0.4783760000000  0.4908930000000 1.0
C      1  0.5641170000000  0.5281460000000  0.4099880000000 1.0
C      1  0.4823680000000  0.6049660000000  0.4801430000000 1.0
C      1  0.4163760000000  0.4452950000000  0.4992410000000 1.0
END
