TITL C-951342-2639-222 -1.22883243178589e-06 125000 -599.388900182685 0 0 96 (C1) n - 1
REM
REM in /home/bkarasulu/work/CARBON/AIRSS/Generating-Clusters/EDIP-Nigel-Params/with-SteepDescent/Only-C1/SD-CG/HFTN-CG
REM
REM
REM
REM
REM
REM ./C.cell (11c1c37f851c82e70ff6c80c92926a4b)
REM
REM compiler GCC version 9.2.1 20190827 (Red Hat 9.2.1-1)
REM options -cpp -mtune=generic -march=x86-64 -g -O0 -fpre-include=/usr/include/finclude/math-vector-fortran.h
REM seed -1495296597 53066768 1257223355 -1350037304 -648449126 -277117345 -635708670 -1508656793 2009773522 1625970310 1674073664 -2113097256 804408817 -869101688 -1105030234 -1852337512 852440403 539771851 1701242944 -2075710184 1610741716 782033231 -348436978 -87334599 1317138971 -2029528396 1878945727 -1855458643 1426038491 1832349721 1591765547 1390941054 -2034598828
REM
CELL 1.54180   50.00000   50.00000   50.00000   90.00000   90.00000   90.00000
LATT -1
SFAC C  
C      1  0.4243370000000  0.5216430000000  0.5073450000000 1.0
C      1  0.5092620000000  0.4589650000000  0.4760000000000 1.0
C      1  0.4783430000000  0.4757160000000  0.4282120000000 1.0
C      1  0.4885250000000  0.5247160000000  0.4278590000000 1.0
C      1  0.4936530000000  0.4781860000000  0.5129910000000 1.0
C      1  0.5822770000000  0.5085380000000  0.5502600000000 1.0
C      1  0.4783760000000  0.4634150000000  0.4706650000000 1.0
C      1  0.5291460000000  0.5004480000000  0.4522120000000 1.0
C      1  0.5131470000000  0.4856820000000  0.5602060000000 1.0
C      1  0.5308670000000  0.4613820000000  0.5587760000000 1.0
C      1  0.5236460000000  0.4625670000000  0.4474490000000 1.0
C      1  0.5226270000000  0.4922110000000  0.4095710000000 1.0
C      1  0.5348020000000  0.5274520000000  0.5410250000000 1.0
C      1  0.4416030000000  0.4986430000000  0.5597430000000 1.0
C      1  0.4436170000000  0.4759160000000  0.4457970000000 1.0
C      1  0.5105610000000  0.5395900000000  0.5288490000000 1.0
C      1  0.5707040000000  0.5525070000000  0.4695940000000 1.0
C      1  0.4638280000000  0.5143040000000  0.4634500000000 1.0
C      1  0.4151590000000  0.5190610000000  0.4804900000000 1.0
C      1  0.4346590000000  0.4748450000000  0.5429270000000 1.0
C      1  0.5922350000000  0.4749260000000  0.5168960000000 1.0
C      1  0.4665460000000  0.4784450000000  0.4966320000000 1.0
C      1  0.5600710000000  0.4413630000000  0.5129690000000 1.0
C      1  0.4780560000000  0.5755240000000  0.5374670000000 1.0
C      1  0.5138930000000  0.5295460000000  0.5849170000000 1.0
C      1  0.4303200000000  0.4437410000000  0.4793920000000 1.0
C      1  0.5347010000000  0.4292450000000  0.5181810000000 1.0
C      1  0.5177550000000  0.5173550000000  0.4273450000000 1.0
C      1  0.4560620000000  0.5071620000000  0.4923080000000 1.0
C      1  0.5188800000000  0.5808180000000  0.5143650000000 1.0
C      1  0.4712800000000  0.5032000000000  0.5658060000000 1.0
C      1  0.4635410000000  0.5553430000000  0.5521130000000 1.0
C      1  0.5855960000000  0.4973050000000  0.4775010000000 1.0
C      1  0.4304630000000  0.5339000000000  0.4595480000000 1.0
C      1  0.5814090000000  0.5444690000000  0.4965370000000 1.0
C      1  0.5155320000000  0.4812300000000  0.4944610000000 1.0
C      1  0.5069970000000  0.5683680000000  0.5402720000000 1.0
C      1  0.4849350000000  0.5214850000000  0.5343290000000 1.0
C      1  0.5849730000000  0.5156030000000  0.5000030000000 1.0
C      1  0.5724240000000  0.5044650000000  0.4525040000000 1.0
C      1  0.5013110000000  0.4964110000000  0.5339170000000 1.0
C      1  0.4715240000000  0.5782920000000  0.5091750000000 1.0
C      1  0.4498780000000  0.4507350000000  0.5472620000000 1.0
C      1  0.4766790000000  0.5521040000000  0.5778960000000 1.0
C      1  0.4318460000000  0.5476450000000  0.5166690000000 1.0
C      1  0.5582770000000  0.4699010000000  0.5559590000000 1.0
C      1  0.4743710000000  0.4311400000000  0.4761800000000 1.0
C      1  0.4867300000000  0.4953690000000  0.4607200000000 1.0
C      1  0.4744660000000  0.5284710000000  0.5052270000000 1.0
C      1  0.5649640000000  0.5587010000000  0.5169560000000 1.0
C      1  0.4713930000000  0.4280710000000  0.5064960000000 1.0
C      1  0.4350300000000  0.4726510000000  0.4733470000000 1.0
C      1  0.4275740000000  0.5226270000000  0.5566630000000 1.0
C      1  0.4243490000000  0.4408140000000  0.5086730000000 1.0
C      1  0.4783910000000  0.5506980000000  0.4294170000000 1.0
C      1  0.5109650000000  0.5048440000000  0.4768690000000 1.0
C      1  0.4827860000000  0.4140430000000  0.5284780000000 1.0
C      1  0.4476570000000  0.4249320000000  0.4663530000000 1.0
C      1  0.5367310000000  0.5406110000000  0.4373120000000 1.0
C      1  0.5071860000000  0.4698660000000  0.4226380000000 1.0
C      1  0.5500350000000  0.4864140000000  0.4113060000000 1.0
C      1  0.4942940000000  0.4307630000000  0.5487850000000 1.0
C      1  0.4002180000000  0.4821730000000  0.5045580000000 1.0
C      1  0.5025130000000  0.4169860000000  0.4658970000000 1.0
C      1  0.5602000000000  0.4835790000000  0.4370490000000 1.0
C      1  0.5218210000000  0.4249240000000  0.4907690000000 1.0
C      1  0.5874550000000  0.4691260000000  0.4869030000000 1.0
C      1  0.4765880000000  0.4529150000000  0.5573760000000 1.0
C      1  0.4758110000000  0.5559680000000  0.4567130000000 1.0
C      1  0.5518690000000  0.4288310000000  0.4666080000000 1.0
C      1  0.4820060000000  0.5236810000000  0.5861580000000 1.0
C      1  0.5606670000000  0.5312540000000  0.4520930000000 1.0
C      1  0.4461140000000  0.5042190000000  0.4390450000000 1.0
C      1  0.5480210000000  0.5713020000000  0.4735870000000 1.0
C      1  0.5614020000000  0.4976400000000  0.5661790000000 1.0
C      1  0.4363580000000  0.5469870000000  0.5456000000000 1.0
C      1  0.5578420000000  0.5434260000000  0.5393300000000 1.0
C      1  0.4698580000000  0.5038190000000  0.4206430000000 1.0
C      1  0.5700610000000  0.4619100000000  0.5303080000000 1.0
C      1  0.4862070000000  0.4776300000000  0.5711760000000 1.0
C      1  0.5314580000000  0.5109690000000  0.5660240000000 1.0
C      1  0.4970980000000  0.5813030000000  0.4942080000000 1.0
C      1  0.5422490000000  0.5687170000000  0.5020620000000 1.0
C      1  0.5647270000000  0.4479540000000  0.4851600000000 1.0
C      1  0.4500220000000  0.5547940000000  0.4707310000000 1.0
C      1  0.4150890000000  0.4659300000000  0.5219580000000 1.0
C      1  0.4564590000000  0.5539320000000  0.5006360000000 1.0
C      1  0.5281730000000  0.4308730000000  0.4485600000000 1.0
C      1  0.4107760000000  0.4898030000000  0.4795450000000 1.0
C      1  0.5211780000000  0.4392720000000  0.5423110000000 1.0
C      1  0.5065820000000  0.5584060000000  0.5747230000000 1.0
C      1  0.5257090000000  0.5626820000000  0.4555760000000 1.0
C      1  0.5938620000000  0.5034730000000  0.5247050000000 1.0
C      1  0.5005290000000  0.5585180000000  0.4735980000000 1.0
C      1  0.5027640000000  0.5327050000000  0.4914300000000 1.0
C      1  0.4470690000000  0.4299180000000  0.5255190000000 1.0
END
