TITL C-951338-5626-364 -4.32947866581946e-07 125000 -555.389340860874 0 0 90 (C1) n - 1
REM
REM in /home/bkarasulu/work/CARBON/AIRSS/Generating-Clusters/EDIP-Nigel-Params/with-SteepDescent/Only-C1/SD-CG/HFTN-CG
REM
REM
REM
REM
REM
REM ./C.cell (11c1c37f851c82e70ff6c80c92926a4b)
REM
REM compiler GCC version 9.2.1 20190827 (Red Hat 9.2.1-1)
REM options -cpp -mtune=generic -march=x86-64 -g -O0 -fpre-include=/usr/include/finclude/math-vector-fortran.h
REM seed 1801310161 -1877370844 -1979494488 -833534603 -1863412921 210215530 -1383939715 -1490646345 1944506135 -82515359 823000400 1836757308 1743927223 2038960947 1771648558 -2123930852 484888177 709503584 1318007562 -1293042297 -228930767 -1255449190 -1435255993 231388671 508114641 -2008657429 -1459164116 1395070940 1462772014 -1918201297 2096708521 -1699775246 528274901
REM
CELL 1.54180   50.00000   50.00000   50.00000   90.00000   90.00000   90.00000
LATT -1
SFAC C  
C      1  0.5001170000000  0.4925450000000  0.5095800000000 1.0
C      1  0.5798180000000  0.5370190000000  0.5369960000000 1.0
C      1  0.4259830000000  0.4979420000000  0.4591610000000 1.0
C      1  0.4467760000000  0.5328940000000  0.5145090000000 1.0
C      1  0.5655320000000  0.5308110000000  0.4888860000000 1.0
C      1  0.4448660000000  0.4796230000000  0.5182510000000 1.0
C      1  0.4597210000000  0.5776490000000  0.5011950000000 1.0
C      1  0.4383800000000  0.5226490000000  0.4717710000000 1.0
C      1  0.4890310000000  0.5991350000000  0.4679510000000 1.0
C      1  0.4738470000000  0.4385040000000  0.4563950000000 1.0
C      1  0.4527880000000  0.5042990000000  0.4997640000000 1.0
C      1  0.5203250000000  0.4948600000000  0.4672900000000 1.0
C      1  0.5154680000000  0.5820240000000  0.4931990000000 1.0
C      1  0.5870880000000  0.5118700000000  0.5267730000000 1.0
C      1  0.4800270000000  0.4988740000000  0.4900860000000 1.0
C      1  0.4466040000000  0.4782130000000  0.4517680000000 1.0
C      1  0.5053830000000  0.4235950000000  0.5428890000000 1.0
C      1  0.4576160000000  0.4822900000000  0.5449690000000 1.0
C      1  0.5248640000000  0.4751940000000  0.4211300000000 1.0
C      1  0.4286450000000  0.4454890000000  0.4828540000000 1.0
C      1  0.5210490000000  0.5529540000000  0.5018040000000 1.0
C      1  0.4731410000000  0.4129210000000  0.4975830000000 1.0
C      1  0.4974590000000  0.4625750000000  0.5152000000000 1.0
C      1  0.4728670000000  0.5615670000000  0.5451980000000 1.0
C      1  0.5212640000000  0.4505360000000  0.5039840000000 1.0
C      1  0.5534240000000  0.4980860000000  0.4488180000000 1.0
C      1  0.4446780000000  0.5278190000000  0.5442520000000 1.0
C      1  0.4390800000000  0.5691460000000  0.4816330000000 1.0
C      1  0.5531570000000  0.4858250000000  0.5024140000000 1.0
C      1  0.4022140000000  0.4878740000000  0.4698030000000 1.0
C      1  0.5326690000000  0.5415280000000  0.4537500000000 1.0
C      1  0.4683810000000  0.5097090000000  0.5499580000000 1.0
C      1  0.5414290000000  0.4512010000000  0.4644470000000 1.0
C      1  0.5161690000000  0.5034090000000  0.4241420000000 1.0
C      1  0.5398420000000  0.5391680000000  0.4818950000000 1.0
C      1  0.4907460000000  0.5060090000000  0.4635410000000 1.0
C      1  0.4488210000000  0.5669590000000  0.4552370000000 1.0
C      1  0.5588960000000  0.5544560000000  0.5363580000000 1.0
C      1  0.5172510000000  0.4222550000000  0.4736800000000 1.0
C      1  0.5139700000000  0.4654970000000  0.4687800000000 1.0
C      1  0.5254170000000  0.5253300000000  0.5853880000000 1.0
C      1  0.4974570000000  0.5583880000000  0.4244300000000 1.0
C      1  0.5220070000000  0.5671730000000  0.5486740000000 1.0
C      1  0.5198020000000  0.4614880000000  0.5713550000000 1.0
C      1  0.5399320000000  0.4649730000000  0.5275200000000 1.0
C      1  0.4842870000000  0.4433530000000  0.5338620000000 1.0
C      1  0.4631370000000  0.4305400000000  0.5171960000000 1.0
C      1  0.5069830000000  0.5554650000000  0.4516740000000 1.0
C      1  0.5531260000000  0.4390160000000  0.5398530000000 1.0
C      1  0.5297000000000  0.4134700000000  0.4977000000000 1.0
C      1  0.4268780000000  0.5437920000000  0.4921840000000 1.0
C      1  0.4907400000000  0.4650460000000  0.5787090000000 1.0
C      1  0.4497050000000  0.5516570000000  0.5583080000000 1.0
C      1  0.5493760000000  0.5202310000000  0.5719230000000 1.0
C      1  0.5111740000000  0.5824510000000  0.4638670000000 1.0
C      1  0.4784270000000  0.5133040000000  0.5782660000000 1.0
C      1  0.4875480000000  0.4202010000000  0.4743800000000 1.0
C      1  0.4944970000000  0.5143720000000  0.5303140000000 1.0
C      1  0.5160130000000  0.4101700000000  0.5210680000000 1.0
C      1  0.5277460000000  0.4352440000000  0.5585050000000 1.0
C      1  0.4979450000000  0.5547430000000  0.5582530000000 1.0
C      1  0.4727830000000  0.4924880000000  0.4140170000000 1.0
C      1  0.4847890000000  0.4895080000000  0.5913230000000 1.0
C      1  0.5758800000000  0.4881410000000  0.5404680000000 1.0
C      1  0.5295760000000  0.4818510000000  0.5512310000000 1.0
C      1  0.5751760000000  0.5073570000000  0.5004790000000 1.0
C      1  0.4929870000000  0.5395990000000  0.5011410000000 1.0
C      1  0.4072250000000  0.4636970000000  0.4805700000000 1.0
C      1  0.5607870000000  0.4606850000000  0.4868770000000 1.0
C      1  0.4918260000000  0.4598240000000  0.4464180000000 1.0
C      1  0.4456430000000  0.4494520000000  0.4584870000000 1.0
C      1  0.4868230000000  0.5371700000000  0.4678890000000 1.0
C      1  0.4792980000000  0.5377120000000  0.4217980000000 1.0
C      1  0.5382890000000  0.5189790000000  0.4355580000000 1.0
C      1  0.4587390000000  0.5400170000000  0.4542780000000 1.0
C      1  0.4910730000000  0.5133200000000  0.4129340000000 1.0
C      1  0.5543080000000  0.4943460000000  0.5606950000000 1.0
C      1  0.4742120000000  0.4852730000000  0.4427290000000 1.0
C      1  0.5266310000000  0.4989080000000  0.4953320000000 1.0
C      1  0.4797690000000  0.5970940000000  0.4941320000000 1.0
C      1  0.5055850000000  0.4543160000000  0.4212750000000 1.0
C      1  0.4695530000000  0.5539610000000  0.5157510000000 1.0
C      1  0.4457380000000  0.4518230000000  0.5065260000000 1.0
C      1  0.4725790000000  0.4593310000000  0.5558050000000 1.0
C      1  0.5746630000000  0.4457400000000  0.5078680000000 1.0
C      1  0.5321390000000  0.5477700000000  0.5309340000000 1.0
C      1  0.5839100000000  0.4611490000000  0.5305040000000 1.0
C      1  0.5471750000000  0.4708480000000  0.4401300000000 1.0
C      1  0.4992450000000  0.5340970000000  0.5791220000000 1.0
C      1  0.5223150000000  0.5201640000000  0.5444060000000 1.0
END
