TITL C-951343-2256-82 2.3634054712864e-07 125000 -335.045129218895 0 0 56 (C1) n - 1
REM
REM in /home/bkarasulu/work/CARBON/AIRSS/Generating-Clusters/EDIP-Nigel-Params/with-SteepDescent/Only-C1/SD-CG/HFTN-CG
REM
REM
REM
REM
REM
REM ./C.cell (11c1c37f851c82e70ff6c80c92926a4b)
REM
REM compiler GCC version 9.2.1 20190827 (Red Hat 9.2.1-1)
REM options -cpp -mtune=generic -march=x86-64 -g -O0 -fpre-include=/usr/include/finclude/math-vector-fortran.h
REM seed 556786544 63330621 2054999212 136139220 1801919386 -1804453743 604373175 -2066001444 -405899852 -2138451944 -1740347104 -1056112745 -1311337195 1986965105 1197607650 1803932644 1873524376 733469976 270943680 -1959499833 -644474316 1913155103 616764286 1594952357 -13601173 258676692 -889396079 -749680021 -2037770554 358263477 -49927645 1910499057 1172605676
REM
CELL 1.54180   50.00000   50.00000   50.00000   90.00000   90.00000   90.00000
LATT -1
SFAC C  
C      1  0.4955360000000  0.4646510000000  0.4716410000000 1.0
C      1  0.5204870000000  0.5178130000000  0.4956060000000 1.0
C      1  0.4575460000000  0.4691690000000  0.5490140000000 1.0
C      1  0.5096710000000  0.4407490000000  0.5062140000000 1.0
C      1  0.4882110000000  0.5324910000000  0.5762330000000 1.0
C      1  0.5092960000000  0.5291240000000  0.5203310000000 1.0
C      1  0.5021830000000  0.5580880000000  0.5208800000000 1.0
C      1  0.4584760000000  0.4780340000000  0.4444770000000 1.0
C      1  0.5612460000000  0.5051990000000  0.4777500000000 1.0
C      1  0.4619850000000  0.4524700000000  0.5229870000000 1.0
C      1  0.4421510000000  0.5145100000000  0.5008520000000 1.0
C      1  0.4534160000000  0.4904850000000  0.4880160000000 1.0
C      1  0.5495040000000  0.4691700000000  0.5087030000000 1.0
C      1  0.4451820000000  0.4652730000000  0.5013230000000 1.0
C      1  0.4648070000000  0.5273910000000  0.4462620000000 1.0
C      1  0.4460650000000  0.5195770000000  0.5286950000000 1.0
C      1  0.5481220000000  0.4978290000000  0.5545310000000 1.0
C      1  0.5499290000000  0.4583450000000  0.5355060000000 1.0
C      1  0.5467140000000  0.4958210000000  0.4539370000000 1.0
C      1  0.4388530000000  0.4912730000000  0.4613370000000 1.0
C      1  0.5203480000000  0.5064890000000  0.4483140000000 1.0
C      1  0.5481860000000  0.4501480000000  0.4356310000000 1.0
C      1  0.5691710000000  0.4833880000000  0.4941050000000 1.0
C      1  0.4372800000000  0.5207780000000  0.4554080000000 1.0
C      1  0.4868080000000  0.4909280000000  0.4859300000000 1.0
C      1  0.4777120000000  0.5618530000000  0.5391780000000 1.0
C      1  0.4366190000000  0.5349250000000  0.4814700000000 1.0
C      1  0.4839170000000  0.5573550000000  0.5661770000000 1.0
C      1  0.5262980000000  0.4369790000000  0.4431970000000 1.0
C      1  0.5117930000000  0.5714820000000  0.4935140000000 1.0
C      1  0.5475410000000  0.5282340000000  0.4933690000000 1.0
C      1  0.5369160000000  0.4443100000000  0.5019100000000 1.0
C      1  0.5020340000000  0.4566200000000  0.5509110000000 1.0
C      1  0.5049650000000  0.5188440000000  0.4704720000000 1.0
C      1  0.5570850000000  0.4751830000000  0.4384500000000 1.0
C      1  0.4708060000000  0.5463410000000  0.4683560000000 1.0
C      1  0.5384940000000  0.5555930000000  0.4811980000000 1.0
C      1  0.5565570000000  0.5305310000000  0.5223750000000 1.0
C      1  0.5016350000000  0.5114530000000  0.5629690000000 1.0
C      1  0.5301170000000  0.5194110000000  0.5610290000000 1.0
C      1  0.4961410000000  0.4860530000000  0.5142640000000 1.0
C      1  0.5026170000000  0.4980760000000  0.4281430000000 1.0
C      1  0.4685400000000  0.4529870000000  0.4598000000000 1.0
C      1  0.4513050000000  0.4965230000000  0.5444640000000 1.0
C      1  0.5321250000000  0.5383440000000  0.5378730000000 1.0
C      1  0.4930260000000  0.4579940000000  0.5226430000000 1.0
C      1  0.4555050000000  0.5454860000000  0.5338840000000 1.0
C      1  0.5666000000000  0.5073380000000  0.5353870000000 1.0
C      1  0.5299710000000  0.4647080000000  0.5553420000000 1.0
C      1  0.5148480000000  0.5481680000000  0.4621850000000 1.0
C      1  0.4545430000000  0.4440700000000  0.4853430000000 1.0
C      1  0.4924340000000  0.5087900000000  0.5337910000000 1.0
C      1  0.4772070000000  0.5008550000000  0.4409590000000 1.0
C      1  0.5004560000000  0.4417130000000  0.4518750000000 1.0
C      1  0.4914360000000  0.5663520000000  0.4692920000000 1.0
C      1  0.4795810000000  0.4642350000000  0.5664970000000 1.0
END
