TITL C-951346-9544-307 -4.86467935600581e-06 125000 -601.107749139476 0 0 97 (C1) n - 1
REM
REM in /home/bkarasulu/work/CARBON/AIRSS/Generating-Clusters/EDIP-Nigel-Params/with-SteepDescent/Only-C1/SD-CG/HFTN-CG
REM
REM
REM
REM
REM
REM ./C.cell (11c1c37f851c82e70ff6c80c92926a4b)
REM
REM compiler GCC version 9.2.1 20190827 (Red Hat 9.2.1-1)
REM options -cpp -mtune=generic -march=x86-64 -g -O0 -fpre-include=/usr/include/finclude/math-vector-fortran.h
REM seed 1340250341 1132083952 -800263801 1639145814 -842912130 681765717 -104823945 951039637 -1036767565 -824995253 116771213 -94046844 1649133274 448352945 2002165859 -613927919 223404294 1887262504 -2043190257 -301802113 -144987966 -1887201474 -697821757 1134579788 650096393 1085090881 1160630869 1080376217 1440763238 744442448 2119473440 1789081242 1509685771
REM
CELL 1.54180   50.00000   50.00000   50.00000   90.00000   90.00000   90.00000
LATT -1
SFAC C  
C      1  0.4199170000000  0.5295550000000  0.4952880000000 1.0
C      1  0.5154050000000  0.4183510000000  0.5318610000000 1.0
C      1  0.4305790000000  0.5355630000000  0.5417460000000 1.0
C      1  0.4748710000000  0.4815700000000  0.4786780000000 1.0
C      1  0.4462570000000  0.4908210000000  0.5558140000000 1.0
C      1  0.5329990000000  0.5444920000000  0.4359380000000 1.0
C      1  0.4363010000000  0.5542010000000  0.4975600000000 1.0
C      1  0.5010920000000  0.4598380000000  0.5108550000000 1.0
C      1  0.5061590000000  0.5771770000000  0.4645700000000 1.0
C      1  0.4928940000000  0.5368870000000  0.4942980000000 1.0
C      1  0.4124100000000  0.5228860000000  0.5236860000000 1.0
C      1  0.4372120000000  0.4963550000000  0.4600030000000 1.0
C      1  0.5121720000000  0.4958500000000  0.5876270000000 1.0
C      1  0.4762340000000  0.5384560000000  0.5208270000000 1.0
C      1  0.4883940000000  0.5999010000000  0.4895590000000 1.0
C      1  0.5588900000000  0.4925450000000  0.5690400000000 1.0
C      1  0.5092370000000  0.4987430000000  0.4109090000000 1.0
C      1  0.5814640000000  0.4524600000000  0.5341150000000 1.0
C      1  0.5410280000000  0.5646370000000  0.5221340000000 1.0
C      1  0.5143400000000  0.5138930000000  0.5484260000000 1.0
C      1  0.5592970000000  0.5050900000000  0.4274370000000 1.0
C      1  0.5131220000000  0.5156900000000  0.5005050000000 1.0
C      1  0.4972410000000  0.5896450000000  0.5155230000000 1.0
C      1  0.5533240000000  0.4723810000000  0.4677030000000 1.0
C      1  0.4532170000000  0.5636840000000  0.4756590000000 1.0
C      1  0.4620690000000  0.5672300000000  0.4298260000000 1.0
C      1  0.5471380000000  0.4882430000000  0.5079950000000 1.0
C      1  0.5851340000000  0.4907650000000  0.5029930000000 1.0
C      1  0.5257750000000  0.5050430000000  0.5231930000000 1.0
C      1  0.4687450000000  0.4934180000000  0.5341000000000 1.0
C      1  0.4485130000000  0.5487860000000  0.5236610000000 1.0
C      1  0.5744680000000  0.5209360000000  0.5005680000000 1.0
C      1  0.4878750000000  0.5618280000000  0.4210260000000 1.0
C      1  0.4842780000000  0.5139100000000  0.4050130000000 1.0
C      1  0.5264320000000  0.4280540000000  0.5587070000000 1.0
C      1  0.4865380000000  0.5565970000000  0.5713600000000 1.0
C      1  0.5392300000000  0.5572460000000  0.4939900000000 1.0
C      1  0.4606690000000  0.4970890000000  0.5025780000000 1.0
C      1  0.4538230000000  0.4721960000000  0.5762710000000 1.0
C      1  0.5530570000000  0.5454400000000  0.5405650000000 1.0
C      1  0.4534960000000  0.4477520000000  0.5614260000000 1.0
C      1  0.4774360000000  0.5300510000000  0.5702380000000 1.0
C      1  0.5374230000000  0.5115080000000  0.5800230000000 1.0
C      1  0.4932420000000  0.4383230000000  0.4423470000000 1.0
C      1  0.5580630000000  0.5415000000000  0.4526510000000 1.0
C      1  0.5594450000000  0.4817660000000  0.4421900000000 1.0
C      1  0.5430050000000  0.4703970000000  0.5594000000000 1.0
C      1  0.5043450000000  0.4457680000000  0.5706960000000 1.0
C      1  0.5044740000000  0.4858710000000  0.4374270000000 1.0
C      1  0.4999620000000  0.4203260000000  0.4676500000000 1.0
C      1  0.5759710000000  0.5247620000000  0.4386650000000 1.0
C      1  0.5154110000000  0.5743710000000  0.5328410000000 1.0
C      1  0.4410750000000  0.4503030000000  0.4363200000000 1.0
C      1  0.4332380000000  0.5019340000000  0.4890570000000 1.0
C      1  0.4635720000000  0.5057970000000  0.4255840000000 1.0
C      1  0.5037760000000  0.4749170000000  0.4866040000000 1.0
C      1  0.5907680000000  0.4811960000000  0.5314740000000 1.0
C      1  0.5661900000000  0.5220770000000  0.5290610000000 1.0
C      1  0.4852760000000  0.4191430000000  0.5345030000000 1.0
C      1  0.5313040000000  0.5396830000000  0.5603610000000 1.0
C      1  0.4367920000000  0.4650740000000  0.4604710000000 1.0
C      1  0.4572390000000  0.4557340000000  0.4803150000000 1.0
C      1  0.4895400000000  0.4696540000000  0.5363970000000 1.0
C      1  0.5523030000000  0.5325090000000  0.4811560000000 1.0
C      1  0.4507490000000  0.4413990000000  0.5057400000000 1.0
C      1  0.4655900000000  0.5887080000000  0.4778980000000 1.0
C      1  0.5119020000000  0.5110600000000  0.4549150000000 1.0
C      1  0.4854790000000  0.5227850000000  0.4666670000000 1.0
C      1  0.5099660000000  0.5629070000000  0.4904720000000 1.0
C      1  0.4812350000000  0.4438840000000  0.5516010000000 1.0
C      1  0.5463080000000  0.4576860000000  0.5174550000000 1.0
C      1  0.4687600000000  0.4549600000000  0.4317060000000 1.0
C      1  0.5154820000000  0.4582400000000  0.4417250000000 1.0
C      1  0.5324280000000  0.5172570000000  0.4222260000000 1.0
C      1  0.4129720000000  0.4821430000000  0.4983610000000 1.0
C      1  0.4347220000000  0.4506340000000  0.5388240000000 1.0
C      1  0.4752720000000  0.4823600000000  0.4421740000000 1.0
C      1  0.5221570000000  0.4395310000000  0.5106500000000 1.0
C      1  0.4491050000000  0.5519370000000  0.4493810000000 1.0
C      1  0.5256230000000  0.4593550000000  0.4692550000000 1.0
C      1  0.4589970000000  0.5228690000000  0.4510010000000 1.0
C      1  0.4687880000000  0.4184930000000  0.5093960000000 1.0
C      1  0.4837920000000  0.5194770000000  0.5429960000000 1.0
C      1  0.5245690000000  0.4310810000000  0.4809210000000 1.0
C      1  0.5146710000000  0.4741180000000  0.5663120000000 1.0
C      1  0.5317770000000  0.5085430000000  0.4790690000000 1.0
C      1  0.5083850000000  0.5601050000000  0.4415010000000 1.0
C      1  0.5780870000000  0.5025870000000  0.5480150000000 1.0
C      1  0.4885620000000  0.5415920000000  0.4021700000000 1.0
C      1  0.5114200000000  0.5626060000000  0.5598240000000 1.0
C      1  0.5716150000000  0.4448520000000  0.5055460000000 1.0
C      1  0.4893310000000  0.5121920000000  0.5882480000000 1.0
C      1  0.5522190000000  0.4434060000000  0.5572950000000 1.0
C      1  0.5768300000000  0.4662110000000  0.4851330000000 1.0
C      1  0.4080200000000  0.4928080000000  0.5243300000000 1.0
C      1  0.4813950000000  0.4093160000000  0.4858390000000 1.0
C      1  0.4226450000000  0.4770260000000  0.5448880000000 1.0
END
