TITL C-950525-1983-345 1.63663266987077e-06 125000 -766.206452117239 0 0 122 (C1) n - 1
REM
REM in /home/bkarasulu/work/CARBON/AIRSS/Generating-Clusters/EDIP-Nigel-Params/with-SteepDescent/Only-C1/SD-CG/HFTN-CG
REM
REM
REM
REM
REM
REM ./C.cell (11c1c37f851c82e70ff6c80c92926a4b)
REM
REM compiler GCC version 9.2.1 20190827 (Red Hat 9.2.1-1)
REM options -cpp -mtune=generic -march=x86-64 -g -O0 -fpre-include=/usr/include/finclude/math-vector-fortran.h
REM seed 1226777497 606155436 -952734991 2139972103 622283163 1448457487 -1414076033 932064908 -1577301500 484876890 1187189716 2124938966 -986987365 -1762839238 1050769805 -1581588474 345600984 640873217 2081946873 499166920 -397556531 954375435 -504969028 -91916103 -472055116 1641202194 1291129914 1846345470 -664033082 1480676691 -935027390 493027327 -1778069871
REM
CELL 1.54180   50.00000   50.00000   50.00000   90.00000   90.00000   90.00000
LATT -1
SFAC C  
C      1  0.4666970000000  0.4213950000000  0.4844230000000 1.0
C      1  0.4735600000000  0.4811560000000  0.4525530000000 1.0
C      1  0.5644610000000  0.5418560000000  0.4943900000000 1.0
C      1  0.5564410000000  0.5725520000000  0.5374730000000 1.0
C      1  0.4384570000000  0.4505580000000  0.5651030000000 1.0
C      1  0.5779310000000  0.5520160000000  0.5395190000000 1.0
C      1  0.4288560000000  0.4419610000000  0.4471150000000 1.0
C      1  0.5034830000000  0.4915360000000  0.5900310000000 1.0
C      1  0.4352240000000  0.5542960000000  0.4688790000000 1.0
C      1  0.5712840000000  0.5292480000000  0.4683680000000 1.0
C      1  0.4879020000000  0.5092260000000  0.4467670000000 1.0
C      1  0.4607860000000  0.4333680000000  0.5621640000000 1.0
C      1  0.5359420000000  0.5400870000000  0.5355890000000 1.0
C      1  0.4738520000000  0.5869710000000  0.4601990000000 1.0
C      1  0.4024530000000  0.4875540000000  0.4577660000000 1.0
C      1  0.4733420000000  0.5773570000000  0.5355670000000 1.0
C      1  0.5033160000000  0.5808030000000  0.4624480000000 1.0
C      1  0.5248340000000  0.5192330000000  0.4105450000000 1.0
C      1  0.4956940000000  0.5251850000000  0.5576420000000 1.0
C      1  0.4671700000000  0.4807190000000  0.5316220000000 1.0
C      1  0.5013800000000  0.5840920000000  0.5367790000000 1.0
C      1  0.5509430000000  0.5500190000000  0.5797270000000 1.0
C      1  0.4402310000000  0.4889660000000  0.4523140000000 1.0
C      1  0.5845630000000  0.5354750000000  0.5164990000000 1.0
C      1  0.5582880000000  0.4184660000000  0.4378160000000 1.0
C      1  0.4768470000000  0.5390220000000  0.4695710000000 1.0
C      1  0.4410910000000  0.5588660000000  0.4980310000000 1.0
C      1  0.5722800000000  0.4421520000000  0.4951970000000 1.0
C      1  0.5539700000000  0.4580470000000  0.5423730000000 1.0
C      1  0.4623840000000  0.4590370000000  0.4166010000000 1.0
C      1  0.5397830000000  0.5569100000000  0.4442860000000 1.0
C      1  0.5264100000000  0.5363490000000  0.5909520000000 1.0
C      1  0.4466270000000  0.5453550000000  0.5657230000000 1.0
C      1  0.4013060000000  0.5359980000000  0.5096610000000 1.0
C      1  0.4590070000000  0.5020440000000  0.4053750000000 1.0
C      1  0.5007340000000  0.5319300000000  0.4041050000000 1.0
C      1  0.5771860000000  0.4561270000000  0.5231100000000 1.0
C      1  0.4252680000000  0.5066760000000  0.5487920000000 1.0
C      1  0.5556770000000  0.4181090000000  0.4912780000000 1.0
C      1  0.4289190000000  0.4515570000000  0.4735260000000 1.0
C      1  0.5057400000000  0.5058010000000  0.4715540000000 1.0
C      1  0.5882130000000  0.4837300000000  0.5150330000000 1.0
C      1  0.5115560000000  0.5612220000000  0.4423530000000 1.0
C      1  0.4763920000000  0.5206640000000  0.4198830000000 1.0
C      1  0.5024860000000  0.4634640000000  0.5805450000000 1.0
C      1  0.4883330000000  0.4998610000000  0.5196740000000 1.0
C      1  0.5951630000000  0.4407720000000  0.5407600000000 1.0
C      1  0.5353190000000  0.4796160000000  0.4393240000000 1.0
C      1  0.4667090000000  0.5517040000000  0.4245730000000 1.0
C      1  0.5240580000000  0.5144020000000  0.5523680000000 1.0
C      1  0.5142440000000  0.5705940000000  0.5586480000000 1.0
C      1  0.5851450000000  0.4845680000000  0.4860430000000 1.0
C      1  0.5249710000000  0.4624940000000  0.5353660000000 1.0
C      1  0.4808100000000  0.5049120000000  0.5748270000000 1.0
C      1  0.4835740000000  0.5008850000000  0.4904740000000 1.0
C      1  0.4903910000000  0.5581260000000  0.4912770000000 1.0
C      1  0.4364120000000  0.4362600000000  0.5204740000000 1.0
C      1  0.4409720000000  0.4732260000000  0.5830120000000 1.0
C      1  0.5372010000000  0.4989720000000  0.5079040000000 1.0
C      1  0.4863020000000  0.5277820000000  0.5297090000000 1.0
C      1  0.5120750000000  0.4359240000000  0.4258150000000 1.0
C      1  0.5714500000000  0.4426960000000  0.4352070000000 1.0
C      1  0.4282820000000  0.4846520000000  0.5291340000000 1.0
C      1  0.5858240000000  0.5087840000000  0.5300020000000 1.0
C      1  0.4806920000000  0.4030920000000  0.5021650000000 1.0
C      1  0.5370390000000  0.4744730000000  0.4896760000000 1.0
C      1  0.4005900000000  0.5151420000000  0.4664880000000 1.0
C      1  0.4611310000000  0.5598790000000  0.4537800000000 1.0
C      1  0.4952590000000  0.4610550000000  0.4674220000000 1.0
C      1  0.5493600000000  0.5297080000000  0.4490860000000 1.0
C      1  0.5284270000000  0.5068930000000  0.5833060000000 1.0
C      1  0.5215570000000  0.4522090000000  0.5065390000000 1.0
C      1  0.5415250000000  0.5085140000000  0.4301140000000 1.0
C      1  0.4722610000000  0.4783680000000  0.5617720000000 1.0
C      1  0.5420710000000  0.5733570000000  0.5633370000000 1.0
C      1  0.4890560000000  0.4080610000000  0.5298940000000 1.0
C      1  0.5448150000000  0.5843960000000  0.5120190000000 1.0
C      1  0.4421310000000  0.4348210000000  0.4927420000000 1.0
C      1  0.5875260000000  0.5074230000000  0.4710940000000 1.0
C      1  0.3981910000000  0.5123190000000  0.4958370000000 1.0
C      1  0.5050940000000  0.4508480000000  0.5545190000000 1.0
C      1  0.5707250000000  0.5351620000000  0.5620100000000 1.0
C      1  0.5194790000000  0.4804760000000  0.4662530000000 1.0
C      1  0.4109220000000  0.4720580000000  0.4803290000000 1.0
C      1  0.4238070000000  0.5485240000000  0.5194550000000 1.0
C      1  0.5007610000000  0.5504340000000  0.5753480000000 1.0
C      1  0.5187450000000  0.4926900000000  0.5300270000000 1.0
C      1  0.4143370000000  0.4892860000000  0.5030330000000 1.0
C      1  0.4437670000000  0.4826110000000  0.4201120000000 1.0
C      1  0.4500220000000  0.5242750000000  0.5856510000000 1.0
C      1  0.5152950000000  0.5886420000000  0.5118850000000 1.0
C      1  0.4561920000000  0.4422260000000  0.4401450000000 1.0
C      1  0.5158490000000  0.4039600000000  0.5191020000000 1.0
C      1  0.4366090000000  0.5007690000000  0.5749060000000 1.0
C      1  0.4667810000000  0.5734060000000  0.5050350000000 1.0
C      1  0.4819390000000  0.4354620000000  0.5423340000000 1.0
C      1  0.5005650000000  0.6046100000000  0.4930160000000 1.0
C      1  0.4354550000000  0.5332790000000  0.5417990000000 1.0
C      1  0.4720340000000  0.5980990000000  0.4882440000000 1.0
C      1  0.5584220000000  0.5711670000000  0.4895290000000 1.0
C      1  0.5610640000000  0.4650020000000  0.4480530000000 1.0
C      1  0.5380020000000  0.5289950000000  0.5050930000000 1.0
C      1  0.4740200000000  0.4238340000000  0.4554080000000 1.0
C      1  0.4578610000000  0.5129090000000  0.4777400000000 1.0
C      1  0.5638710000000  0.4415890000000  0.5635250000000 1.0
C      1  0.5479670000000  0.5750350000000  0.4639990000000 1.0
C      1  0.5348830000000  0.4197530000000  0.4227530000000 1.0
C      1  0.4681520000000  0.5637040000000  0.5614510000000 1.0
C      1  0.5063810000000  0.5456830000000  0.5158930000000 1.0
C      1  0.4930380000000  0.4547790000000  0.4976410000000 1.0
C      1  0.4875140000000  0.4775000000000  0.4167220000000 1.0
C      1  0.5291910000000  0.4233740000000  0.5027400000000 1.0
C      1  0.5904650000000  0.4359290000000  0.5674340000000 1.0
C      1  0.5643000000000  0.4655660000000  0.4782200000000 1.0
C      1  0.4268030000000  0.4562900000000  0.5387430000000 1.0
C      1  0.4265770000000  0.5274240000000  0.4602860000000 1.0
C      1  0.5154280000000  0.4648820000000  0.4197230000000 1.0
C      1  0.5843400000000  0.5100980000000  0.5587390000000 1.0
C      1  0.4965230000000  0.5597800000000  0.4172760000000 1.0
C      1  0.5564480000000  0.4095090000000  0.4643090000000 1.0
C      1  0.5013350000000  0.4342350000000  0.4530360000000 1.0
C      1  0.4712040000000  0.4530490000000  0.5193790000000 1.0
END
