TITL C-951341-1326-48 1.32406107837895e-07 125000 -311.120184960864 0 0 51 (C1) n - 1
REM
REM in /home/bkarasulu/work/CARBON/AIRSS/Generating-Clusters/EDIP-Nigel-Params/with-SteepDescent/Only-C1/SD-CG/HFTN-CG
REM
REM
REM
REM
REM
REM ./C.cell (11c1c37f851c82e70ff6c80c92926a4b)
REM
REM compiler GCC version 9.2.1 20190827 (Red Hat 9.2.1-1)
REM options -cpp -mtune=generic -march=x86-64 -g -O0 -fpre-include=/usr/include/finclude/math-vector-fortran.h
REM seed 768204398 -2115118478 1405142176 1490160359 1067485989 1299230779 1539833865 -936607010 -1756061636 -1038209586 -452918884 -654872025 -1284004480 -560786196 533721708 1655836177 1722592338 -639099473 1710233892 771651988 2082016249 -791087787 1716297863 -305971654 -1792639260 -509696077 1087871318 2040649316 -723780638 829618128 -144079598 -1432949009 2067307290
REM
CELL 1.54180   50.00000   50.00000   50.00000   90.00000   90.00000   90.00000
LATT -1
SFAC C  
C      1  0.4921980000000  0.5408930000000  0.5583940000000 1.0
C      1  0.4890770000000  0.4806780000000  0.4398060000000 1.0
C      1  0.4921410000000  0.4941870000000  0.4889480000000 1.0
C      1  0.5293290000000  0.5502330000000  0.4980430000000 1.0
C      1  0.5098100000000  0.5286040000000  0.5787220000000 1.0
C      1  0.4777990000000  0.5681910000000  0.4838200000000 1.0
C      1  0.4993420000000  0.5257420000000  0.4971850000000 1.0
C      1  0.5269920000000  0.4271330000000  0.4928350000000 1.0
C      1  0.5559630000000  0.5044340000000  0.5210020000000 1.0
C      1  0.5204470000000  0.4876450000000  0.5420970000000 1.0
C      1  0.5488010000000  0.5055030000000  0.4922040000000 1.0
C      1  0.4267220000000  0.5295890000000  0.4947850000000 1.0
C      1  0.5071980000000  0.5577830000000  0.5416180000000 1.0
C      1  0.5227010000000  0.4560540000000  0.4912710000000 1.0
C      1  0.4815030000000  0.5155110000000  0.5451130000000 1.0
C      1  0.4727890000000  0.5404650000000  0.4906780000000 1.0
C      1  0.4995580000000  0.5025680000000  0.5860840000000 1.0
C      1  0.5265010000000  0.5446600000000  0.5260770000000 1.0
C      1  0.5322910000000  0.4678230000000  0.4655640000000 1.0
C      1  0.4607370000000  0.5246480000000  0.4666930000000 1.0
C      1  0.5390470000000  0.5305650000000  0.4796940000000 1.0
C      1  0.4326710000000  0.5329890000000  0.4669950000000 1.0
C      1  0.5150080000000  0.4867280000000  0.4521380000000 1.0
C      1  0.5564760000000  0.4809540000000  0.4768940000000 1.0
C      1  0.5547350000000  0.4552800000000  0.5130650000000 1.0
C      1  0.4764870000000  0.5289490000000  0.4409380000000 1.0
C      1  0.4936490000000  0.4646000000000  0.4978910000000 1.0
C      1  0.5311220000000  0.5100920000000  0.5642240000000 1.0
C      1  0.4677360000000  0.4705600000000  0.4581970000000 1.0
C      1  0.4954770000000  0.5675470000000  0.4634690000000 1.0
C      1  0.5484530000000  0.4775090000000  0.5320100000000 1.0
C      1  0.4806370000000  0.5045510000000  0.4272310000000 1.0
C      1  0.4798340000000  0.4644180000000  0.5256870000000 1.0
C      1  0.5447410000000  0.4270620000000  0.5147340000000 1.0
C      1  0.5020970000000  0.5080040000000  0.5238460000000 1.0
C      1  0.4869940000000  0.4245410000000  0.4698100000000 1.0
C      1  0.4824120000000  0.4923220000000  0.5653980000000 1.0
C      1  0.4203850000000  0.5027890000000  0.5005330000000 1.0
C      1  0.4504430000000  0.5372940000000  0.5112870000000 1.0
C      1  0.4960270000000  0.4703250000000  0.5501300000000 1.0
C      1  0.5056060000000  0.4113730000000  0.4844140000000 1.0
C      1  0.5258660000000  0.5295500000000  0.4530630000000 1.0
C      1  0.4636920000000  0.4946280000000  0.4771900000000 1.0
C      1  0.4557060000000  0.4810620000000  0.5246000000000 1.0
C      1  0.5727610000000  0.4628050000000  0.4917860000000 1.0
C      1  0.5009270000000  0.5452110000000  0.4473400000000 1.0
C      1  0.5297380000000  0.5060680000000  0.4377310000000 1.0
C      1  0.5439280000000  0.5252280000000  0.5392140000000 1.0
C      1  0.4437030000000  0.4869610000000  0.4989310000000 1.0
C      1  0.4769940000000  0.4495140000000  0.4777670000000 1.0
C      1  0.4547490000000  0.5181800000000  0.5328470000000 1.0
END
