TITL C-950522-5749-424 -2.79990058740653e-06 125000 -720.988064869589 0 0 117 (C1) n - 1
REM
REM in /home/bkarasulu/work/CARBON/AIRSS/Generating-Clusters/EDIP-Nigel-Params/with-SteepDescent/Only-C1/SD-CG/HFTN-CG
REM
REM
REM
REM
REM
REM ./C.cell (11c1c37f851c82e70ff6c80c92926a4b)
REM
REM compiler GCC version 9.2.1 20190827 (Red Hat 9.2.1-1)
REM options -cpp -mtune=generic -march=x86-64 -g -O0 -fpre-include=/usr/include/finclude/math-vector-fortran.h
REM seed 1436251208 1414490227 -1892776693 1653757307 -1261299543 1193893554 861432499 714175951 1423085575 -1078680474 1866271010 -934718276 1776617459 -1590129777 483717868 1777215030 1910579224 1735860385 85939267 -649793066 1403068559 335684641 510649732 1671181883 -1455159158 1052378850 936042037 -1697222464 -1855771542 -845457101 -1459813993 -895953709 366730082
REM
CELL 1.54180   50.00000   50.00000   50.00000   90.00000   90.00000   90.00000
LATT -1
SFAC C  
C      1  0.5833760000000  0.4720220000000  0.4891620000000 1.0
C      1  0.4215190000000  0.5541050000000  0.4859640000000 1.0
C      1  0.4836460000000  0.4684480000000  0.5068650000000 1.0
C      1  0.5453810000000  0.5570290000000  0.4466140000000 1.0
C      1  0.4984410000000  0.4900320000000  0.5260760000000 1.0
C      1  0.5354330000000  0.5150820000000  0.5960170000000 1.0
C      1  0.5410100000000  0.5273280000000  0.5161590000000 1.0
C      1  0.4067540000000  0.4954330000000  0.5101750000000 1.0
C      1  0.5295860000000  0.5396140000000  0.4281380000000 1.0
C      1  0.4535760000000  0.4946980000000  0.5365000000000 1.0
C      1  0.5194330000000  0.4758480000000  0.4354050000000 1.0
C      1  0.4307440000000  0.5255950000000  0.4462590000000 1.0
C      1  0.5502680000000  0.5389450000000  0.5946160000000 1.0
C      1  0.4780570000000  0.5823960000000  0.4900230000000 1.0
C      1  0.4395610000000  0.5494930000000  0.4635010000000 1.0
C      1  0.4915400000000  0.4968930000000  0.5937490000000 1.0
C      1  0.4798110000000  0.4337620000000  0.5589430000000 1.0
C      1  0.4710070000000  0.4268120000000  0.5140530000000 1.0
C      1  0.4739380000000  0.5515320000000  0.5874510000000 1.0
C      1  0.5273440000000  0.4860480000000  0.5356990000000 1.0
C      1  0.4339350000000  0.4204380000000  0.4857860000000 1.0
C      1  0.4517370000000  0.4691360000000  0.5117490000000 1.0
C      1  0.4100440000000  0.5123580000000  0.4604320000000 1.0
C      1  0.5822040000000  0.4875390000000  0.4421920000000 1.0
C      1  0.5946120000000  0.5192270000000  0.4843730000000 1.0
C      1  0.4604230000000  0.4099740000000  0.4925200000000 1.0
C      1  0.5225390000000  0.4309760000000  0.4560260000000 1.0
C      1  0.5552900000000  0.5050400000000  0.4979220000000 1.0
C      1  0.4772690000000  0.4115400000000  0.4679000000000 1.0
C      1  0.4458000000000  0.4411210000000  0.5226290000000 1.0
C      1  0.5633800000000  0.4436560000000  0.5160920000000 1.0
C      1  0.4289060000000  0.5337850000000  0.5069330000000 1.0
C      1  0.4760720000000  0.4620220000000  0.5671500000000 1.0
C      1  0.5455870000000  0.4338020000000  0.4768220000000 1.0
C      1  0.5360150000000  0.4472870000000  0.5541510000000 1.0
C      1  0.4564310000000  0.4704640000000  0.4786720000000 1.0
C      1  0.4354810000000  0.4771850000000  0.4324070000000 1.0
C      1  0.5467780000000  0.4925020000000  0.5804550000000 1.0
C      1  0.4058110000000  0.4933680000000  0.4809290000000 1.0
C      1  0.5887450000000  0.4937910000000  0.4706180000000 1.0
C      1  0.5858100000000  0.5347100000000  0.5307520000000 1.0
C      1  0.4804050000000  0.5657710000000  0.4462550000000 1.0
C      1  0.5681610000000  0.5393300000000  0.4498470000000 1.0
C      1  0.4991640000000  0.4708740000000  0.5845770000000 1.0
C      1  0.4294790000000  0.5739940000000  0.5048000000000 1.0
C      1  0.4956740000000  0.4836360000000  0.4529540000000 1.0
C      1  0.5191570000000  0.4962670000000  0.4127290000000 1.0
C      1  0.5818500000000  0.5443100000000  0.4746510000000 1.0
C      1  0.4597470000000  0.4209390000000  0.4444600000000 1.0
C      1  0.4701530000000  0.5568130000000  0.5605560000000 1.0
C      1  0.5404150000000  0.4288160000000  0.5074940000000 1.0
C      1  0.4460980000000  0.5449950000000  0.5461830000000 1.0
C      1  0.4925320000000  0.4242400000000  0.5350070000000 1.0
C      1  0.4903860000000  0.5351450000000  0.6017140000000 1.0
C      1  0.5559630000000  0.5402180000000  0.5662570000000 1.0
C      1  0.5414970000000  0.4789750000000  0.4564520000000 1.0
C      1  0.4963010000000  0.5722200000000  0.5146660000000 1.0
C      1  0.4090520000000  0.4695360000000  0.5238150000000 1.0
C      1  0.4692840000000  0.5589890000000  0.4715670000000 1.0
C      1  0.5709640000000  0.4605520000000  0.4438950000000 1.0
C      1  0.5061350000000  0.4959830000000  0.4806030000000 1.0
C      1  0.5194010000000  0.4458960000000  0.4297150000000 1.0
C      1  0.5958160000000  0.5130940000000  0.5130700000000 1.0
C      1  0.5037850000000  0.4497920000000  0.4951240000000 1.0
C      1  0.4727960000000  0.4442450000000  0.4309190000000 1.0
C      1  0.5471670000000  0.5637870000000  0.5485670000000 1.0
C      1  0.4178190000000  0.5201780000000  0.5516620000000 1.0
C      1  0.5027420000000  0.5407230000000  0.4172810000000 1.0
C      1  0.4857380000000  0.5370190000000  0.4847140000000 1.0
C      1  0.5628770000000  0.4520180000000  0.5429600000000 1.0
C      1  0.5760230000000  0.4776700000000  0.5425540000000 1.0
C      1  0.5487610000000  0.5095420000000  0.4626980000000 1.0
C      1  0.5268240000000  0.4708010000000  0.5715900000000 1.0
C      1  0.4860130000000  0.5625470000000  0.4203280000000 1.0
C      1  0.5642500000000  0.5611870000000  0.4919610000000 1.0
C      1  0.4978050000000  0.5958020000000  0.4739910000000 1.0
C      1  0.5235400000000  0.5893720000000  0.4839550000000 1.0
C      1  0.4725400000000  0.5030210000000  0.4478350000000 1.0
C      1  0.5352620000000  0.5154390000000  0.5440890000000 1.0
C      1  0.4494980000000  0.5033220000000  0.4294860000000 1.0
C      1  0.5212530000000  0.4335200000000  0.5318190000000 1.0
C      1  0.4325510000000  0.4953860000000  0.5581750000000 1.0
C      1  0.5103280000000  0.5300050000000  0.5557010000000 1.0
C      1  0.5707460000000  0.4498750000000  0.4711880000000 1.0
C      1  0.5212790000000  0.5881580000000  0.5120100000000 1.0
C      1  0.5250810000000  0.4710510000000  0.4881320000000 1.0
C      1  0.5190100000000  0.5672060000000  0.5574190000000 1.0
C      1  0.4130010000000  0.4659870000000  0.4765750000000 1.0
C      1  0.5887530000000  0.4842700000000  0.5170090000000 1.0
C      1  0.4252230000000  0.4578530000000  0.4514060000000 1.0
C      1  0.4959820000000  0.4380660000000  0.4163400000000 1.0
C      1  0.4082450000000  0.5211890000000  0.5237690000000 1.0
C      1  0.4796440000000  0.5091210000000  0.4909500000000 1.0
C      1  0.4920010000000  0.5251790000000  0.5301570000000 1.0
C      1  0.4392930000000  0.4337320000000  0.4606750000000 1.0
C      1  0.4785220000000  0.4847660000000  0.5477610000000 1.0
C      1  0.5605530000000  0.5500120000000  0.5206780000000 1.0
C      1  0.5417210000000  0.5144080000000  0.4192980000000 1.0
C      1  0.4602370000000  0.5235180000000  0.5278440000000 1.0
C      1  0.5409080000000  0.5677110000000  0.4744480000000 1.0
C      1  0.4587130000000  0.4997200000000  0.4735790000000 1.0
C      1  0.5801120000000  0.5254760000000  0.5584860000000 1.0
C      1  0.4964500000000  0.4356850000000  0.4703900000000 1.0
C      1  0.4355040000000  0.5673100000000  0.5309030000000 1.0
C      1  0.5078310000000  0.5190310000000  0.5858560000000 1.0
C      1  0.5705620000000  0.4974620000000  0.5629880000000 1.0
C      1  0.4925660000000  0.5690720000000  0.5452930000000 1.0
C      1  0.4437340000000  0.4465230000000  0.5526730000000 1.0
C      1  0.5259540000000  0.5193600000000  0.4809540000000 1.0
C      1  0.5017260000000  0.5435880000000  0.5078940000000 1.0
C      1  0.5681840000000  0.5044090000000  0.4240530000000 1.0
C      1  0.4213000000000  0.4680920000000  0.5514060000000 1.0
C      1  0.4799500000000  0.4581260000000  0.4578780000000 1.0
C      1  0.5453190000000  0.4770620000000  0.5108760000000 1.0
C      1  0.4138000000000  0.4487340000000  0.5016420000000 1.0
C      1  0.4938040000000  0.5137090000000  0.4103180000000 1.0
C      1  0.4657920000000  0.5075330000000  0.4045960000000 1.0
END
