TITL C-951343-2256-166 4.6165705712507e-07 125000 -915.720523600303 0 0 145 (C1) n - 1
REM
REM in /home/bkarasulu/work/CARBON/AIRSS/Generating-Clusters/EDIP-Nigel-Params/with-SteepDescent/Only-C1/SD-CG/HFTN-CG
REM
REM
REM
REM
REM
REM ./C.cell (11c1c37f851c82e70ff6c80c92926a4b)
REM
REM compiler GCC version 9.2.1 20190827 (Red Hat 9.2.1-1)
REM options -cpp -mtune=generic -march=x86-64 -g -O0 -fpre-include=/usr/include/finclude/math-vector-fortran.h
REM seed -1615312703 319519419 737844102 -49168354 -637211020 1877609713 1988971380 -674725903 -1043376950 1289882379 -1526877658 -2001328528 -1051592105 119605953 -2125826691 -1980716788 -1832558224 -1810096623 -251260125 -283681894 1226008789 2032588157 -1585290230 -129864261 -817999479 -971857003 -795632430 741250471 -193622373 1669667889 310607840 532136408 150179808
REM
CELL 1.54180   50.00000   50.00000   50.00000   90.00000   90.00000   90.00000
LATT -1
SFAC C  
C      1  0.4438560000000  0.4267140000000  0.5014500000000 1.0
C      1  0.4166460000000  0.5537860000000  0.5186230000000 1.0
C      1  0.4286820000000  0.5535220000000  0.5645010000000 1.0
C      1  0.4636010000000  0.5885330000000  0.4686280000000 1.0
C      1  0.5933920000000  0.4659800000000  0.5354520000000 1.0
C      1  0.5795590000000  0.5589570000000  0.5416020000000 1.0
C      1  0.4866080000000  0.4927790000000  0.3911210000000 1.0
C      1  0.5250560000000  0.4583240000000  0.4021730000000 1.0
C      1  0.4836350000000  0.3944140000000  0.5471740000000 1.0
C      1  0.4908100000000  0.5026720000000  0.4767500000000 1.0
C      1  0.5698210000000  0.5194410000000  0.4917250000000 1.0
C      1  0.4855730000000  0.4957560000000  0.4294200000000 1.0
C      1  0.4719820000000  0.4162800000000  0.5634740000000 1.0
C      1  0.4589560000000  0.5876320000000  0.5571310000000 1.0
C      1  0.4280500000000  0.5115890000000  0.5409890000000 1.0
C      1  0.5009980000000  0.4474150000000  0.4103820000000 1.0
C      1  0.4748420000000  0.5257100000000  0.4805890000000 1.0
C      1  0.4214180000000  0.4626520000000  0.5277490000000 1.0
C      1  0.5023240000000  0.4777980000000  0.5470450000000 1.0
C      1  0.5318860000000  0.4946610000000  0.4617980000000 1.0
C      1  0.5590040000000  0.5804740000000  0.4992820000000 1.0
C      1  0.5313470000000  0.5185370000000  0.6009590000000 1.0
C      1  0.5045080000000  0.4551640000000  0.4731870000000 1.0
C      1  0.5469770000000  0.4420460000000  0.4086470000000 1.0
C      1  0.4402700000000  0.4557230000000  0.5517820000000 1.0
C      1  0.5609950000000  0.5774270000000  0.5293130000000 1.0
C      1  0.5857250000000  0.4925390000000  0.4865670000000 1.0
C      1  0.5836510000000  0.4229280000000  0.5158600000000 1.0
C      1  0.5597810000000  0.5787610000000  0.4506980000000 1.0
C      1  0.4933570000000  0.4543630000000  0.5021740000000 1.0
C      1  0.5350240000000  0.5397910000000  0.4692870000000 1.0
C      1  0.4035220000000  0.5222860000000  0.4699070000000 1.0
C      1  0.5780330000000  0.4679440000000  0.5027750000000 1.0
C      1  0.4929830000000  0.5947660000000  0.4773820000000 1.0
C      1  0.5519830000000  0.5559980000000  0.4320870000000 1.0
C      1  0.5691110000000  0.5032990000000  0.4395820000000 1.0
C      1  0.4398700000000  0.4875360000000  0.4112410000000 1.0
C      1  0.4438450000000  0.4406410000000  0.4578970000000 1.0
C      1  0.5120650000000  0.4652090000000  0.5230260000000 1.0
C      1  0.4513130000000  0.5994140000000  0.5132280000000 1.0
C      1  0.5146280000000  0.5967190000000  0.5297220000000 1.0
C      1  0.5663930000000  0.5330160000000  0.4460790000000 1.0
C      1  0.5483270000000  0.4664000000000  0.4972400000000 1.0
C      1  0.5817300000000  0.4839320000000  0.4585490000000 1.0
C      1  0.5411900000000  0.4042000000000  0.4984210000000 1.0
C      1  0.4656610000000  0.4868240000000  0.5243050000000 1.0
C      1  0.5714290000000  0.4329030000000  0.4690120000000 1.0
C      1  0.4283430000000  0.5053070000000  0.4310490000000 1.0
C      1  0.5471720000000  0.5330160000000  0.5689650000000 1.0
C      1  0.4177310000000  0.5397920000000  0.5427180000000 1.0
C      1  0.5388050000000  0.5073240000000  0.5562940000000 1.0
C      1  0.5475490000000  0.4729660000000  0.5922890000000 1.0
C      1  0.5216470000000  0.5525380000000  0.4268330000000 1.0
C      1  0.5288760000000  0.5428370000000  0.5168530000000 1.0
C      1  0.4716940000000  0.5563050000000  0.5863020000000 1.0
C      1  0.4818000000000  0.5474600000000  0.4041170000000 1.0
C      1  0.5817390000000  0.4394680000000  0.5388150000000 1.0
C      1  0.5117030000000  0.5070520000000  0.3969170000000 1.0
C      1  0.5002900000000  0.4289310000000  0.4576890000000 1.0
C      1  0.4842790000000  0.5617540000000  0.5220010000000 1.0
C      1  0.4380100000000  0.4948120000000  0.4917620000000 1.0
C      1  0.4864230000000  0.4363770000000  0.4314580000000 1.0
C      1  0.5109470000000  0.5370710000000  0.4516110000000 1.0
C      1  0.5643500000000  0.4585530000000  0.4537290000000 1.0
C      1  0.4523310000000  0.5133980000000  0.5222880000000 1.0
C      1  0.5863680000000  0.5114800000000  0.5466180000000 1.0
C      1  0.5404120000000  0.4460530000000  0.5957160000000 1.0
C      1  0.5275380000000  0.5592300000000  0.4914190000000 1.0
C      1  0.4295100000000  0.4077820000000  0.5439450000000 1.0
C      1  0.5130010000000  0.3997520000000  0.5430670000000 1.0
C      1  0.4736100000000  0.4791440000000  0.4725020000000 1.0
C      1  0.5791850000000  0.5402740000000  0.4717460000000 1.0
C      1  0.5589900000000  0.5341960000000  0.5201940000000 1.0
C      1  0.4086520000000  0.4969120000000  0.4978940000000 1.0
C      1  0.5568030000000  0.4472790000000  0.5522980000000 1.0
C      1  0.4497140000000  0.5687850000000  0.5748590000000 1.0
C      1  0.4472850000000  0.5197460000000  0.4798310000000 1.0
C      1  0.4068060000000  0.5007370000000  0.4501900000000 1.0
C      1  0.4622730000000  0.4799930000000  0.4416210000000 1.0
C      1  0.4911530000000  0.3988760000000  0.5002040000000 1.0
C      1  0.4245600000000  0.4574220000000  0.4728920000000 1.0
C      1  0.4439970000000  0.4049340000000  0.5199570000000 1.0
C      1  0.5249650000000  0.4910990000000  0.5949880000000 1.0
C      1  0.4596470000000  0.5024800000000  0.3948720000000 1.0
C      1  0.5172830000000  0.4020300000000  0.5132090000000 1.0
C      1  0.5176740000000  0.5421350000000  0.5924670000000 1.0
C      1  0.4706780000000  0.3918460000000  0.5206990000000 1.0
C      1  0.4686160000000  0.5024120000000  0.5705800000000 1.0
C      1  0.5865700000000  0.4402300000000  0.4935710000000 1.0
C      1  0.4791440000000  0.5712130000000  0.4226660000000 1.0
C      1  0.4356430000000  0.4729980000000  0.5759090000000 1.0
C      1  0.5587470000000  0.4876210000000  0.4165070000000 1.0
C      1  0.4973790000000  0.5661620000000  0.4896770000000 1.0
C      1  0.4568690000000  0.4661210000000  0.5955440000000 1.0
C      1  0.5404870000000  0.6014980000000  0.4893070000000 1.0
C      1  0.4988770000000  0.4792560000000  0.6020040000000 1.0
C      1  0.5385360000000  0.5977280000000  0.4603030000000 1.0
C      1  0.5583520000000  0.5067210000000  0.5334870000000 1.0
C      1  0.4389430000000  0.5514440000000  0.4472120000000 1.0
C      1  0.4443920000000  0.4261950000000  0.5588610000000 1.0
C      1  0.4721850000000  0.5348730000000  0.5323320000000 1.0
C      1  0.5119980000000  0.5596460000000  0.5376320000000 1.0
C      1  0.4546830000000  0.4207460000000  0.4756580000000 1.0
C      1  0.5355880000000  0.4664740000000  0.4696840000000 1.0
C      1  0.4606460000000  0.4503940000000  0.4356950000000 1.0
C      1  0.4947680000000  0.5450980000000  0.5751950000000 1.0
C      1  0.4650820000000  0.5251320000000  0.4136070000000 1.0
C      1  0.4865020000000  0.5485900000000  0.4670390000000 1.0
C      1  0.5764080000000  0.5369500000000  0.5607380000000 1.0
C      1  0.5640060000000  0.4589570000000  0.4231800000000 1.0
C      1  0.4680090000000  0.5862290000000  0.5310900000000 1.0
C      1  0.5105980000000  0.5950580000000  0.4522780000000 1.0
C      1  0.5149600000000  0.5153860000000  0.5111410000000 1.0
C      1  0.5107850000000  0.5065430000000  0.5438660000000 1.0
C      1  0.4923260000000  0.4299470000000  0.5784420000000 1.0
C      1  0.5309780000000  0.4866950000000  0.4068230000000 1.0
C      1  0.5264900000000  0.4170450000000  0.4548850000000 1.0
C      1  0.5751170000000  0.5694780000000  0.4753860000000 1.0
C      1  0.5143290000000  0.6055280000000  0.5019640000000 1.0
C      1  0.5872650000000  0.4842900000000  0.5581780000000 1.0
C      1  0.4724890000000  0.4771430000000  0.5516550000000 1.0
C      1  0.4871110000000  0.5235670000000  0.5558490000000 1.0
C      1  0.4472690000000  0.5821970000000  0.4920120000000 1.0
C      1  0.5393270000000  0.5133960000000  0.4839150000000 1.0
C      1  0.5476900000000  0.4148940000000  0.4731880000000 1.0
C      1  0.4380350000000  0.5026150000000  0.5684400000000 1.0
C      1  0.5163970000000  0.4218350000000  0.5631040000000 1.0
C      1  0.4843570000000  0.4564420000000  0.5886310000000 1.0
C      1  0.4059980000000  0.4744790000000  0.4603050000000 1.0
C      1  0.4392140000000  0.5316040000000  0.4262770000000 1.0
C      1  0.5424950000000  0.4308630000000  0.5719910000000 1.0
C      1  0.5069340000000  0.5790070000000  0.4277020000000 1.0
C      1  0.5588620000000  0.4751410000000  0.5645190000000 1.0
C      1  0.4823260000000  0.4112880000000  0.4745640000000 1.0
C      1  0.4763210000000  0.4981620000000  0.6000410000000 1.0
C      1  0.4276700000000  0.5401100000000  0.4725290000000 1.0
C      1  0.5058990000000  0.5064060000000  0.4517600000000 1.0
C      1  0.4105210000000  0.4905990000000  0.5263600000000 1.0
C      1  0.5101260000000  0.5371790000000  0.4026760000000 1.0
C      1  0.4267450000000  0.5612330000000  0.4936920000000 1.0
C      1  0.5343360000000  0.4822020000000  0.5150210000000 1.0
C      1  0.5378110000000  0.5868290000000  0.5436680000000 1.0
C      1  0.4239170000000  0.4476860000000  0.5013080000000 1.0
C      1  0.4658490000000  0.5652060000000  0.4498090000000 1.0
C      1  0.4628160000000  0.4666580000000  0.5016820000000 1.0
END
