TITL C-950522-5749-194 1.12651157516535e-08 125000 -398.046122177864 0 0 65 (C1) n - 1
REM
REM in /home/bkarasulu/work/CARBON/AIRSS/Generating-Clusters/EDIP-Nigel-Params/with-SteepDescent/Only-C1/SD-CG/HFTN-CG
REM
REM
REM
REM
REM
REM ./C.cell (11c1c37f851c82e70ff6c80c92926a4b)
REM
REM compiler GCC version 9.2.1 20190827 (Red Hat 9.2.1-1)
REM options -cpp -mtune=generic -march=x86-64 -g -O0 -fpre-include=/usr/include/finclude/math-vector-fortran.h
REM seed 217136082 1067580067 -258494475 331405853 435323996 -82989553 -924869867 1910339532 642527136 -966698776 -228157226 -309999400 -2000042174 469137104 -1157714989 2131572342 2107420697 -1974197083 -1963556216 1437524522 -2026689696 -1527343564 724777232 1557017634 873112446 1815076941 -1038977351 -1134881462 -2120733263 1200568575 1891259856 -1134409304 1678811883
REM
CELL 1.54180   50.00000   50.00000   50.00000   90.00000   90.00000   90.00000
LATT -1
SFAC C  
C      1  0.5642400000000  0.5328760000000  0.5088600000000 1.0
C      1  0.4515840000000  0.4745060000000  0.4442250000000 1.0
C      1  0.5316230000000  0.4780080000000  0.5359840000000 1.0
C      1  0.5395620000000  0.5405920000000  0.4490570000000 1.0
C      1  0.5845540000000  0.4864220000000  0.5067740000000 1.0
C      1  0.4783250000000  0.4325570000000  0.5214610000000 1.0
C      1  0.5811780000000  0.4869650000000  0.5343280000000 1.0
C      1  0.4775400000000  0.5525420000000  0.5323920000000 1.0
C      1  0.4392070000000  0.5280610000000  0.5158650000000 1.0
C      1  0.5393370000000  0.4650540000000  0.4574520000000 1.0
C      1  0.4199710000000  0.5050550000000  0.5172980000000 1.0
C      1  0.5267470000000  0.4840130000000  0.4377590000000 1.0
C      1  0.4274020000000  0.5143660000000  0.4708000000000 1.0
C      1  0.4805650000000  0.4724270000000  0.4521830000000 1.0
C      1  0.4478370000000  0.4559390000000  0.4847650000000 1.0
C      1  0.4947770000000  0.5532430000000  0.5093260000000 1.0
C      1  0.5053930000000  0.5341860000000  0.5616920000000 1.0
C      1  0.5396310000000  0.4564720000000  0.5127410000000 1.0
C      1  0.4256000000000  0.4637550000000  0.5027330000000 1.0
C      1  0.5551620000000  0.5175650000000  0.4439220000000 1.0
C      1  0.4996910000000  0.4953280000000  0.4468000000000 1.0
C      1  0.4609540000000  0.5524780000000  0.4720120000000 1.0
C      1  0.4129340000000  0.4967890000000  0.4893700000000 1.0
C      1  0.5163410000000  0.4953890000000  0.5793220000000 1.0
C      1  0.5639210000000  0.5028570000000  0.4678200000000 1.0
C      1  0.5174540000000  0.4714310000000  0.5617670000000 1.0
C      1  0.5074270000000  0.4353010000000  0.5153150000000 1.0
C      1  0.4591860000000  0.5180400000000  0.5609850000000 1.0
C      1  0.5081730000000  0.5619200000000  0.4641520000000 1.0
C      1  0.5267340000000  0.4674340000000  0.4856880000000 1.0
C      1  0.5210820000000  0.4960110000000  0.4932310000000 1.0
C      1  0.5696610000000  0.5369640000000  0.5368560000000 1.0
C      1  0.5038240000000  0.4465500000000  0.4881430000000 1.0
C      1  0.4639480000000  0.5260410000000  0.5332170000000 1.0
C      1  0.5703970000000  0.4642650000000  0.4938310000000 1.0
C      1  0.5134910000000  0.5005540000000  0.5223380000000 1.0
C      1  0.4586420000000  0.4763090000000  0.5355700000000 1.0
C      1  0.4866000000000  0.5618910000000  0.4826850000000 1.0
C      1  0.5492640000000  0.5201060000000  0.5503600000000 1.0
C      1  0.4773520000000  0.5007010000000  0.4910020000000 1.0
C      1  0.4432400000000  0.5335700000000  0.4867360000000 1.0
C      1  0.5406980000000  0.5462880000000  0.4968360000000 1.0
C      1  0.4855580000000  0.5135200000000  0.5701590000000 1.0
C      1  0.5028440000000  0.5103460000000  0.4748050000000 1.0
C      1  0.5449450000000  0.5007570000000  0.4238960000000 1.0
C      1  0.4364990000000  0.4545130000000  0.4578400000000 1.0
C      1  0.4715610000000  0.4517780000000  0.5434310000000 1.0
C      1  0.4940200000000  0.4565010000000  0.5595580000000 1.0
C      1  0.4746740000000  0.4721070000000  0.4817980000000 1.0
C      1  0.4912140000000  0.5588380000000  0.5562940000000 1.0
C      1  0.5227750000000  0.5270160000000  0.5364760000000 1.0
C      1  0.4625200000000  0.5229520000000  0.4351120000000 1.0
C      1  0.4602400000000  0.5494710000000  0.4440730000000 1.0
C      1  0.5768870000000  0.5116040000000  0.4927020000000 1.0
C      1  0.4875200000000  0.5129730000000  0.4272790000000 1.0
C      1  0.5560670000000  0.4921010000000  0.5448660000000 1.0
C      1  0.4843780000000  0.4276100000000  0.4751510000000 1.0
C      1  0.4309140000000  0.4784420000000  0.5272440000000 1.0
C      1  0.4813020000000  0.5023450000000  0.5203820000000 1.0
C      1  0.5661220000000  0.4735900000000  0.4659970000000 1.0
C      1  0.4433380000000  0.5037420000000  0.4469360000000 1.0
C      1  0.5366070000000  0.5172070000000  0.5779220000000 1.0
C      1  0.5236190000000  0.5396090000000  0.4721900000000 1.0
C      1  0.4628530000000  0.4311460000000  0.4941470000000 1.0
C      1  0.5222940000000  0.5510130000000  0.5180860000000 1.0
END
