TITL C-951347-9520-96 -2.71178451719054e-06 125000 -697.948666778896 0 0 113 (C1) n - 1
REM
REM in /home/bkarasulu/work/CARBON/AIRSS/Generating-Clusters/EDIP-Nigel-Params/with-SteepDescent/Only-C1/SD-CG/HFTN-CG
REM
REM
REM
REM
REM
REM ./C.cell (11c1c37f851c82e70ff6c80c92926a4b)
REM
REM compiler GCC version 9.2.1 20190827 (Red Hat 9.2.1-1)
REM options -cpp -mtune=generic -march=x86-64 -g -O0 -fpre-include=/usr/include/finclude/math-vector-fortran.h
REM seed -412631777 887157914 825450712 -1337625842 747457629 1684217267 -532260085 -2023799833 1783158129 -1297214781 -932012079 -332898508 597287021 -1141252950 675166008 1144020448 1129931458 1235714760 1057369942 -1006849983 -1789795009 -843074764 -793576427 -1768666189 -1446727891 -179084353 -779956293 -2027155534 -555294433 43067892 -58418957 1715197912 -37477133
REM
CELL 1.54180   50.00000   50.00000   50.00000   90.00000   90.00000   90.00000
LATT -1
SFAC C  
C      1  0.4727010000000  0.5172750000000  0.4636670000000 1.0
C      1  0.4764850000000  0.5166170000000  0.5739700000000 1.0
C      1  0.4836720000000  0.5643750000000  0.5612010000000 1.0
C      1  0.5276630000000  0.5767460000000  0.4971430000000 1.0
C      1  0.5045490000000  0.5110850000000  0.4981150000000 1.0
C      1  0.5017420000000  0.5755640000000  0.4822380000000 1.0
C      1  0.4342910000000  0.5450710000000  0.4802360000000 1.0
C      1  0.5234750000000  0.5708950000000  0.5285650000000 1.0
C      1  0.4576790000000  0.5072020000000  0.5537500000000 1.0
C      1  0.5186630000000  0.4144990000000  0.5321100000000 1.0
C      1  0.5042400000000  0.4624840000000  0.4766190000000 1.0
C      1  0.5733860000000  0.5084820000000  0.4902290000000 1.0
C      1  0.5216790000000  0.5308220000000  0.5747410000000 1.0
C      1  0.4423090000000  0.4586820000000  0.5452440000000 1.0
C      1  0.4942780000000  0.4448220000000  0.5631920000000 1.0
C      1  0.4763910000000  0.5760120000000  0.4970530000000 1.0
C      1  0.4564750000000  0.4436220000000  0.4311480000000 1.0
C      1  0.5016740000000  0.5112980000000  0.4670360000000 1.0
C      1  0.5412150000000  0.4353360000000  0.5714400000000 1.0
C      1  0.5435820000000  0.5214720000000  0.4466780000000 1.0
C      1  0.5159130000000  0.4226360000000  0.5601600000000 1.0
C      1  0.4125560000000  0.5037200000000  0.4952710000000 1.0
C      1  0.4617270000000  0.4917210000000  0.4546360000000 1.0
C      1  0.5745070000000  0.5520440000000  0.4932110000000 1.0
C      1  0.5567470000000  0.4449440000000  0.4500580000000 1.0
C      1  0.5246710000000  0.4409760000000  0.4712030000000 1.0
C      1  0.5522200000000  0.4925440000000  0.4398140000000 1.0
C      1  0.4645010000000  0.5380060000000  0.4111030000000 1.0
C      1  0.4214040000000  0.4752180000000  0.4464680000000 1.0
C      1  0.5261250000000  0.4970320000000  0.5398270000000 1.0
C      1  0.4128770000000  0.5340060000000  0.5010200000000 1.0
C      1  0.4726830000000  0.5094330000000  0.4067960000000 1.0
C      1  0.4652990000000  0.5678550000000  0.4519870000000 1.0
C      1  0.4890870000000  0.4178540000000  0.4587690000000 1.0
C      1  0.5331770000000  0.4223320000000  0.5084140000000 1.0
C      1  0.5121050000000  0.4529160000000  0.5292560000000 1.0
C      1  0.5825360000000  0.4550340000000  0.5481720000000 1.0
C      1  0.5675010000000  0.5403180000000  0.4463450000000 1.0
C      1  0.5694110000000  0.5321660000000  0.5745960000000 1.0
C      1  0.4530020000000  0.4889400000000  0.4078220000000 1.0
C      1  0.4428490000000  0.4991180000000  0.4957360000000 1.0
C      1  0.4526070000000  0.5718310000000  0.4789330000000 1.0
C      1  0.5054860000000  0.4831980000000  0.4561330000000 1.0
C      1  0.5476120000000  0.5594130000000  0.4809720000000 1.0
C      1  0.5835640000000  0.5321570000000  0.4716570000000 1.0
C      1  0.4947350000000  0.5656420000000  0.4545250000000 1.0
C      1  0.4142390000000  0.5130800000000  0.4463130000000 1.0
C      1  0.5183850000000  0.5267580000000  0.4294490000000 1.0
C      1  0.5536350000000  0.4568530000000  0.5534740000000 1.0
C      1  0.4321720000000  0.4583220000000  0.4707700000000 1.0
C      1  0.5816900000000  0.4478700000000  0.5201960000000 1.0
C      1  0.5822190000000  0.5144250000000  0.5323250000000 1.0
C      1  0.5423940000000  0.4835900000000  0.5864490000000 1.0
C      1  0.4743980000000  0.5895070000000  0.5232270000000 1.0
C      1  0.5562200000000  0.5665010000000  0.4533470000000 1.0
C      1  0.5401360000000  0.5227520000000  0.5262230000000 1.0
C      1  0.5279420000000  0.4762870000000  0.4379770000000 1.0
C      1  0.5345090000000  0.5311810000000  0.4750960000000 1.0
C      1  0.5319140000000  0.4552470000000  0.5921970000000 1.0
C      1  0.4868570000000  0.4399500000000  0.4365350000000 1.0
C      1  0.4293840000000  0.4698180000000  0.5688500000000 1.0
C      1  0.4948180000000  0.5377250000000  0.5654200000000 1.0
C      1  0.4556670000000  0.5614280000000  0.5518330000000 1.0
C      1  0.4660060000000  0.4334120000000  0.4992710000000 1.0
C      1  0.4702460000000  0.4708560000000  0.5472620000000 1.0
C      1  0.5732730000000  0.5670440000000  0.5386430000000 1.0
C      1  0.5166560000000  0.5425140000000  0.5273390000000 1.0
C      1  0.4218740000000  0.5305510000000  0.5295100000000 1.0
C      1  0.4519510000000  0.5459810000000  0.4372580000000 1.0
C      1  0.5593360000000  0.4327850000000  0.5111880000000 1.0
C      1  0.5728570000000  0.5430690000000  0.5219300000000 1.0
C      1  0.5358970000000  0.4697230000000  0.5335900000000 1.0
C      1  0.5704860000000  0.4828330000000  0.5727350000000 1.0
C      1  0.4977370000000  0.5382450000000  0.5059790000000 1.0
C      1  0.5214910000000  0.5007450000000  0.5711140000000 1.0
C      1  0.4888240000000  0.4764540000000  0.5993920000000 1.0
C      1  0.4881540000000  0.4701000000000  0.5226030000000 1.0
C      1  0.4440110000000  0.4343140000000  0.4566580000000 1.0
C      1  0.4235970000000  0.4707990000000  0.5226300000000 1.0
C      1  0.4929100000000  0.4935160000000  0.5772040000000 1.0
C      1  0.4874040000000  0.5543520000000  0.4083410000000 1.0
C      1  0.5011960000000  0.4957800000000  0.5233550000000 1.0
C      1  0.5688730000000  0.4718040000000  0.4541420000000 1.0
C      1  0.4272680000000  0.5381110000000  0.4514020000000 1.0
C      1  0.5125360000000  0.4151370000000  0.4771080000000 1.0
C      1  0.5457410000000  0.5435580000000  0.5650080000000 1.0
C      1  0.5786910000000  0.5095470000000  0.5610990000000 1.0
C      1  0.4542930000000  0.4770290000000  0.4793250000000 1.0
C      1  0.5735450000000  0.4798200000000  0.4814890000000 1.0
C      1  0.4783970000000  0.4610180000000  0.4938400000000 1.0
C      1  0.4409390000000  0.4683630000000  0.4234400000000 1.0
C      1  0.4819890000000  0.4787070000000  0.4371570000000 1.0
C      1  0.4497960000000  0.5848600000000  0.5368380000000 1.0
C      1  0.5113270000000  0.4407820000000  0.4177890000000 1.0
C      1  0.5469760000000  0.5674660000000  0.5481130000000 1.0
C      1  0.5911130000000  0.4701620000000  0.5028440000000 1.0
C      1  0.5067530000000  0.5541470000000  0.4290670000000 1.0
C      1  0.4555810000000  0.5244050000000  0.4875840000000 1.0
C      1  0.4017130000000  0.4998290000000  0.4680620000000 1.0
C      1  0.5019770000000  0.4528420000000  0.5910330000000 1.0
C      1  0.4304160000000  0.4974870000000  0.5626260000000 1.0
C      1  0.4632290000000  0.4189620000000  0.4733340000000 1.0
C      1  0.5348130000000  0.4327720000000  0.4347000000000 1.0
C      1  0.4517110000000  0.5344980000000  0.5367270000000 1.0
C      1  0.5176930000000  0.4693160000000  0.4108240000000 1.0
C      1  0.4689930000000  0.5347270000000  0.5112630000000 1.0
C      1  0.5440940000000  0.5127600000000  0.4971250000000 1.0
C      1  0.4143080000000  0.5040690000000  0.5395580000000 1.0
C      1  0.5978760000000  0.4953370000000  0.5169760000000 1.0
C      1  0.4975600000000  0.5833640000000  0.5416590000000 1.0
C      1  0.4192250000000  0.4517400000000  0.4978000000000 1.0
C      1  0.5015010000000  0.5037320000000  0.4155270000000 1.0
C      1  0.4395400000000  0.4358700000000  0.5136060000000 1.0
END
