TITL C-950530-3293-220 -4.43498599699511e-06 125000 -1102.81009937322 0 0 174 (C1) n - 1
REM
REM in /home/bkarasulu/work/CARBON/AIRSS/Generating-Clusters/EDIP-Nigel-Params/with-SteepDescent/Only-C1/SD-CG/HFTN-CG
REM
REM
REM
REM
REM
REM ./C.cell (11c1c37f851c82e70ff6c80c92926a4b)
REM
REM compiler GCC version 9.2.1 20190827 (Red Hat 9.2.1-1)
REM options -cpp -mtune=generic -march=x86-64 -g -O0 -fpre-include=/usr/include/finclude/math-vector-fortran.h
REM seed 1208130449 -401817281 -1123543021 1399241975 -2003911796 -1048591518 -1703924233 -117345773 -300525645 -554149810 -168373635 1929232099 -751050947 756214203 -1009169549 491848566 809205750 67202959 910073255 -517522195 -207969809 1395147162 -729968671 1033905900 -1391776098 -1591683499 1636774729 808836412 -1425429180 370449437 619164919 -2095819647 253186850
REM
CELL 1.54180   50.00000   50.00000   50.00000   90.00000   90.00000   90.00000
LATT -1
SFAC C  
C      1  0.5827530000000  0.5563280000000  0.4736170000000 1.0
C      1  0.3821960000000  0.5273770000000  0.5015930000000 1.0
C      1  0.5415830000000  0.5252100000000  0.5376340000000 1.0
C      1  0.4692040000000  0.4153420000000  0.5609420000000 1.0
C      1  0.4942110000000  0.5352790000000  0.4107800000000 1.0
C      1  0.5868520000000  0.4376310000000  0.5424780000000 1.0
C      1  0.4875900000000  0.4398490000000  0.4903740000000 1.0
C      1  0.4991310000000  0.5177760000000  0.3847680000000 1.0
C      1  0.4122840000000  0.4584840000000  0.4682610000000 1.0
C      1  0.4011150000000  0.4314290000000  0.5081260000000 1.0
C      1  0.5058920000000  0.5175980000000  0.4332450000000 1.0
C      1  0.4860720000000  0.5721900000000  0.4292900000000 1.0
C      1  0.5053540000000  0.4316840000000  0.5874080000000 1.0
C      1  0.4227410000000  0.5801650000000  0.4726030000000 1.0
C      1  0.5078940000000  0.4746490000000  0.4636500000000 1.0
C      1  0.4786320000000  0.4443940000000  0.5957440000000 1.0
C      1  0.5242040000000  0.5980520000000  0.5156200000000 1.0
C      1  0.5663820000000  0.5798090000000  0.4829040000000 1.0
C      1  0.5469620000000  0.4074530000000  0.5376040000000 1.0
C      1  0.3959870000000  0.4562300000000  0.4931760000000 1.0
C      1  0.4569910000000  0.5177370000000  0.5959190000000 1.0
C      1  0.4567000000000  0.5462770000000  0.4942560000000 1.0
C      1  0.6159860000000  0.4969770000000  0.4831100000000 1.0
C      1  0.4137420000000  0.4159520000000  0.4863880000000 1.0
C      1  0.4746860000000  0.5054810000000  0.4962870000000 1.0
C      1  0.5748870000000  0.5233960000000  0.4332900000000 1.0
C      1  0.5282560000000  0.5445060000000  0.4596610000000 1.0
C      1  0.4903140000000  0.5529460000000  0.4534500000000 1.0
C      1  0.5237190000000  0.5828160000000  0.5420270000000 1.0
C      1  0.4136160000000  0.5096810000000  0.4487090000000 1.0
C      1  0.5292230000000  0.4776490000000  0.4203410000000 1.0
C      1  0.5215390000000  0.4556480000000  0.5489360000000 1.0
C      1  0.4257570000000  0.4858050000000  0.4665020000000 1.0
C      1  0.5328110000000  0.5076770000000  0.4262770000000 1.0
C      1  0.5097400000000  0.4786400000000  0.5892130000000 1.0
C      1  0.5062870000000  0.5900280000000  0.5659990000000 1.0
C      1  0.4966890000000  0.6028070000000  0.5060690000000 1.0
C      1  0.3891600000000  0.5064540000000  0.5191380000000 1.0
C      1  0.4422660000000  0.5685330000000  0.4288180000000 1.0
C      1  0.4530060000000  0.5771880000000  0.5069260000000 1.0
C      1  0.4339850000000  0.5268190000000  0.5802690000000 1.0
C      1  0.4780480000000  0.4330490000000  0.4433450000000 1.0
C      1  0.4941450000000  0.3930320000000  0.4649610000000 1.0
C      1  0.4255400000000  0.4964090000000  0.4954340000000 1.0
C      1  0.5901300000000  0.4677390000000  0.5455960000000 1.0
C      1  0.4265840000000  0.5261560000000  0.5305260000000 1.0
C      1  0.4184270000000  0.5024830000000  0.5666610000000 1.0
C      1  0.4391920000000  0.5536120000000  0.5663030000000 1.0
C      1  0.4518960000000  0.4190380000000  0.4519310000000 1.0
C      1  0.6122600000000  0.5114100000000  0.5300780000000 1.0
C      1  0.4832250000000  0.4732280000000  0.6025840000000 1.0
C      1  0.5847990000000  0.5487040000000  0.5215040000000 1.0
C      1  0.5247420000000  0.4278430000000  0.4567580000000 1.0
C      1  0.6103320000000  0.4804610000000  0.5281610000000 1.0
C      1  0.4576500000000  0.5750200000000  0.5692110000000 1.0
C      1  0.4329210000000  0.5569310000000  0.4549140000000 1.0
C      1  0.5382540000000  0.4488030000000  0.4976720000000 1.0
C      1  0.4817930000000  0.4560880000000  0.4646230000000 1.0
C      1  0.4935280000000  0.5975750000000  0.4751750000000 1.0
C      1  0.5919110000000  0.5389940000000  0.4957020000000 1.0
C      1  0.5808230000000  0.4334530000000  0.4320580000000 1.0
C      1  0.5101690000000  0.5903640000000  0.4280260000000 1.0
C      1  0.4803740000000  0.5312430000000  0.5839500000000 1.0
C      1  0.4815370000000  0.4579320000000  0.5150570000000 1.0
C      1  0.4382070000000  0.5283890000000  0.4097790000000 1.0
C      1  0.5422050000000  0.5258340000000  0.4032270000000 1.0
C      1  0.4434440000000  0.4282430000000  0.5060750000000 1.0
C      1  0.5728780000000  0.5492690000000  0.4458530000000 1.0
C      1  0.5544900000000  0.4985200000000  0.5812370000000 1.0
C      1  0.5609650000000  0.5629560000000  0.5693750000000 1.0
C      1  0.4763170000000  0.4954790000000  0.5448280000000 1.0
C      1  0.5491420000000  0.5411550000000  0.6060130000000 1.0
C      1  0.4250540000000  0.5533400000000  0.5414320000000 1.0
C      1  0.5658440000000  0.4451840000000  0.4765720000000 1.0
C      1  0.5391640000000  0.6133100000000  0.4610750000000 1.0
C      1  0.5147700000000  0.3976430000000  0.4908680000000 1.0
C      1  0.4338750000000  0.4757190000000  0.6038320000000 1.0
C      1  0.5233800000000  0.4538910000000  0.5796590000000 1.0
C      1  0.5621850000000  0.4261100000000  0.5539230000000 1.0
C      1  0.4963740000000  0.5688850000000  0.4775160000000 1.0
C      1  0.4096690000000  0.5369260000000  0.4592680000000 1.0
C      1  0.5590080000000  0.4678290000000  0.4575490000000 1.0
C      1  0.4784450000000  0.5869110000000  0.5539650000000 1.0
C      1  0.5484760000000  0.4080670000000  0.4595240000000 1.0
C      1  0.4785760000000  0.5318300000000  0.5070680000000 1.0
C      1  0.5242320000000  0.5293630000000  0.5922970000000 1.0
C      1  0.5968520000000  0.5052760000000  0.4335060000000 1.0
C      1  0.5036000000000  0.3931720000000  0.5184560000000 1.0
C      1  0.5009690000000  0.4141300000000  0.4458400000000 1.0
C      1  0.4949980000000  0.4903880000000  0.3874430000000 1.0
C      1  0.3929730000000  0.4800670000000  0.5090230000000 1.0
C      1  0.4301190000000  0.4485130000000  0.5650030000000 1.0
C      1  0.4963620000000  0.5015620000000  0.4551340000000 1.0
C      1  0.5134150000000  0.6060060000000  0.4535880000000 1.0
C      1  0.4523300000000  0.4558950000000  0.5141000000000 1.0
C      1  0.5080510000000  0.4704220000000  0.4018750000000 1.0
C      1  0.5231490000000  0.4841840000000  0.5437780000000 1.0
C      1  0.4581700000000  0.4883510000000  0.5974860000000 1.0
C      1  0.4744830000000  0.3965300000000  0.5164580000000 1.0
C      1  0.4082880000000  0.5694990000000  0.4966050000000 1.0
C      1  0.5517960000000  0.4915180000000  0.4783970000000 1.0
C      1  0.4701390000000  0.5069790000000  0.4663800000000 1.0
C      1  0.5779170000000  0.4611850000000  0.4350390000000 1.0
C      1  0.5544090000000  0.5900610000000  0.4591560000000 1.0
C      1  0.3957300000000  0.5104440000000  0.5473560000000 1.0
C      1  0.4572500000000  0.5484890000000  0.4127980000000 1.0
C      1  0.5900950000000  0.5289220000000  0.5418870000000 1.0
C      1  0.5457230000000  0.3962920000000  0.4874940000000 1.0
C      1  0.5327800000000  0.5734360000000  0.4194730000000 1.0
C      1  0.4987210000000  0.4151450000000  0.5631840000000 1.0
C      1  0.4784200000000  0.4697400000000  0.5588710000000 1.0
C      1  0.5205140000000  0.5562530000000  0.4882870000000 1.0
C      1  0.4293240000000  0.5271610000000  0.5008280000000 1.0
C      1  0.5274470000000  0.5205190000000  0.3783410000000 1.0
C      1  0.4620260000000  0.5408610000000  0.4637690000000 1.0
C      1  0.4678510000000  0.4148000000000  0.4945280000000 1.0
C      1  0.5698010000000  0.5233300000000  0.5906500000000 1.0
C      1  0.5529020000000  0.5761370000000  0.5459380000000 1.0
C      1  0.4621120000000  0.5895890000000  0.4355350000000 1.0
C      1  0.5268210000000  0.4768720000000  0.4901870000000 1.0
C      1  0.5443970000000  0.5167690000000  0.4555180000000 1.0
C      1  0.5174430000000  0.4054890000000  0.5406740000000 1.0
C      1  0.4051680000000  0.5402350000000  0.4894760000000 1.0
C      1  0.5913450000000  0.4488470000000  0.4926630000000 1.0
C      1  0.4656790000000  0.6004690000000  0.4639080000000 1.0
C      1  0.5183450000000  0.5345700000000  0.5567810000000 1.0
C      1  0.5650310000000  0.4770280000000  0.5311420000000 1.0
C      1  0.4645240000000  0.3985580000000  0.4696000000000 1.0
C      1  0.4262720000000  0.5749970000000  0.5210860000000 1.0
C      1  0.5430000000000  0.5735210000000  0.5013860000000 1.0
C      1  0.4922280000000  0.5175170000000  0.5603690000000 1.0
C      1  0.4162110000000  0.4339100000000  0.5426800000000 1.0
C      1  0.5286930000000  0.4994320000000  0.5966870000000 1.0
C      1  0.5154670000000  0.5747710000000  0.5903430000000 1.0
C      1  0.5922790000000  0.4806790000000  0.4216330000000 1.0
C      1  0.5258190000000  0.5188750000000  0.5135830000000 1.0
C      1  0.4271410000000  0.4320960000000  0.4656320000000 1.0
C      1  0.4563100000000  0.4020970000000  0.5393400000000 1.0
C      1  0.4450980000000  0.5947150000000  0.4836780000000 1.0
C      1  0.6115670000000  0.5037380000000  0.4566350000000 1.0
C      1  0.5729570000000  0.4230690000000  0.4572180000000 1.0
C      1  0.4194730000000  0.5099670000000  0.4197540000000 1.0
C      1  0.5005440000000  0.4437150000000  0.3995520000000 1.0
C      1  0.5708150000000  0.4902140000000  0.5029560000000 1.0
C      1  0.5225980000000  0.5512670000000  0.4018310000000 1.0
C      1  0.4206450000000  0.4735760000000  0.5790500000000 1.0
C      1  0.4871440000000  0.4881350000000  0.5163130000000 1.0
C      1  0.4555530000000  0.4359930000000  0.5762700000000 1.0
C      1  0.4279450000000  0.4086800000000  0.5349080000000 1.0
C      1  0.6146480000000  0.5206470000000  0.5009510000000 1.0
C      1  0.5491270000000  0.4972700000000  0.5501200000000 1.0
C      1  0.4546290000000  0.4813880000000  0.4566910000000 1.0
C      1  0.4457260000000  0.5004420000000  0.5391930000000 1.0
C      1  0.4514080000000  0.4796490000000  0.4266470000000 1.0
C      1  0.5096270000000  0.5562270000000  0.5374630000000 1.0
C      1  0.5981780000000  0.4779750000000  0.5000250000000 1.0
C      1  0.5585260000000  0.4114750000000  0.5107490000000 1.0
C      1  0.5832860000000  0.4291160000000  0.5140770000000 1.0
C      1  0.4916080000000  0.4485530000000  0.5432380000000 1.0
C      1  0.5161590000000  0.4295280000000  0.4871100000000 1.0
C      1  0.5449560000000  0.5684850000000  0.5936560000000 1.0
C      1  0.4772670000000  0.4410600000000  0.4148120000000 1.0
C      1  0.4557690000000  0.4579120000000  0.4090010000000 1.0
C      1  0.5566830000000  0.5563530000000  0.5247200000000 1.0
C      1  0.5793990000000  0.5396200000000  0.5678800000000 1.0
C      1  0.5305280000000  0.4613440000000  0.4457100000000 1.0
C      1  0.5162590000000  0.4916360000000  0.5156510000000 1.0
C      1  0.4761780000000  0.5891700000000  0.5236460000000 1.0
C      1  0.5072730000000  0.5410000000000  0.5110800000000 1.0
C      1  0.5467290000000  0.5648060000000  0.4445240000000 1.0
C      1  0.4994730000000  0.5432730000000  0.6024930000000 1.0
C      1  0.4363310000000  0.4801740000000  0.5188560000000 1.0
C      1  0.5469410000000  0.4502720000000  0.5287560000000 1.0
C      1  0.4266780000000  0.4836060000000  0.4133220000000 1.0
END
