TITL C-951338-5626-362 -2.63446068833241e-07 125000 -270.60528198115 0 0 45 (C1) n - 1
REM
REM in /home/bkarasulu/work/CARBON/AIRSS/Generating-Clusters/EDIP-Nigel-Params/with-SteepDescent/Only-C1/SD-CG/HFTN-CG
REM
REM
REM
REM
REM
REM ./C.cell (11c1c37f851c82e70ff6c80c92926a4b)
REM
REM compiler GCC version 9.2.1 20190827 (Red Hat 9.2.1-1)
REM options -cpp -mtune=generic -march=x86-64 -g -O0 -fpre-include=/usr/include/finclude/math-vector-fortran.h
REM seed 1968337318 1902701122 -392743584 -80147435 1902059867 50094529 2078494424 417882927 -257978998 -604439453 1097788670 -1118112082 -1850307888 1142387574 1128752819 1945384397 -818372377 1256560589 1242058349 862992469 1334952891 -1809574721 425705678 576557433 1756644349 1492145206 558357779 1911265235 -218902847 -570216769 438816071 1354185005 -1123604819
REM
CELL 1.54180   50.00000   50.00000   50.00000   90.00000   90.00000   90.00000
LATT -1
SFAC C  
C      1  0.4510180000000  0.4489750000000  0.5420010000000 1.0
C      1  0.5216970000000  0.4937320000000  0.5068460000000 1.0
C      1  0.4436930000000  0.4944800000000  0.5032950000000 1.0
C      1  0.5588600000000  0.4747750000000  0.4725380000000 1.0
C      1  0.4636960000000  0.4556060000000  0.4731460000000 1.0
C      1  0.4755210000000  0.5430620000000  0.4604190000000 1.0
C      1  0.5508290000000  0.4659910000000  0.5409490000000 1.0
C      1  0.4716140000000  0.4611900000000  0.5273090000000 1.0
C      1  0.5107220000000  0.4769530000000  0.4576070000000 1.0
C      1  0.4940840000000  0.5287740000000  0.4428630000000 1.0
C      1  0.5187490000000  0.5453450000000  0.5187950000000 1.0
C      1  0.4924050000000  0.5324220000000  0.5084060000000 1.0
C      1  0.4937630000000  0.5027000000000  0.5091960000000 1.0
C      1  0.5224860000000  0.5515410000000  0.4729940000000 1.0
C      1  0.5222900000000  0.5336980000000  0.4497980000000 1.0
C      1  0.5331000000000  0.4838680000000  0.5537890000000 1.0
C      1  0.5387440000000  0.4854880000000  0.4537880000000 1.0
C      1  0.4832670000000  0.4880200000000  0.5344550000000 1.0
C      1  0.5382080000000  0.5404830000000  0.4957480000000 1.0
C      1  0.4904300000000  0.4449820000000  0.5132640000000 1.0
C      1  0.5112950000000  0.4541560000000  0.4752140000000 1.0
C      1  0.5104690000000  0.5737840000000  0.5196630000000 1.0
C      1  0.5051430000000  0.4820270000000  0.5528110000000 1.0
C      1  0.4277490000000  0.4598430000000  0.5339580000000 1.0
C      1  0.4856630000000  0.5076460000000  0.4263910000000 1.0
C      1  0.4430740000000  0.5127690000000  0.5262880000000 1.0
C      1  0.4935150000000  0.5532080000000  0.4828710000000 1.0
C      1  0.5228480000000  0.4615790000000  0.5018240000000 1.0
C      1  0.4466840000000  0.5012250000000  0.4743730000000 1.0
C      1  0.5043150000000  0.5292550000000  0.5607730000000 1.0
C      1  0.5419070000000  0.5111150000000  0.4892660000000 1.0
C      1  0.4631840000000  0.5066990000000  0.5465520000000 1.0
C      1  0.5264070000000  0.5308620000000  0.5435110000000 1.0
C      1  0.4536820000000  0.5274950000000  0.4675510000000 1.0
C      1  0.4222420000000  0.4814770000000  0.5178750000000 1.0
C      1  0.5383490000000  0.5045560000000  0.5329970000000 1.0
C      1  0.4773830000000  0.5260340000000  0.5609280000000 1.0
C      1  0.4926100000000  0.5783900000000  0.4986240000000 1.0
C      1  0.4602510000000  0.4793470000000  0.4585660000000 1.0
C      1  0.4861370000000  0.4430020000000  0.4845430000000 1.0
C      1  0.5514760000000  0.4570780000000  0.4943600000000 1.0
C      1  0.4856140000000  0.4853170000000  0.4437090000000 1.0
C      1  0.5429500000000  0.5134310000000  0.4504470000000 1.0
C      1  0.5655540000000  0.4699340000000  0.5165140000000 1.0
C      1  0.5663260000000  0.4976840000000  0.5031860000000 1.0
END
