TITL C-950530-3293-727 -2.64495254855045e-06 125000 -1170.92671575283 0 0 186 (C1) n - 1
REM
REM in /home/bkarasulu/work/CARBON/AIRSS/Generating-Clusters/EDIP-Nigel-Params/with-SteepDescent/Only-C1/SD-CG/HFTN-CG
REM
REM
REM
REM
REM
REM ./C.cell (11c1c37f851c82e70ff6c80c92926a4b)
REM
REM compiler GCC version 9.2.1 20190827 (Red Hat 9.2.1-1)
REM options -cpp -mtune=generic -march=x86-64 -g -O0 -fpre-include=/usr/include/finclude/math-vector-fortran.h
REM seed 195273826 -298622283 -440025444 1770017449 708147094 1533279060 -1178768497 1412460327 1947764449 -1846244965 2146950642 262086869 -200127697 869018954 410657775 -91353998 757967076 -1199516148 -1958686401 -1825725545 -285912420 799012184 1700593728 -637081024 -636436738 524601402 -231370762 1342170081 250242117 675126901 -1933628682 -1156326341 -1010748173
REM
CELL 1.54180   50.00000   50.00000   50.00000   90.00000   90.00000   90.00000
LATT -1
SFAC C  
C      1  0.4846020000000  0.5997960000000  0.4487800000000 1.0
C      1  0.5283210000000  0.6023710000000  0.4854410000000 1.0
C      1  0.4609270000000  0.4893140000000  0.5070920000000 1.0
C      1  0.4880320000000  0.5285660000000  0.6125280000000 1.0
C      1  0.5903900000000  0.4823960000000  0.4983410000000 1.0
C      1  0.5013610000000  0.4489110000000  0.5906910000000 1.0
C      1  0.4488510000000  0.5281770000000  0.4775570000000 1.0
C      1  0.5501720000000  0.4551490000000  0.4839000000000 1.0
C      1  0.5419380000000  0.5467950000000  0.5451750000000 1.0
C      1  0.5456320000000  0.4649630000000  0.4045330000000 1.0
C      1  0.4487980000000  0.4498540000000  0.4625950000000 1.0
C      1  0.4624340000000  0.5982830000000  0.5434330000000 1.0
C      1  0.4360790000000  0.4775500000000  0.4646710000000 1.0
C      1  0.5083680000000  0.5925040000000  0.5297640000000 1.0
C      1  0.4570200000000  0.5195940000000  0.4402650000000 1.0
C      1  0.4942050000000  0.4457330000000  0.3925470000000 1.0
C      1  0.5885470000000  0.4996850000000  0.5262540000000 1.0
C      1  0.5144570000000  0.5521680000000  0.5466070000000 1.0
C      1  0.5384930000000  0.4373210000000  0.4145180000000 1.0
C      1  0.4726420000000  0.4923170000000  0.4063340000000 1.0
C      1  0.4896630000000  0.5565040000000  0.6023260000000 1.0
C      1  0.5775430000000  0.4888270000000  0.5666460000000 1.0
C      1  0.5459750000000  0.4179130000000  0.5234290000000 1.0
C      1  0.4280930000000  0.5654210000000  0.5583650000000 1.0
C      1  0.4374160000000  0.5607570000000  0.5155840000000 1.0
C      1  0.4131310000000  0.4677640000000  0.5553930000000 1.0
C      1  0.4651890000000  0.5106790000000  0.6164020000000 1.0
C      1  0.5036380000000  0.4947740000000  0.4883020000000 1.0
C      1  0.4051300000000  0.5510250000000  0.5526200000000 1.0
C      1  0.5347320000000  0.5891520000000  0.5146100000000 1.0
C      1  0.5279650000000  0.5779530000000  0.5724690000000 1.0
C      1  0.5402510000000  0.4727130000000  0.5981880000000 1.0
C      1  0.5293350000000  0.5805070000000  0.4287890000000 1.0
C      1  0.5073410000000  0.5056150000000  0.5535840000000 1.0
C      1  0.6072230000000  0.5080490000000  0.4564850000000 1.0
C      1  0.4673240000000  0.4838440000000  0.6047930000000 1.0
C      1  0.4458830000000  0.4618040000000  0.5074440000000 1.0
C      1  0.4321330000000  0.5311380000000  0.5059970000000 1.0
C      1  0.5443900000000  0.4560400000000  0.5323220000000 1.0
C      1  0.4129900000000  0.4410500000000  0.5148480000000 1.0
C      1  0.4627340000000  0.3767180000000  0.4731260000000 1.0
C      1  0.5461790000000  0.4827590000000  0.5181390000000 1.0
C      1  0.5940450000000  0.5712000000000  0.5189550000000 1.0
C      1  0.4932150000000  0.4715490000000  0.6059290000000 1.0
C      1  0.5912810000000  0.5375490000000  0.5498660000000 1.0
C      1  0.5998430000000  0.5449690000000  0.5053560000000 1.0
C      1  0.5074010000000  0.5436230000000  0.4753940000000 1.0
C      1  0.5739660000000  0.4447400000000  0.5444490000000 1.0
C      1  0.4348880000000  0.5398200000000  0.4318130000000 1.0
C      1  0.4205110000000  0.4300150000000  0.4897900000000 1.0
C      1  0.5599800000000  0.4813490000000  0.4927510000000 1.0
C      1  0.6086120000000  0.4663870000000  0.5288790000000 1.0
C      1  0.4785700000000  0.5911300000000  0.5672840000000 1.0
C      1  0.5967000000000  0.4385960000000  0.5219990000000 1.0
C      1  0.5776120000000  0.5407500000000  0.4846760000000 1.0
C      1  0.4678410000000  0.4574140000000  0.3916390000000 1.0
C      1  0.4973240000000  0.4128490000000  0.4328370000000 1.0
C      1  0.4351440000000  0.4307210000000  0.5461610000000 1.0
C      1  0.5127210000000  0.5563740000000  0.3957970000000 1.0
C      1  0.5850210000000  0.5478420000000  0.4344690000000 1.0
C      1  0.4343060000000  0.4046260000000  0.5286380000000 1.0
C      1  0.4571420000000  0.4969780000000  0.4783150000000 1.0
C      1  0.5580300000000  0.5194920000000  0.4018850000000 1.0
C      1  0.4898500000000  0.4853170000000  0.5127320000000 1.0
C      1  0.5281120000000  0.4015270000000  0.4673860000000 1.0
C      1  0.5931440000000  0.4671490000000  0.5554490000000 1.0
C      1  0.4022590000000  0.5243350000000  0.5069060000000 1.0
C      1  0.5961210000000  0.5223320000000  0.5733860000000 1.0
C      1  0.3977540000000  0.5368480000000  0.4645240000000 1.0
C      1  0.4509020000000  0.4462900000000  0.4125340000000 1.0
C      1  0.5301820000000  0.5135100000000  0.4111280000000 1.0
C      1  0.4982320000000  0.5301420000000  0.5418880000000 1.0
C      1  0.5542560000000  0.4145350000000  0.4640460000000 1.0
C      1  0.4092340000000  0.4823290000000  0.5307120000000 1.0
C      1  0.5844540000000  0.5663820000000  0.5461740000000 1.0
C      1  0.4808280000000  0.4201020000000  0.4894890000000 1.0
C      1  0.4160960000000  0.5574470000000  0.4721130000000 1.0
C      1  0.4032280000000  0.4671340000000  0.5073040000000 1.0
C      1  0.4461880000000  0.4584500000000  0.5373500000000 1.0
C      1  0.6035020000000  0.5254170000000  0.5269370000000 1.0
C      1  0.4984380000000  0.6016600000000  0.4750280000000 1.0
C      1  0.5434190000000  0.5685050000000  0.4043570000000 1.0
C      1  0.4689540000000  0.4124660000000  0.4350120000000 1.0
C      1  0.3975380000000  0.5085120000000  0.5311220000000 1.0
C      1  0.4887400000000  0.4640940000000  0.4462370000000 1.0
C      1  0.5093680000000  0.4476550000000  0.4607670000000 1.0
C      1  0.5835990000000  0.5605870000000  0.4626260000000 1.0
C      1  0.5304930000000  0.4451110000000  0.5919200000000 1.0
C      1  0.5546820000000  0.5739530000000  0.5442560000000 1.0
C      1  0.6029290000000  0.4575180000000  0.4555400000000 1.0
C      1  0.5070900000000  0.5940010000000  0.5590420000000 1.0
C      1  0.4583680000000  0.3872050000000  0.5292280000000 1.0
C      1  0.4619030000000  0.3954500000000  0.4951820000000 1.0
C      1  0.4850020000000  0.4928230000000  0.4644040000000 1.0
C      1  0.4967130000000  0.4361270000000  0.5385420000000 1.0
C      1  0.4820650000000  0.5799500000000  0.4276400000000 1.0
C      1  0.5538280000000  0.4372300000000  0.4413970000000 1.0
C      1  0.4686160000000  0.5593840000000  0.5119960000000 1.0
C      1  0.6056930000000  0.4832180000000  0.4709460000000 1.0
C      1  0.4316390000000  0.4044910000000  0.4982550000000 1.0
C      1  0.5729700000000  0.4728120000000  0.4144740000000 1.0
C      1  0.5188950000000  0.4567220000000  0.5511400000000 1.0
C      1  0.4816470000000  0.4297770000000  0.5824330000000 1.0
C      1  0.5190630000000  0.4027480000000  0.5634540000000 1.0
C      1  0.5552100000000  0.5060670000000  0.5323530000000 1.0
C      1  0.5224170000000  0.5179670000000  0.4870130000000 1.0
C      1  0.4232660000000  0.4551790000000  0.4177140000000 1.0
C      1  0.4972480000000  0.4747460000000  0.4181910000000 1.0
C      1  0.4076500000000  0.4940080000000  0.4439200000000 1.0
C      1  0.5184790000000  0.5625270000000  0.5969840000000 1.0
C      1  0.4594210000000  0.3918330000000  0.4510000000000 1.0
C      1  0.4656870000000  0.4752360000000  0.5559610000000 1.0
C      1  0.4524330000000  0.5135310000000  0.5254180000000 1.0
C      1  0.5599010000000  0.5462380000000  0.4166130000000 1.0
C      1  0.4454930000000  0.4672520000000  0.5933580000000 1.0
C      1  0.3857960000000  0.5209420000000  0.4842230000000 1.0
C      1  0.5219290000000  0.4043760000000  0.5135190000000 1.0
C      1  0.5427990000000  0.5750220000000  0.4536110000000 1.0
C      1  0.4645170000000  0.4425320000000  0.4388410000000 1.0
C      1  0.4752060000000  0.3941390000000  0.5498550000000 1.0
C      1  0.5050670000000  0.5631270000000  0.4258240000000 1.0
C      1  0.4057800000000  0.5230310000000  0.5546020000000 1.0
C      1  0.4118170000000  0.4412270000000  0.4396830000000 1.0
C      1  0.4724390000000  0.5509520000000  0.4823270000000 1.0
C      1  0.5722390000000  0.5118060000000  0.4731780000000 1.0
C      1  0.4275410000000  0.5100150000000  0.5709740000000 1.0
C      1  0.4218120000000  0.4813440000000  0.5798800000000 1.0
C      1  0.5300330000000  0.5638040000000  0.4794480000000 1.0
C      1  0.5489650000000  0.4346000000000  0.5719370000000 1.0
C      1  0.4106570000000  0.5765890000000  0.4921750000000 1.0
C      1  0.4799370000000  0.5896020000000  0.5197250000000 1.0
C      1  0.4774560000000  0.6058040000000  0.4948220000000 1.0
C      1  0.5494060000000  0.5283940000000  0.5788130000000 1.0
C      1  0.4303240000000  0.5949540000000  0.4994010000000 1.0
C      1  0.5473870000000  0.4785750000000  0.5688930000000 1.0
C      1  0.5421470000000  0.5094270000000  0.4631090000000 1.0
C      1  0.4789760000000  0.5225020000000  0.4015790000000 1.0
C      1  0.5354320000000  0.4839470000000  0.4481430000000 1.0
C      1  0.4605770000000  0.5739120000000  0.4645960000000 1.0
C      1  0.5077680000000  0.5276220000000  0.3950390000000 1.0
C      1  0.5778380000000  0.5896600000000  0.4761510000000 1.0
C      1  0.5339950000000  0.5275780000000  0.4390240000000 1.0
C      1  0.4700380000000  0.5683300000000  0.5842340000000 1.0
C      1  0.4055020000000  0.4721730000000  0.4760980000000 1.0
C      1  0.4356980000000  0.5891080000000  0.5457230000000 1.0
C      1  0.5768900000000  0.5024450000000  0.4162280000000 1.0
C      1  0.5268380000000  0.4843760000000  0.4192940000000 1.0
C      1  0.5325720000000  0.5370040000000  0.6013730000000 1.0
C      1  0.4958080000000  0.4802160000000  0.5431210000000 1.0
C      1  0.5068990000000  0.5384090000000  0.4457460000000 1.0
C      1  0.5091860000000  0.4327180000000  0.4139860000000 1.0
C      1  0.4359010000000  0.5623320000000  0.4521570000000 1.0
C      1  0.5746200000000  0.5187960000000  0.5901730000000 1.0
C      1  0.5035780000000  0.4185450000000  0.4620520000000 1.0
C      1  0.5603110000000  0.4279250000000  0.4916810000000 1.0
C      1  0.4051990000000  0.4431380000000  0.4669710000000 1.0
C      1  0.5367780000000  0.5054910000000  0.5606610000000 1.0
C      1  0.4089060000000  0.5236170000000  0.4414980000000 1.0
C      1  0.4739340000000  0.5345210000000  0.5278610000000 1.0
C      1  0.4404830000000  0.5232850000000  0.6179120000000 1.0
C      1  0.4251920000000  0.4840420000000  0.4229010000000 1.0
C      1  0.5436670000000  0.4128770000000  0.5542740000000 1.0
C      1  0.4929250000000  0.4143430000000  0.5591050000000 1.0
C      1  0.4528180000000  0.5975890000000  0.4820790000000 1.0
C      1  0.5523660000000  0.6000320000000  0.4650280000000 1.0
C      1  0.5368900000000  0.4565430000000  0.4585120000000 1.0
C      1  0.5013910000000  0.4244220000000  0.5116730000000 1.0
C      1  0.5795460000000  0.4541130000000  0.4366730000000 1.0
C      1  0.5260690000000  0.3880930000000  0.4914280000000 1.0
C      1  0.4520360000000  0.4936820000000  0.4271590000000 1.0
C      1  0.4554910000000  0.4433970000000  0.5769560000000 1.0
C      1  0.5416840000000  0.5313440000000  0.5181640000000 1.0
C      1  0.5166600000000  0.4878560000000  0.6076770000000 1.0
C      1  0.6054160000000  0.4362710000000  0.4736390000000 1.0
C      1  0.4346840000000  0.5309600000000  0.5916980000000 1.0
C      1  0.4630660000000  0.5721180000000  0.4086100000000 1.0
C      1  0.5139450000000  0.5168100000000  0.6106310000000 1.0
C      1  0.4566780000000  0.5447090000000  0.4054570000000 1.0
C      1  0.5719100000000  0.5848140000000  0.5052020000000 1.0
C      1  0.5521840000000  0.5522370000000  0.4979870000000 1.0
C      1  0.5924020000000  0.5189550000000  0.4348720000000 1.0
C      1  0.4513110000000  0.5028650000000  0.5537820000000 1.0
C      1  0.4623930000000  0.4445580000000  0.4877280000000 1.0
C      1  0.4868550000000  0.5162500000000  0.4445880000000 1.0
C      1  0.5894230000000  0.4297900000000  0.4954820000000 1.0
C      1  0.4431410000000  0.5571630000000  0.5812070000000 1.0
END
