TITL C-950525-1983-13 -4.55609778132467e-06 125000 -823.589696897443 0 0 132 (C1) n - 1
REM
REM in /home/bkarasulu/work/CARBON/AIRSS/Generating-Clusters/EDIP-Nigel-Params/with-SteepDescent/Only-C1/SD-CG/HFTN-CG
REM
REM
REM
REM
REM
REM ./C.cell (11c1c37f851c82e70ff6c80c92926a4b)
REM
REM compiler GCC version 9.2.1 20190827 (Red Hat 9.2.1-1)
REM options -cpp -mtune=generic -march=x86-64 -g -O0 -fpre-include=/usr/include/finclude/math-vector-fortran.h
REM seed -2048798747 -820591706 -623204074 1110023082 -1232260652 -1245419408 -843372943 100234426 1575248764 -555420588 -1683101627 1031028139 1576580246 1789323620 2010415588 1475026667 667834661 1381142818 -1972923481 1694563432 1844209379 -1855250867 -117561789 -1110798930 -544343404 -1514200833 1673537650 -1569948727 -473983119 -58774425 1184835562 -622834970 -499231539
REM
CELL 1.54180   50.00000   50.00000   50.00000   90.00000   90.00000   90.00000
LATT -1
SFAC C  
C      1  0.4806630000000  0.5522670000000  0.4379420000000 1.0
C      1  0.5479050000000  0.4789700000000  0.5153690000000 1.0
C      1  0.5026050000000  0.4864430000000  0.4521280000000 1.0
C      1  0.4842390000000  0.4651760000000  0.4933730000000 1.0
C      1  0.5848250000000  0.5219070000000  0.4835040000000 1.0
C      1  0.4927990000000  0.4931060000000  0.4951070000000 1.0
C      1  0.4562120000000  0.4939700000000  0.4666810000000 1.0
C      1  0.4219750000000  0.5008190000000  0.5671950000000 1.0
C      1  0.4017560000000  0.5057830000000  0.4764010000000 1.0
C      1  0.4625110000000  0.4811730000000  0.5424460000000 1.0
C      1  0.5017670000000  0.5446340000000  0.5768650000000 1.0
C      1  0.4267540000000  0.4833730000000  0.5428600000000 1.0
C      1  0.4388290000000  0.4421440000000  0.4949740000000 1.0
C      1  0.4339890000000  0.5720640000000  0.4671200000000 1.0
C      1  0.4872250000000  0.5809110000000  0.4895040000000 1.0
C      1  0.5037280000000  0.5925480000000  0.4470550000000 1.0
C      1  0.4792810000000  0.5741430000000  0.5376980000000 1.0
C      1  0.5400070000000  0.4590840000000  0.4450790000000 1.0
C      1  0.4987920000000  0.4344930000000  0.4461690000000 1.0
C      1  0.5368780000000  0.4209090000000  0.5277220000000 1.0
C      1  0.5516780000000  0.4861990000000  0.4846080000000 1.0
C      1  0.5327070000000  0.5432270000000  0.5710560000000 1.0
C      1  0.4985450000000  0.5203860000000  0.5319750000000 1.0
C      1  0.5873990000000  0.4853210000000  0.5507240000000 1.0
C      1  0.4158810000000  0.5520290000000  0.4560890000000 1.0
C      1  0.5149940000000  0.4240620000000  0.5460400000000 1.0
C      1  0.5456260000000  0.5622280000000  0.5497220000000 1.0
C      1  0.4926460000000  0.5187770000000  0.5893870000000 1.0
C      1  0.5895700000000  0.5437500000000  0.4644030000000 1.0
C      1  0.5244480000000  0.5350050000000  0.4396870000000 1.0
C      1  0.5078000000000  0.4726430000000  0.4102880000000 1.0
C      1  0.4889590000000  0.4824220000000  0.5645430000000 1.0
C      1  0.4452280000000  0.4902130000000  0.5827040000000 1.0
C      1  0.4152330000000  0.5486550000000  0.5048270000000 1.0
C      1  0.4639370000000  0.5695430000000  0.5082720000000 1.0
C      1  0.4353830000000  0.4338790000000  0.5411230000000 1.0
C      1  0.4898470000000  0.4102530000000  0.5436940000000 1.0
C      1  0.4249290000000  0.5423590000000  0.4315540000000 1.0
C      1  0.4165380000000  0.4893380000000  0.4979670000000 1.0
C      1  0.5876040000000  0.5654090000000  0.5091790000000 1.0
C      1  0.4339170000000  0.5721020000000  0.4977640000000 1.0
C      1  0.4426730000000  0.5218870000000  0.4256120000000 1.0
C      1  0.5223470000000  0.4549290000000  0.5149200000000 1.0
C      1  0.5001350000000  0.4383220000000  0.5879050000000 1.0
C      1  0.5355510000000  0.4734520000000  0.5573600000000 1.0
C      1  0.4398360000000  0.4745760000000  0.4230040000000 1.0
C      1  0.5810710000000  0.4401250000000  0.4662090000000 1.0
C      1  0.5385260000000  0.5515530000000  0.4915140000000 1.0
C      1  0.5503760000000  0.5137150000000  0.5311820000000 1.0
C      1  0.4865300000000  0.5059100000000  0.4673330000000 1.0
C      1  0.5308080000000  0.5747710000000  0.5282840000000 1.0
C      1  0.4281480000000  0.5298830000000  0.5566870000000 1.0
C      1  0.4600370000000  0.5728000000000  0.4520160000000 1.0
C      1  0.4464600000000  0.4425140000000  0.4525990000000 1.0
C      1  0.4841760000000  0.4615210000000  0.5874180000000 1.0
C      1  0.4120020000000  0.5019660000000  0.5238630000000 1.0
C      1  0.5225490000000  0.4305910000000  0.5727580000000 1.0
C      1  0.5282390000000  0.5865980000000  0.4627500000000 1.0
C      1  0.5441370000000  0.4499960000000  0.5726120000000 1.0
C      1  0.5539900000000  0.5168600000000  0.4821740000000 1.0
C      1  0.5265580000000  0.4334080000000  0.4519470000000 1.0
C      1  0.5887840000000  0.4940440000000  0.5227490000000 1.0
C      1  0.4009560000000  0.4663930000000  0.4485190000000 1.0
C      1  0.4098600000000  0.5347980000000  0.4788340000000 1.0
C      1  0.5051560000000  0.5888770000000  0.5321340000000 1.0
C      1  0.5823160000000  0.5050370000000  0.5701500000000 1.0
C      1  0.4342540000000  0.4181070000000  0.4772900000000 1.0
C      1  0.5958300000000  0.5207830000000  0.5121050000000 1.0
C      1  0.4789910000000  0.5534420000000  0.5594030000000 1.0
C      1  0.4781900000000  0.4116530000000  0.5168010000000 1.0
C      1  0.5106370000000  0.4965690000000  0.5928990000000 1.0
C      1  0.4615280000000  0.4640970000000  0.4713530000000 1.0
C      1  0.5189310000000  0.5175180000000  0.4160960000000 1.0
C      1  0.5471530000000  0.5897270000000  0.5091090000000 1.0
C      1  0.5650120000000  0.5721380000000  0.4943540000000 1.0
C      1  0.5664250000000  0.5406710000000  0.4476120000000 1.0
C      1  0.4562800000000  0.4351320000000  0.5188380000000 1.0
C      1  0.4958560000000  0.5361260000000  0.5055420000000 1.0
C      1  0.5263750000000  0.4748760000000  0.4672720000000 1.0
C      1  0.4159450000000  0.4558180000000  0.5349810000000 1.0
C      1  0.4365530000000  0.4974020000000  0.4413480000000 1.0
C      1  0.4842120000000  0.4213610000000  0.4688460000000 1.0
C      1  0.5875850000000  0.4771900000000  0.4968140000000 1.0
C      1  0.4788050000000  0.5919320000000  0.4634000000000 1.0
C      1  0.4991830000000  0.5373180000000  0.4584090000000 1.0
C      1  0.4718350000000  0.4601640000000  0.5210340000000 1.0
C      1  0.4660060000000  0.4665930000000  0.4220590000000 1.0
C      1  0.4522010000000  0.5199280000000  0.5140050000000 1.0
C      1  0.5927070000000  0.4477750000000  0.4919450000000 1.0
C      1  0.4075870000000  0.4937360000000  0.4501110000000 1.0
C      1  0.5027220000000  0.6012460000000  0.5047870000000 1.0
C      1  0.5094250000000  0.4729420000000  0.5410700000000 1.0
C      1  0.4919760000000  0.4637040000000  0.4335680000000 1.0
C      1  0.5279540000000  0.5174970000000  0.5535490000000 1.0
C      1  0.5615520000000  0.5112430000000  0.4394480000000 1.0
C      1  0.4917240000000  0.5068640000000  0.4144090000000 1.0
C      1  0.5694430000000  0.5296280000000  0.5712530000000 1.0
C      1  0.4552670000000  0.4605310000000  0.5806870000000 1.0
C      1  0.4231500000000  0.4543860000000  0.4360570000000 1.0
C      1  0.5754110000000  0.4319120000000  0.5090490000000 1.0
C      1  0.4446680000000  0.4981210000000  0.4940820000000 1.0
C      1  0.4488950000000  0.4337470000000  0.5675480000000 1.0
C      1  0.5270550000000  0.5605630000000  0.4221970000000 1.0
C      1  0.4711540000000  0.5282140000000  0.4208870000000 1.0
C      1  0.5002450000000  0.5725750000000  0.4251000000000 1.0
C      1  0.5623480000000  0.4506640000000  0.5289650000000 1.0
C      1  0.5468650000000  0.5670800000000  0.4448620000000 1.0
C      1  0.5323410000000  0.4967680000000  0.5741250000000 1.0
C      1  0.4150060000000  0.4584430000000  0.5045250000000 1.0
C      1  0.5788410000000  0.4891920000000  0.4499410000000 1.0
C      1  0.5287310000000  0.6012330000000  0.4895200000000 1.0
C      1  0.5123440000000  0.4520030000000  0.4841180000000 1.0
C      1  0.4709850000000  0.4160990000000  0.5640930000000 1.0
C      1  0.4642640000000  0.5136540000000  0.5833590000000 1.0
C      1  0.5940390000000  0.4955540000000  0.4735920000000 1.0
C      1  0.4679220000000  0.5411140000000  0.5017150000000 1.0
C      1  0.4583160000000  0.5305410000000  0.5603390000000 1.0
C      1  0.5387420000000  0.5246350000000  0.5062990000000 1.0
C      1  0.4688370000000  0.5120750000000  0.5378680000000 1.0
C      1  0.4984640000000  0.4123960000000  0.4939050000000 1.0
C      1  0.5079550000000  0.4961070000000  0.5203390000000 1.0
C      1  0.5354010000000  0.4723400000000  0.4178940000000 1.0
C      1  0.4584450000000  0.4081410000000  0.4647450000000 1.0
C      1  0.5070380000000  0.5540530000000  0.4841210000000 1.0
C      1  0.5667080000000  0.5389500000000  0.5432580000000 1.0
C      1  0.5912620000000  0.5448590000000  0.5273500000000 1.0
C      1  0.5295170000000  0.4144430000000  0.4995690000000 1.0
C      1  0.5683460000000  0.4615710000000  0.4517290000000 1.0
C      1  0.5567950000000  0.4208860000000  0.4884310000000 1.0
C      1  0.5429680000000  0.5009490000000  0.4186730000000 1.0
C      1  0.4252040000000  0.5284470000000  0.5259550000000 1.0
C      1  0.5767630000000  0.4583300000000  0.5540570000000 1.0
END
