TITL C-950521-2237-224 -5.79910108142473e-05 125000 -880.281478687802 0 0 141 (C1) n - 1
REM
REM in /home/bkarasulu/work/CARBON/AIRSS/Generating-Clusters/EDIP-Nigel-Params/with-SteepDescent/Only-C1/SD-CG/HFTN-CG
REM
REM
REM
REM
REM
REM ./C.cell (11c1c37f851c82e70ff6c80c92926a4b)
REM
REM compiler GCC version 9.2.1 20190827 (Red Hat 9.2.1-1)
REM options -cpp -mtune=generic -march=x86-64 -g -O0 -fpre-include=/usr/include/finclude/math-vector-fortran.h
REM seed -249165378 -1332942486 -1120201036 -1551173365 1456020442 -1504125537 -1691956289 -345288971 -1035979058 -240410311 -1771221423 1125307413 2027329611 -168110077 -616972331 1096971772 727408662 1894243157 -535322751 1851719562 1408038716 -1864294744 -1585462285 -385812790 174363762 -1410773916 2133440225 -1696715719 -960441016 960184208 -1782469909 61009299 -1422563167
REM
CELL 1.54180   50.00000   50.00000   50.00000   90.00000   90.00000   90.00000
LATT -1
SFAC C  
C      1  0.4849330000000  0.5097210000000  0.4470200000000 1.0
C      1  0.5061180000000  0.4486960000000  0.5819730000000 1.0
C      1  0.5145150000000  0.4921450000000  0.4922090000000 1.0
C      1  0.5593690000000  0.5219100000000  0.4285320000000 1.0
C      1  0.5160550000000  0.4691350000000  0.4328610000000 1.0
C      1  0.4245910000000  0.5152030000000  0.4567010000000 1.0
C      1  0.5320760000000  0.5137880000000  0.4166920000000 1.0
C      1  0.4421600000000  0.4157490000000  0.5550380000000 1.0
C      1  0.4933670000000  0.5771240000000  0.4312260000000 1.0
C      1  0.4728700000000  0.5356650000000  0.4615770000000 1.0
C      1  0.5396350000000  0.4279770000000  0.4406220000000 1.0
C      1  0.5408410000000  0.4348330000000  0.5532550000000 1.0
C      1  0.5910800000000  0.5486990000000  0.5196620000000 1.0
C      1  0.5107980000000  0.5847980000000  0.5441620000000 1.0
C      1  0.4471990000000  0.4882570000000  0.4181300000000 1.0
C      1  0.5784920000000  0.5139460000000  0.5609680000000 1.0
C      1  0.5205050000000  0.4089510000000  0.4322700000000 1.0
C      1  0.5489800000000  0.4672310000000  0.5244130000000 1.0
C      1  0.4766100000000  0.4970980000000  0.4186560000000 1.0
C      1  0.5497100000000  0.5234540000000  0.5654170000000 1.0
C      1  0.5494080000000  0.4786730000000  0.5809190000000 1.0
C      1  0.4562050000000  0.5824470000000  0.4933230000000 1.0
C      1  0.5019530000000  0.4618270000000  0.4590990000000 1.0
C      1  0.5369740000000  0.5150790000000  0.5377830000000 1.0
C      1  0.4960060000000  0.4239470000000  0.5665790000000 1.0
C      1  0.4333250000000  0.5249270000000  0.5606870000000 1.0
C      1  0.5669720000000  0.4360930000000  0.5394540000000 1.0
C      1  0.4889340000000  0.5005130000000  0.5555840000000 1.0
C      1  0.5188140000000  0.4166570000000  0.5487610000000 1.0
C      1  0.5061880000000  0.5393590000000  0.6023440000000 1.0
C      1  0.4790500000000  0.5962650000000  0.5079300000000 1.0
C      1  0.5298820000000  0.4942690000000  0.4395020000000 1.0
C      1  0.5949890000000  0.4959010000000  0.4609680000000 1.0
C      1  0.4576170000000  0.4418540000000  0.5595910000000 1.0
C      1  0.4632410000000  0.4146510000000  0.5006880000000 1.0
C      1  0.3994730000000  0.4619140000000  0.5006710000000 1.0
C      1  0.4547160000000  0.5635890000000  0.3981780000000 1.0
C      1  0.5281910000000  0.5621290000000  0.5407370000000 1.0
C      1  0.5428340000000  0.5444840000000  0.4855820000000 1.0
C      1  0.5577480000000  0.5478410000000  0.4446050000000 1.0
C      1  0.4067980000000  0.4824550000000  0.5493770000000 1.0
C      1  0.4875230000000  0.4657650000000  0.5248990000000 1.0
C      1  0.5749310000000  0.4843290000000  0.5656470000000 1.0
C      1  0.5551500000000  0.4723170000000  0.4950760000000 1.0
C      1  0.5205980000000  0.5636040000000  0.4810750000000 1.0
C      1  0.4135760000000  0.4778320000000  0.5224650000000 1.0
C      1  0.5273570000000  0.5836170000000  0.4586610000000 1.0
C      1  0.5868210000000  0.4599760000000  0.4952990000000 1.0
C      1  0.4772420000000  0.4362420000000  0.4860820000000 1.0
C      1  0.5284590000000  0.4867250000000  0.5336910000000 1.0
C      1  0.4851480000000  0.4349840000000  0.4553540000000 1.0
C      1  0.3949860000000  0.4779340000000  0.4754800000000 1.0
C      1  0.5103170000000  0.3981720000000  0.4753930000000 1.0
C      1  0.5010130000000  0.4095530000000  0.4518850000000 1.0
C      1  0.5460500000000  0.5203100000000  0.4700760000000 1.0
C      1  0.4854540000000  0.5211410000000  0.4029900000000 1.0
C      1  0.5977410000000  0.4669060000000  0.4684000000000 1.0
C      1  0.4810770000000  0.4855840000000  0.4644190000000 1.0
C      1  0.4461530000000  0.4841300000000  0.5791200000000 1.0
C      1  0.5090720000000  0.5317200000000  0.4168710000000 1.0
C      1  0.5928470000000  0.4316820000000  0.4996590000000 1.0
C      1  0.4733100000000  0.5526180000000  0.5699050000000 1.0
C      1  0.4043670000000  0.5064070000000  0.4763850000000 1.0
C      1  0.5146360000000  0.5604570000000  0.4176290000000 1.0
C      1  0.5448310000000  0.5539660000000  0.5666400000000 1.0
C      1  0.5332740000000  0.4543120000000  0.5734190000000 1.0
C      1  0.4437940000000  0.5614330000000  0.5304210000000 1.0
C      1  0.4531800000000  0.4875930000000  0.4992560000000 1.0
C      1  0.4705560000000  0.5020720000000  0.5803270000000 1.0
C      1  0.4287830000000  0.5668820000000  0.4582910000000 1.0
C      1  0.4992530000000  0.4475340000000  0.5033010000000 1.0
C      1  0.5694500000000  0.5676570000000  0.5257720000000 1.0
C      1  0.5098670000000  0.4090440000000  0.5219790000000 1.0
C      1  0.5775060000000  0.4679090000000  0.5401980000000 1.0
C      1  0.4280330000000  0.5037090000000  0.4314720000000 1.0
C      1  0.4571990000000  0.5296270000000  0.5768850000000 1.0
C      1  0.5640470000000  0.5714450000000  0.5538060000000 1.0
C      1  0.5612460000000  0.5041830000000  0.4916970000000 1.0
C      1  0.4403670000000  0.4647700000000  0.5140570000000 1.0
C      1  0.5711830000000  0.4965410000000  0.4424770000000 1.0
C      1  0.5377900000000  0.5684280000000  0.4349410000000 1.0
C      1  0.5703440000000  0.4223900000000  0.5125340000000 1.0
C      1  0.5782180000000  0.4500850000000  0.4525360000000 1.0
C      1  0.4663530000000  0.5396100000000  0.3950690000000 1.0
C      1  0.5261700000000  0.5843260000000  0.5030640000000 1.0
C      1  0.5051950000000  0.5287720000000  0.5019520000000 1.0
C      1  0.5677960000000  0.5600630000000  0.4800910000000 1.0
C      1  0.5585320000000  0.5185660000000  0.5180650000000 1.0
C      1  0.4240520000000  0.4974120000000  0.5656730000000 1.0
C      1  0.5855270000000  0.5208000000000  0.5312640000000 1.0
C      1  0.4483640000000  0.5844920000000  0.4445730000000 1.0
C      1  0.5916850000000  0.5436230000000  0.4899050000000 1.0
C      1  0.4892920000000  0.4938560000000  0.6033580000000 1.0
C      1  0.5148360000000  0.5346700000000  0.5313300000000 1.0
C      1  0.4266390000000  0.4140440000000  0.5319260000000 1.0
C      1  0.4473140000000  0.4597430000000  0.4278510000000 1.0
C      1  0.4229070000000  0.5476200000000  0.5446960000000 1.0
C      1  0.5399800000000  0.4530410000000  0.4258710000000 1.0
C      1  0.4659520000000  0.5685780000000  0.5467140000000 1.0
C      1  0.5505370000000  0.4197530000000  0.4915240000000 1.0
C      1  0.4521170000000  0.4829710000000  0.4698080000000 1.0
C      1  0.4940980000000  0.5581660000000  0.5874550000000 1.0
C      1  0.5190870000000  0.5081420000000  0.4655550000000 1.0
C      1  0.4822970000000  0.5132350000000  0.5297970000000 1.0
C      1  0.4108450000000  0.5171760000000  0.5035600000000 1.0
C      1  0.4389810000000  0.5117900000000  0.5092240000000 1.0
C      1  0.4807100000000  0.4035730000000  0.5233490000000 1.0
C      1  0.5366000000000  0.5051060000000  0.5859920000000 1.0
C      1  0.5038760000000  0.6033320000000  0.4912120000000 1.0
C      1  0.5129800000000  0.5122100000000  0.6029650000000 1.0
C      1  0.4605610000000  0.4582450000000  0.5349150000000 1.0
C      1  0.4412500000000  0.5390040000000  0.4650830000000 1.0
C      1  0.4006580000000  0.5455200000000  0.5266580000000 1.0
C      1  0.4886170000000  0.5622590000000  0.4595890000000 1.0
C      1  0.5988240000000  0.4739380000000  0.5191860000000 1.0
C      1  0.5648590000000  0.4679120000000  0.4336330000000 1.0
C      1  0.4690570000000  0.5866350000000  0.4662040000000 1.0
C      1  0.4745310000000  0.4487220000000  0.4254120000000 1.0
C      1  0.4953200000000  0.4663080000000  0.6010710000000 1.0
C      1  0.5047140000000  0.4764900000000  0.5476570000000 1.0
C      1  0.5578760000000  0.5825550000000  0.5022430000000 1.0
C      1  0.4077040000000  0.5554280000000  0.5004760000000 1.0
C      1  0.5592730000000  0.4275940000000  0.4631400000000 1.0
C      1  0.4772530000000  0.5334950000000  0.4910950000000 1.0
C      1  0.4089550000000  0.4648330000000  0.4548140000000 1.0
C      1  0.4213660000000  0.4422380000000  0.4886820000000 1.0
C      1  0.4373730000000  0.4594810000000  0.4568710000000 1.0
C      1  0.4644980000000  0.5749780000000  0.4217540000000 1.0
C      1  0.4350730000000  0.4215530000000  0.5064370000000 1.0
C      1  0.5188650000000  0.4623310000000  0.4853010000000 1.0
C      1  0.4269950000000  0.5740850000000  0.4876090000000 1.0
C      1  0.5035910000000  0.6031840000000  0.4585810000000 1.0
C      1  0.4923030000000  0.4708810000000  0.4144870000000 1.0
C      1  0.5910510000000  0.5116280000000  0.4867850000000 1.0
C      1  0.6033110000000  0.5020370000000  0.5140090000000 1.0
C      1  0.5259700000000  0.4045690000000  0.4974270000000 1.0
C      1  0.4722610000000  0.4064790000000  0.5526260000000 1.0
C      1  0.4846780000000  0.5865510000000  0.5349270000000 1.0
C      1  0.4484160000000  0.5380220000000  0.5008210000000 1.0
C      1  0.4470470000000  0.4565010000000  0.5819170000000 1.0
C      1  0.4830540000000  0.4910400000000  0.5085260000000 1.0
END
