TITL C-951340-9809-387 -3.00090087956603e-07 125000 -785.28082823998 0 0 126 (C1) n - 1
REM
REM in /home/bkarasulu/work/CARBON/AIRSS/Generating-Clusters/EDIP-Nigel-Params/with-SteepDescent/Only-C1/SD-CG/HFTN-CG
REM
REM
REM
REM
REM
REM ./C.cell (11c1c37f851c82e70ff6c80c92926a4b)
REM
REM compiler GCC version 9.2.1 20190827 (Red Hat 9.2.1-1)
REM options -cpp -mtune=generic -march=x86-64 -g -O0 -fpre-include=/usr/include/finclude/math-vector-fortran.h
REM seed -1105637440 1536887160 -574132311 888117850 1123655780 -684253996 -1195698366 813984681 1050880532 -1113596378 1008150380 1700411293 1386747455 -415562118 -692741466 -475484977 -586101171 -1839969460 -1905363530 -1465483831 1034494748 -1739364124 326372187 1060709329 1682274976 -1264985966 -1148195840 -1671969416 1703671981 -13338227 347482480 136125628 -59209911
REM
CELL 1.54180   50.00000   50.00000   50.00000   90.00000   90.00000   90.00000
LATT -1
SFAC C  
C      1  0.4333540000000  0.4778400000000  0.4898310000000 1.0
C      1  0.5266470000000  0.4698170000000  0.4689300000000 1.0
C      1  0.4677250000000  0.4111490000000  0.4824400000000 1.0
C      1  0.4380220000000  0.5621350000000  0.5356400000000 1.0
C      1  0.5846820000000  0.5169880000000  0.4933790000000 1.0
C      1  0.6006060000000  0.4951350000000  0.5287360000000 1.0
C      1  0.4535350000000  0.4970330000000  0.4267020000000 1.0
C      1  0.5658980000000  0.4943640000000  0.4833610000000 1.0
C      1  0.4739080000000  0.5018580000000  0.6008880000000 1.0
C      1  0.5264070000000  0.4573230000000  0.5731790000000 1.0
C      1  0.5452830000000  0.5450460000000  0.5093370000000 1.0
C      1  0.4546110000000  0.4647180000000  0.5376160000000 1.0
C      1  0.4755810000000  0.5478780000000  0.4963740000000 1.0
C      1  0.5725690000000  0.5325430000000  0.5169590000000 1.0
C      1  0.4652850000000  0.5542870000000  0.5430350000000 1.0
C      1  0.5243860000000  0.5248130000000  0.4684840000000 1.0
C      1  0.4505730000000  0.4311540000000  0.4982430000000 1.0
C      1  0.4173590000000  0.5492580000000  0.5520410000000 1.0
C      1  0.5095570000000  0.5764090000000  0.4480610000000 1.0
C      1  0.4831020000000  0.5610200000000  0.5211060000000 1.0
C      1  0.4344240000000  0.4803540000000  0.4417750000000 1.0
C      1  0.5296290000000  0.5229790000000  0.5671710000000 1.0
C      1  0.4097940000000  0.4790290000000  0.5078150000000 1.0
C      1  0.5059550000000  0.4437770000000  0.4022540000000 1.0
C      1  0.5104330000000  0.4352220000000  0.5606990000000 1.0
C      1  0.5174440000000  0.5083120000000  0.4937250000000 1.0
C      1  0.5544300000000  0.4441810000000  0.5231620000000 1.0
C      1  0.4998740000000  0.5149890000000  0.6064140000000 1.0
C      1  0.5496130000000  0.4566720000000  0.4534630000000 1.0
C      1  0.4165560000000  0.4677460000000  0.5341510000000 1.0
C      1  0.5376770000000  0.4688230000000  0.5183510000000 1.0
C      1  0.4986170000000  0.5427980000000  0.6059070000000 1.0
C      1  0.5123520000000  0.4220610000000  0.4666610000000 1.0
C      1  0.4351150000000  0.4494560000000  0.4798120000000 1.0
C      1  0.4934280000000  0.4618070000000  0.5037370000000 1.0
C      1  0.4495070000000  0.5947670000000  0.4971400000000 1.0
C      1  0.4373460000000  0.5683160000000  0.5061080000000 1.0
C      1  0.5093980000000  0.4486610000000  0.4810980000000 1.0
C      1  0.4278220000000  0.5245030000000  0.5662010000000 1.0
C      1  0.5557190000000  0.4184920000000  0.4852550000000 1.0
C      1  0.5004890000000  0.4959850000000  0.4449020000000 1.0
C      1  0.4801050000000  0.5071390000000  0.5451520000000 1.0
C      1  0.6095820000000  0.5050330000000  0.5035090000000 1.0
C      1  0.5436510000000  0.4267130000000  0.4586290000000 1.0
C      1  0.4811680000000  0.5819000000000  0.4531790000000 1.0
C      1  0.4907420000000  0.4109090000000  0.5265140000000 1.0
C      1  0.4156120000000  0.5270790000000  0.5200350000000 1.0
C      1  0.4583470000000  0.4931510000000  0.5025050000000 1.0
C      1  0.5085220000000  0.4805930000000  0.5761860000000 1.0
C      1  0.4538680000000  0.5262920000000  0.5807950000000 1.0
C      1  0.4746510000000  0.5961770000000  0.4783530000000 1.0
C      1  0.4274050000000  0.4941810000000  0.4665330000000 1.0
C      1  0.5905470000000  0.5351120000000  0.4719380000000 1.0
C      1  0.5598000000000  0.4933410000000  0.5807510000000 1.0
C      1  0.4962860000000  0.5384850000000  0.4234070000000 1.0
C      1  0.5657840000000  0.5516150000000  0.4340990000000 1.0
C      1  0.5257090000000  0.5099200000000  0.5412720000000 1.0
C      1  0.5379850000000  0.5022820000000  0.4505620000000 1.0
C      1  0.4233940000000  0.4423380000000  0.5486070000000 1.0
C      1  0.5290410000000  0.5740040000000  0.4702020000000 1.0
C      1  0.5165540000000  0.4250820000000  0.5329760000000 1.0
C      1  0.4843560000000  0.4797040000000  0.4625870000000 1.0
C      1  0.4379770000000  0.4507210000000  0.5728440000000 1.0
C      1  0.5702840000000  0.4397000000000  0.4991120000000 1.0
C      1  0.4717290000000  0.4476910000000  0.4482010000000 1.0
C      1  0.4857320000000  0.5924750000000  0.5229520000000 1.0
C      1  0.4610180000000  0.5710750000000  0.4353680000000 1.0
C      1  0.4656860000000  0.4538300000000  0.5784650000000 1.0
C      1  0.4823200000000  0.4218990000000  0.4582430000000 1.0
C      1  0.5157920000000  0.5609350000000  0.4243010000000 1.0
C      1  0.4561550000000  0.4949240000000  0.5323280000000 1.0
C      1  0.4591410000000  0.6056170000000  0.5223800000000 1.0
C      1  0.5353730000000  0.5729040000000  0.5190130000000 1.0
C      1  0.5949930000000  0.4548720000000  0.4989130000000 1.0
C      1  0.5184020000000  0.4687210000000  0.4093090000000 1.0
C      1  0.4678270000000  0.5478250000000  0.4179700000000 1.0
C      1  0.4071480000000  0.5141680000000  0.4729290000000 1.0
C      1  0.5240470000000  0.5249380000000  0.5168370000000 1.0
C      1  0.5729650000000  0.5157560000000  0.5667980000000 1.0
C      1  0.4429340000000  0.4523380000000  0.4510640000000 1.0
C      1  0.5826370000000  0.4943710000000  0.4315120000000 1.0
C      1  0.5051450000000  0.5181260000000  0.4041360000000 1.0
C      1  0.5947800000000  0.4662210000000  0.5265090000000 1.0
C      1  0.5235520000000  0.5030870000000  0.5901970000000 1.0
C      1  0.5233850000000  0.5611480000000  0.5683880000000 1.0
C      1  0.4991900000000  0.4919170000000  0.4148070000000 1.0
C      1  0.4959890000000  0.5267160000000  0.4528240000000 1.0
C      1  0.4469240000000  0.5418800000000  0.4554450000000 1.0
C      1  0.4181410000000  0.5415890000000  0.4694770000000 1.0
C      1  0.4482430000000  0.5265080000000  0.4275850000000 1.0
C      1  0.4814570000000  0.4765420000000  0.5886160000000 1.0
C      1  0.5550420000000  0.5386250000000  0.5699550000000 1.0
C      1  0.5032080000000  0.6000640000000  0.5451780000000 1.0
C      1  0.5381980000000  0.4855220000000  0.4925340000000 1.0
C      1  0.4808460000000  0.4374700000000  0.5609450000000 1.0
C      1  0.4758110000000  0.5336050000000  0.5620730000000 1.0
C      1  0.4977290000000  0.6009110000000  0.4974050000000 1.0
C      1  0.4674420000000  0.4182780000000  0.5432440000000 1.0
C      1  0.5769340000000  0.4705280000000  0.4684700000000 1.0
C      1  0.4865080000000  0.4883760000000  0.4914060000000 1.0
C      1  0.5687300000000  0.5481820000000  0.4612890000000 1.0
C      1  0.5715820000000  0.4562110000000  0.5440910000000 1.0
C      1  0.5046770000000  0.4898360000000  0.5468130000000 1.0
C      1  0.5221170000000  0.5789640000000  0.5448090000000 1.0
C      1  0.5963280000000  0.4790080000000  0.4489170000000 1.0
C      1  0.4303380000000  0.5090170000000  0.5403250000000 1.0
C      1  0.5778220000000  0.5116390000000  0.5379270000000 1.0
C      1  0.4838490000000  0.4414170000000  0.3857150000000 1.0
C      1  0.5432790000000  0.5484800000000  0.4764910000000 1.0
C      1  0.5542310000000  0.4680320000000  0.5668710000000 1.0
C      1  0.5448710000000  0.4679280000000  0.4232910000000 1.0
C      1  0.4881440000000  0.3982280000000  0.5001100000000 1.0
C      1  0.5145420000000  0.4004820000000  0.4871320000000 1.0
C      1  0.4005880000000  0.5078680000000  0.5022730000000 1.0
C      1  0.5429010000000  0.5556920000000  0.4208330000000 1.0
C      1  0.5108820000000  0.4634850000000  0.5281690000000 1.0
C      1  0.4145790000000  0.5559220000000  0.4942490000000 1.0
C      1  0.4676400000000  0.4511180000000  0.5133380000000 1.0
C      1  0.5358800000000  0.4083800000000  0.5047630000000 1.0
C      1  0.5551870000000  0.4952510000000  0.4268900000000 1.0
C      1  0.4716340000000  0.5339810000000  0.4717360000000 1.0
C      1  0.4398090000000  0.4223680000000  0.5316140000000 1.0
C      1  0.4713430000000  0.4841670000000  0.4075310000000 1.0
C      1  0.4972800000000  0.5495260000000  0.5788380000000 1.0
C      1  0.5234760000000  0.5866910000000  0.4952300000000 1.0
C      1  0.4697870000000  0.4555060000000  0.4050890000000 1.0
END
