TITL C-951339-9237-101 -3.45483496414458e-07 125000 -179.92232624417 0 0 30 (C1) n - 1
REM
REM in /home/bkarasulu/work/CARBON/AIRSS/Generating-Clusters/EDIP-Nigel-Params/with-SteepDescent/Only-C1/SD-CG/HFTN-CG
REM
REM
REM
REM
REM
REM ./C.cell (11c1c37f851c82e70ff6c80c92926a4b)
REM
REM compiler GCC version 9.2.1 20190827 (Red Hat 9.2.1-1)
REM options -cpp -mtune=generic -march=x86-64 -g -O0 -fpre-include=/usr/include/finclude/math-vector-fortran.h
REM seed 722307274 1415266341 283434668 -303277619 2059729174 1344671205 -596791030 929577561 -1808405125 1616280447 -1095793948 -1984732197 -1524292327 1113474812 937835712 1939603537 -1414800261 -2079780386 -235855799 -2080292218 473774910 1577848278 1872116071 816664242 -500825997 -1499885502 1103948892 -27714205 836207243 280923720 27385126 1039831687 -1183277255
REM
CELL 1.54180   50.00000   50.00000   50.00000   90.00000   90.00000   90.00000
LATT -1
SFAC C  
C      1  0.4826790000000  0.5002910000000  0.5388650000000 1.0
C      1  0.4808470000000  0.4691910000000  0.4990860000000 1.0
C      1  0.5082900000000  0.4449540000000  0.5298150000000 1.0
C      1  0.4813860000000  0.5350020000000  0.4594680000000 1.0
C      1  0.5134010000000  0.4859980000000  0.4495540000000 1.0
C      1  0.4777080000000  0.5149250000000  0.4403080000000 1.0
C      1  0.5018230000000  0.5298940000000  0.5035540000000 1.0
C      1  0.5278970000000  0.4739050000000  0.4981880000000 1.0
C      1  0.5042660000000  0.5507540000000  0.4560280000000 1.0
C      1  0.5351670000000  0.4786030000000  0.5467640000000 1.0
C      1  0.5074830000000  0.5140570000000  0.5280760000000 1.0
C      1  0.5269670000000  0.5372000000000  0.4914930000000 1.0
C      1  0.4662770000000  0.4788200000000  0.5233770000000 1.0
C      1  0.4615300000000  0.4648680000000  0.4776340000000 1.0
C      1  0.4443130000000  0.4930740000000  0.5073960000000 1.0
C      1  0.5272410000000  0.5553060000000  0.4698120000000 1.0
C      1  0.4542940000000  0.5175500000000  0.4980900000000 1.0
C      1  0.5169860000000  0.5330110000000  0.5481480000000 1.0
C      1  0.4872970000000  0.4886460000000  0.4405310000000 1.0
C      1  0.5319290000000  0.4934940000000  0.5220410000000 1.0
C      1  0.4787180000000  0.5256260000000  0.4869870000000 1.0
C      1  0.5123500000000  0.4626250000000  0.5510970000000 1.0
C      1  0.5061380000000  0.4545550000000  0.5033090000000 1.0
C      1  0.4700120000000  0.4699010000000  0.4516360000000 1.0
C      1  0.5281350000000  0.4826850000000  0.4716730000000 1.0
C      1  0.4369570000000  0.4760850000000  0.4858620000000 1.0
C      1  0.5480000000000  0.5358950000000  0.5122900000000 1.0
C      1  0.5376740000000  0.5462500000000  0.5364730000000 1.0
C      1  0.5560270000000  0.5091970000000  0.5167720000000 1.0
C      1  0.4882090000000  0.4776400000000  0.5556730000000 1.0
END
