TITL C-950523-3027-62 -3.67720584859436e-08 125000 -339.993983547924 0 0 56 (C1) n - 1
REM
REM in /home/bkarasulu/work/CARBON/AIRSS/Generating-Clusters/EDIP-Nigel-Params/with-SteepDescent/Only-C1/SD-CG/HFTN-CG
REM
REM
REM
REM
REM
REM ./C.cell (11c1c37f851c82e70ff6c80c92926a4b)
REM
REM compiler GCC version 9.2.1 20190827 (Red Hat 9.2.1-1)
REM options -cpp -mtune=generic -march=x86-64 -g -O0 -fpre-include=/usr/include/finclude/math-vector-fortran.h
REM seed -2096664947 1250162493 1106946735 253439702 1854489916 -1037058159 820419215 -12717346 -700384495 -856155649 1333920583 -737712560 314869040 -284169689 825045175 -2010632616 -1346856463 2131744926 -1086476457 -1443682776 1115804674 -22427374 -224577301 184533980 1965070213 -1337379310 671504057 -1703078198 284525616 -682127082 30648474 1789344731 930040213
REM
CELL 1.54180   50.00000   50.00000   50.00000   90.00000   90.00000   90.00000
LATT -1
SFAC C  
C      1  0.5167930000000  0.4457650000000  0.4915390000000 1.0
C      1  0.4832010000000  0.4857180000000  0.4947990000000 1.0
C      1  0.4473460000000  0.4634820000000  0.4668130000000 1.0
C      1  0.4741930000000  0.5533090000000  0.4825910000000 1.0
C      1  0.5202880000000  0.5609620000000  0.4982150000000 1.0
C      1  0.5419620000000  0.4522910000000  0.5303120000000 1.0
C      1  0.4944130000000  0.4875320000000  0.4275040000000 1.0
C      1  0.5111970000000  0.5116790000000  0.4194450000000 1.0
C      1  0.4431900000000  0.4884110000000  0.5383180000000 1.0
C      1  0.5021390000000  0.5603910000000  0.4768380000000 1.0
C      1  0.4979640000000  0.4523190000000  0.4697170000000 1.0
C      1  0.5198790000000  0.4322990000000  0.5338120000000 1.0
C      1  0.5549600000000  0.4701410000000  0.4603550000000 1.0
C      1  0.5240630000000  0.4923860000000  0.5539440000000 1.0
C      1  0.5474090000000  0.4727480000000  0.5513530000000 1.0
C      1  0.4567830000000  0.4634710000000  0.5376660000000 1.0
C      1  0.4994450000000  0.4396160000000  0.5512790000000 1.0
C      1  0.5106140000000  0.4241360000000  0.5084180000000 1.0
C      1  0.4551020000000  0.4748360000000  0.4947190000000 1.0
C      1  0.5673940000000  0.4900070000000  0.5403130000000 1.0
C      1  0.4269220000000  0.5303580000000  0.4991450000000 1.0
C      1  0.4694390000000  0.4436810000000  0.4757100000000 1.0
C      1  0.5355050000000  0.5460380000000  0.5159940000000 1.0
C      1  0.5326290000000  0.4881100000000  0.4559210000000 1.0
C      1  0.4791940000000  0.5108810000000  0.5613320000000 1.0
C      1  0.5209490000000  0.4971160000000  0.5231510000000 1.0
C      1  0.4831080000000  0.4621730000000  0.5516060000000 1.0
C      1  0.5591960000000  0.4719290000000  0.4876460000000 1.0
C      1  0.4509180000000  0.4801890000000  0.4449850000000 1.0
C      1  0.4751290000000  0.5564770000000  0.5476920000000 1.0
C      1  0.4664430000000  0.4975790000000  0.4296240000000 1.0
C      1  0.5056950000000  0.4757880000000  0.4526150000000 1.0
C      1  0.4687720000000  0.5265110000000  0.4701410000000 1.0
C      1  0.4690400000000  0.5261080000000  0.4397290000000 1.0
C      1  0.5131160000000  0.5493930000000  0.4511970000000 1.0
C      1  0.5374020000000  0.5102600000000  0.4344820000000 1.0
C      1  0.4583930000000  0.5118950000000  0.5410730000000 1.0
C      1  0.4655620000000  0.5579350000000  0.5100570000000 1.0
C      1  0.4955020000000  0.4859920000000  0.5636160000000 1.0
C      1  0.5271480000000  0.5125890000000  0.4777980000000 1.0
C      1  0.4936380000000  0.5091410000000  0.4785030000000 1.0
C      1  0.5396620000000  0.5167390000000  0.5088760000000 1.0
C      1  0.4179070000000  0.5269700000000  0.4739290000000 1.0
C      1  0.4544270000000  0.5410580000000  0.5325450000000 1.0
C      1  0.5351510000000  0.4661900000000  0.5045290000000 1.0
C      1  0.4957690000000  0.5358600000000  0.4300190000000 1.0
C      1  0.4559040000000  0.4505080000000  0.5116760000000 1.0
C      1  0.5668370000000  0.5051050000000  0.5163550000000 1.0
C      1  0.5213100000000  0.5393420000000  0.5627240000000 1.0
C      1  0.4934480000000  0.5020750000000  0.5158480000000 1.0
C      1  0.4923470000000  0.5370350000000  0.5602110000000 1.0
C      1  0.5339690000000  0.5537250000000  0.5426440000000 1.0
C      1  0.4428640000000  0.5150870000000  0.4807080000000 1.0
C      1  0.5335370000000  0.5152720000000  0.5687560000000 1.0
C      1  0.5368990000000  0.5324870000000  0.4557490000000 1.0
C      1  0.5779350000000  0.4909020000000  0.4954640000000 1.0
END
