TITL C-950530-3293-224 -5.75945790194617e-06 125000 -742.312313724726 0 0 120 (C1) n - 1
REM
REM in /home/bkarasulu/work/CARBON/AIRSS/Generating-Clusters/EDIP-Nigel-Params/with-SteepDescent/Only-C1/SD-CG/HFTN-CG
REM
REM
REM
REM
REM
REM ./C.cell (11c1c37f851c82e70ff6c80c92926a4b)
REM
REM compiler GCC version 9.2.1 20190827 (Red Hat 9.2.1-1)
REM options -cpp -mtune=generic -march=x86-64 -g -O0 -fpre-include=/usr/include/finclude/math-vector-fortran.h
REM seed 1096722105 586575499 1404182451 -414386853 -1239062029 1032786174 2102206995 640361764 358624439 -568805794 1712901446 -1844418406 1435237906 596869549 887880149 -18596668 -975709810 -566642607 1549131836 -1833997474 -1184148219 -967323522 263806783 42788440 564743892 -1834471631 -128345573 535894168 1006826912 1023379930 542075216 -1765323809 2054792998
REM
CELL 1.54180   50.00000   50.00000   50.00000   90.00000   90.00000   90.00000
LATT -1
SFAC C  
C      1  0.4099530000000  0.4865980000000  0.5208210000000 1.0
C      1  0.4672360000000  0.5908210000000  0.5115430000000 1.0
C      1  0.5431690000000  0.5318200000000  0.5943940000000 1.0
C      1  0.5519490000000  0.4433710000000  0.5593940000000 1.0
C      1  0.5868540000000  0.4766850000000  0.5500160000000 1.0
C      1  0.5081710000000  0.5295880000000  0.4808170000000 1.0
C      1  0.4331620000000  0.5481820000000  0.5085690000000 1.0
C      1  0.4826240000000  0.4284020000000  0.5433170000000 1.0
C      1  0.4956900000000  0.4693460000000  0.4835730000000 1.0
C      1  0.5680990000000  0.4471520000000  0.4831640000000 1.0
C      1  0.5045120000000  0.3932960000000  0.4704050000000 1.0
C      1  0.4768600000000  0.4018640000000  0.4770420000000 1.0
C      1  0.5643770000000  0.4861880000000  0.4402290000000 1.0
C      1  0.5018390000000  0.5566380000000  0.5827690000000 1.0
C      1  0.4567170000000  0.4900500000000  0.4219490000000 1.0
C      1  0.4421690000000  0.4876250000000  0.5587260000000 1.0
C      1  0.5476300000000  0.4121860000000  0.4560200000000 1.0
C      1  0.5143630000000  0.4826210000000  0.5053480000000 1.0
C      1  0.5133110000000  0.4790720000000  0.5536360000000 1.0
C      1  0.4319840000000  0.4766060000000  0.4350900000000 1.0
C      1  0.5203490000000  0.3878190000000  0.5203270000000 1.0
C      1  0.4699190000000  0.4749910000000  0.5266750000000 1.0
C      1  0.4996940000000  0.5095480000000  0.5988280000000 1.0
C      1  0.4615220000000  0.4377910000000  0.4475110000000 1.0
C      1  0.4033030000000  0.4934750000000  0.4942510000000 1.0
C      1  0.4891580000000  0.4829230000000  0.5902800000000 1.0
C      1  0.5452330000000  0.4896280000000  0.4633520000000 1.0
C      1  0.5177810000000  0.5297750000000  0.4536680000000 1.0
C      1  0.4782630000000  0.4288140000000  0.4684690000000 1.0
C      1  0.5193750000000  0.5255660000000  0.5275530000000 1.0
C      1  0.5230270000000  0.5535430000000  0.5189960000000 1.0
C      1  0.5084720000000  0.4816420000000  0.4122210000000 1.0
C      1  0.4611220000000  0.5412690000000  0.4309620000000 1.0
C      1  0.4634490000000  0.5589230000000  0.5385690000000 1.0
C      1  0.4220150000000  0.5077340000000  0.4774030000000 1.0
C      1  0.4398660000000  0.5776090000000  0.5061310000000 1.0
C      1  0.5664140000000  0.5354800000000  0.4856450000000 1.0
C      1  0.5191360000000  0.5118190000000  0.5017420000000 1.0
C      1  0.5597700000000  0.5050060000000  0.4859370000000 1.0
C      1  0.4702340000000  0.5272460000000  0.5172770000000 1.0
C      1  0.4315600000000  0.5032970000000  0.5340810000000 1.0
C      1  0.5115140000000  0.4289600000000  0.5018350000000 1.0
C      1  0.5087680000000  0.4370590000000  0.4339130000000 1.0
C      1  0.5160890000000  0.5923580000000  0.4894600000000 1.0
C      1  0.4374180000000  0.4476590000000  0.5020690000000 1.0
C      1  0.4908850000000  0.5512320000000  0.4866200000000 1.0
C      1  0.4719850000000  0.4893990000000  0.5645010000000 1.0
C      1  0.5409110000000  0.5271960000000  0.4129790000000 1.0
C      1  0.4297410000000  0.5615770000000  0.4660950000000 1.0
C      1  0.5144270000000  0.5118850000000  0.4131720000000 1.0
C      1  0.5081820000000  0.4207120000000  0.5565420000000 1.0
C      1  0.4287110000000  0.5855330000000  0.4812540000000 1.0
C      1  0.4615460000000  0.4440960000000  0.5539400000000 1.0
C      1  0.5580410000000  0.5229280000000  0.4363730000000 1.0
C      1  0.5634150000000  0.4375940000000  0.4532710000000 1.0
C      1  0.4552370000000  0.5004290000000  0.5151860000000 1.0
C      1  0.5282980000000  0.4094560000000  0.5378750000000 1.0
C      1  0.5351960000000  0.5958530000000  0.5125330000000 1.0
C      1  0.5466180000000  0.4336950000000  0.5277710000000 1.0
C      1  0.4681550000000  0.5102800000000  0.4670580000000 1.0
C      1  0.4742930000000  0.5546920000000  0.5890420000000 1.0
C      1  0.4568000000000  0.5363810000000  0.5762880000000 1.0
C      1  0.5504140000000  0.5701690000000  0.4540690000000 1.0
C      1  0.5499580000000  0.4043330000000  0.4850930000000 1.0
C      1  0.5079140000000  0.5746490000000  0.5592900000000 1.0
C      1  0.4870620000000  0.5386880000000  0.4183660000000 1.0
C      1  0.5119500000000  0.4456980000000  0.4767690000000 1.0
C      1  0.4375460000000  0.4594150000000  0.5517410000000 1.0
C      1  0.5669310000000  0.4847710000000  0.5063460000000 1.0
C      1  0.5094060000000  0.5515140000000  0.4327380000000 1.0
C      1  0.4220630000000  0.4590840000000  0.5254000000000 1.0
C      1  0.4980830000000  0.4820760000000  0.5297040000000 1.0
C      1  0.5410330000000  0.5150170000000  0.5450030000000 1.0
C      1  0.4805120000000  0.5188050000000  0.5662900000000 1.0
C      1  0.4950110000000  0.5617250000000  0.5134410000000 1.0
C      1  0.5724450000000  0.5616180000000  0.5143760000000 1.0
C      1  0.5158390000000  0.5315640000000  0.5889820000000 1.0
C      1  0.4914910000000  0.4880510000000  0.4587900000000 1.0
C      1  0.5635100000000  0.5446740000000  0.4565020000000 1.0
C      1  0.5638350000000  0.4249270000000  0.5024390000000 1.0
C      1  0.5545330000000  0.4591930000000  0.4323660000000 1.0
C      1  0.4913160000000  0.5251280000000  0.5383810000000 1.0
C      1  0.4409050000000  0.5500460000000  0.5556650000000 1.0
C      1  0.5407790000000  0.4845780000000  0.5454620000000 1.0
C      1  0.4650150000000  0.5391700000000  0.4806500000000 1.0
C      1  0.4708830000000  0.4014620000000  0.5045930000000 1.0
C      1  0.5270830000000  0.5847710000000  0.4626450000000 1.0
C      1  0.5332440000000  0.5733020000000  0.5392830000000 1.0
C      1  0.5616120000000  0.5603210000000  0.5427200000000 1.0
C      1  0.5624790000000  0.5331050000000  0.5545550000000 1.0
C      1  0.4252440000000  0.4501460000000  0.4767760000000 1.0
C      1  0.4858280000000  0.5952380000000  0.4869260000000 1.0
C      1  0.5191310000000  0.5004350000000  0.4498090000000 1.0
C      1  0.5040570000000  0.5786820000000  0.4454250000000 1.0
C      1  0.4827690000000  0.4761070000000  0.4288740000000 1.0
C      1  0.4811170000000  0.4464090000000  0.4282540000000 1.0
C      1  0.4677470000000  0.4525750000000  0.5041640000000 1.0
C      1  0.5240630000000  0.4405460000000  0.5719920000000 1.0
C      1  0.5865120000000  0.4892860000000  0.5260310000000 1.0
C      1  0.5258460000000  0.4590370000000  0.4243370000000 1.0
C      1  0.4830960000000  0.4267900000000  0.5136780000000 1.0
C      1  0.4819780000000  0.5827330000000  0.5463400000000 1.0
C      1  0.5217430000000  0.4016620000000  0.4947130000000 1.0
C      1  0.5184860000000  0.4121960000000  0.4488590000000 1.0
C      1  0.4527100000000  0.5145880000000  0.4410400000000 1.0
C      1  0.4208550000000  0.5385150000000  0.4836770000000 1.0
C      1  0.5408120000000  0.4608380000000  0.4747360000000 1.0
C      1  0.5422500000000  0.4705140000000  0.5168610000000 1.0
C      1  0.4488960000000  0.4978100000000  0.4857830000000 1.0
C      1  0.4187700000000  0.5012720000000  0.4477390000000 1.0
C      1  0.4583590000000  0.5580480000000  0.4569120000000 1.0
C      1  0.5411800000000  0.5563830000000  0.4932750000000 1.0
C      1  0.5613160000000  0.5868680000000  0.5029670000000 1.0
C      1  0.5318380000000  0.5542240000000  0.4133720000000 1.0
C      1  0.5104340000000  0.4620850000000  0.5880210000000 1.0
C      1  0.4412030000000  0.4570580000000  0.4549430000000 1.0
C      1  0.4779590000000  0.5834850000000  0.4594640000000 1.0
C      1  0.4269670000000  0.5340420000000  0.5346020000000 1.0
C      1  0.5673690000000  0.5324490000000  0.5824000000000 1.0
C      1  0.5620510000000  0.4711390000000  0.5618930000000 1.0
END
