TITL C-951347-9520-452 -1.85823488468838e-06 125000 -965.480864917744 0 0 154 (C1) n - 1
REM
REM in /home/bkarasulu/work/CARBON/AIRSS/Generating-Clusters/EDIP-Nigel-Params/with-SteepDescent/Only-C1/SD-CG/HFTN-CG
REM
REM
REM
REM
REM
REM ./C.cell (11c1c37f851c82e70ff6c80c92926a4b)
REM
REM compiler GCC version 9.2.1 20190827 (Red Hat 9.2.1-1)
REM options -cpp -mtune=generic -march=x86-64 -g -O0 -fpre-include=/usr/include/finclude/math-vector-fortran.h
REM seed 254815393 865505434 834082530 1261305858 659678031 452846779 1182080500 1318709548 135650849 -1651888053 -1394692879 -575112958 -1046148670 436052516 1603758082 -39608540 1561354631 1073267908 -291222262 -1038296592 -922910696 1137725434 127610111 -92387384 -1350099202 -455128188 -72734714 526772440 816479622 1233491729 1387399082 945377526 -655189688
REM
CELL 1.54180   50.00000   50.00000   50.00000   90.00000   90.00000   90.00000
LATT -1
SFAC C  
C      1  0.4699020000000  0.4238460000000  0.5496650000000 1.0
C      1  0.4056100000000  0.4570360000000  0.4885380000000 1.0
C      1  0.5278400000000  0.5243690000000  0.5764840000000 1.0
C      1  0.5766410000000  0.4721840000000  0.4372330000000 1.0
C      1  0.5426680000000  0.5691610000000  0.5611600000000 1.0
C      1  0.5562550000000  0.4896400000000  0.5338500000000 1.0
C      1  0.5228650000000  0.5536780000000  0.5107710000000 1.0
C      1  0.4661560000000  0.4015380000000  0.5045510000000 1.0
C      1  0.4438810000000  0.5313180000000  0.4835250000000 1.0
C      1  0.4299010000000  0.4860540000000  0.5887790000000 1.0
C      1  0.5024370000000  0.5391370000000  0.4185750000000 1.0
C      1  0.4438110000000  0.5066350000000  0.4669880000000 1.0
C      1  0.4321860000000  0.5743680000000  0.4988130000000 1.0
C      1  0.4938530000000  0.5509880000000  0.4970990000000 1.0
C      1  0.4208870000000  0.4406810000000  0.4702630000000 1.0
C      1  0.5751300000000  0.5407140000000  0.5360620000000 1.0
C      1  0.5061460000000  0.5100150000000  0.5137630000000 1.0
C      1  0.6006460000000  0.5112230000000  0.4563300000000 1.0
C      1  0.4098820000000  0.4518740000000  0.5171500000000 1.0
C      1  0.5561000000000  0.5196670000000  0.4962560000000 1.0
C      1  0.4500580000000  0.5679650000000  0.5206150000000 1.0
C      1  0.5886870000000  0.4396030000000  0.4761930000000 1.0
C      1  0.5430290000000  0.5557390000000  0.4395800000000 1.0
C      1  0.6110590000000  0.4669610000000  0.5036250000000 1.0
C      1  0.4232590000000  0.4990030000000  0.4452830000000 1.0
C      1  0.3947690000000  0.5136010000000  0.5038230000000 1.0
C      1  0.4092300000000  0.5015370000000  0.5292730000000 1.0
C      1  0.5726410000000  0.4628140000000  0.5694760000000 1.0
C      1  0.4109420000000  0.5188910000000  0.5549890000000 1.0
C      1  0.4097760000000  0.4660840000000  0.5631490000000 1.0
C      1  0.5417420000000  0.4478640000000  0.4529410000000 1.0
C      1  0.4772330000000  0.4729860000000  0.5251640000000 1.0
C      1  0.4619980000000  0.5932760000000  0.5151480000000 1.0
C      1  0.5278000000000  0.6003510000000  0.4789170000000 1.0
C      1  0.4389950000000  0.4611540000000  0.5600320000000 1.0
C      1  0.5189160000000  0.5142870000000  0.4143000000000 1.0
C      1  0.4032390000000  0.5467220000000  0.5526760000000 1.0
C      1  0.5900220000000  0.5133140000000  0.5723330000000 1.0
C      1  0.5089540000000  0.5956060000000  0.5299850000000 1.0
C      1  0.6147120000000  0.5077100000000  0.5315310000000 1.0
C      1  0.4653010000000  0.4499510000000  0.5919230000000 1.0
C      1  0.4376820000000  0.4986470000000  0.5225770000000 1.0
C      1  0.4798910000000  0.4452840000000  0.4495760000000 1.0
C      1  0.4280160000000  0.5214440000000  0.4261590000000 1.0
C      1  0.5227870000000  0.5300940000000  0.5293710000000 1.0
C      1  0.5186030000000  0.4558900000000  0.5212250000000 1.0
C      1  0.5339970000000  0.4671990000000  0.4041390000000 1.0
C      1  0.5482880000000  0.5118320000000  0.4181780000000 1.0
C      1  0.4537840000000  0.4835210000000  0.5424200000000 1.0
C      1  0.6119600000000  0.4960780000000  0.5053520000000 1.0
C      1  0.4897630000000  0.5931890000000  0.5087340000000 1.0
C      1  0.6006390000000  0.4954680000000  0.5534210000000 1.0
C      1  0.4832080000000  0.5225960000000  0.4549050000000 1.0
C      1  0.5325980000000  0.4401770000000  0.4814920000000 1.0
C      1  0.4186280000000  0.5458030000000  0.4359000000000 1.0
C      1  0.5549280000000  0.4826630000000  0.4181200000000 1.0
C      1  0.4765330000000  0.5357630000000  0.5526640000000 1.0
C      1  0.5123680000000  0.4845670000000  0.6006320000000 1.0
C      1  0.5106830000000  0.4101940000000  0.5190880000000 1.0
C      1  0.6127700000000  0.4540570000000  0.4784360000000 1.0
C      1  0.5517330000000  0.4527840000000  0.5850040000000 1.0
C      1  0.3927430000000  0.5540250000000  0.5281390000000 1.0
C      1  0.5160170000000  0.4467010000000  0.4139060000000 1.0
C      1  0.5918030000000  0.4553670000000  0.5233750000000 1.0
C      1  0.5126310000000  0.4073930000000  0.4413520000000 1.0
C      1  0.5087840000000  0.5380100000000  0.5565790000000 1.0
C      1  0.4424630000000  0.4330720000000  0.5491860000000 1.0
C      1  0.5784460000000  0.4918320000000  0.4592680000000 1.0
C      1  0.3964580000000  0.5423230000000  0.5031140000000 1.0
C      1  0.4331090000000  0.5124660000000  0.5747160000000 1.0
C      1  0.5710330000000  0.5783160000000  0.4741110000000 1.0
C      1  0.4226020000000  0.4495500000000  0.4437930000000 1.0
C      1  0.4777860000000  0.4024770000000  0.4759140000000 1.0
C      1  0.5721430000000  0.4456340000000  0.4504960000000 1.0
C      1  0.4638290000000  0.4250370000000  0.4627850000000 1.0
C      1  0.4777520000000  0.4951460000000  0.5867900000000 1.0
C      1  0.5444630000000  0.5473560000000  0.4895750000000 1.0
C      1  0.4551390000000  0.5198240000000  0.4142410000000 1.0
C      1  0.5485110000000  0.4260130000000  0.5765910000000 1.0
C      1  0.4992360000000  0.5893720000000  0.5552570000000 1.0
C      1  0.4776810000000  0.4485420000000  0.5046630000000 1.0
C      1  0.4647410000000  0.4946360000000  0.4045230000000 1.0
C      1  0.4822660000000  0.4367910000000  0.5735620000000 1.0
C      1  0.4498380000000  0.4704240000000  0.4081850000000 1.0
C      1  0.5302570000000  0.4288120000000  0.5296710000000 1.0
C      1  0.4696910000000  0.5443990000000  0.5215910000000 1.0
C      1  0.5776230000000  0.5377840000000  0.5654540000000 1.0
C      1  0.4618130000000  0.5072280000000  0.5624330000000 1.0
C      1  0.4883660000000  0.5877770000000  0.4557820000000 1.0
C      1  0.5004280000000  0.5917820000000  0.4820600000000 1.0
C      1  0.4732480000000  0.5429070000000  0.4126530000000 1.0
C      1  0.4656250000000  0.4475610000000  0.4038660000000 1.0
C      1  0.5508480000000  0.5451000000000  0.5763790000000 1.0
C      1  0.4013740000000  0.5028960000000  0.4772590000000 1.0
C      1  0.4867240000000  0.4375050000000  0.4213410000000 1.0
C      1  0.4473090000000  0.4376940000000  0.4832510000000 1.0
C      1  0.5252550000000  0.4967940000000  0.4963030000000 1.0
C      1  0.5258440000000  0.4037120000000  0.4933830000000 1.0
C      1  0.4616000000000  0.5659030000000  0.4236100000000 1.0
C      1  0.4791600000000  0.4972530000000  0.5049020000000 1.0
C      1  0.5322460000000  0.5372790000000  0.4639490000000 1.0
C      1  0.5048110000000  0.5297110000000  0.4745370000000 1.0
C      1  0.5253850000000  0.4664960000000  0.5827660000000 1.0
C      1  0.5020700000000  0.4676490000000  0.5415830000000 1.0
C      1  0.4821720000000  0.4209740000000  0.5205730000000 1.0
C      1  0.4663040000000  0.5465160000000  0.4695430000000 1.0
C      1  0.5284410000000  0.4814620000000  0.4536990000000 1.0
C      1  0.4674940000000  0.5552330000000  0.5739730000000 1.0
C      1  0.4196250000000  0.5513220000000  0.4859640000000 1.0
C      1  0.5342510000000  0.5999080000000  0.4500070000000 1.0
C      1  0.5196520000000  0.5624510000000  0.4220380000000 1.0
C      1  0.5734740000000  0.4411790000000  0.5030430000000 1.0
C      1  0.5302050000000  0.4296310000000  0.4325930000000 1.0
C      1  0.6015070000000  0.5415820000000  0.5225880000000 1.0
C      1  0.5036990000000  0.4537870000000  0.4855140000000 1.0
C      1  0.5144220000000  0.5669510000000  0.5632600000000 1.0
C      1  0.5080830000000  0.4494430000000  0.5653050000000 1.0
C      1  0.5335350000000  0.5794990000000  0.5254960000000 1.0
C      1  0.5486350000000  0.5863640000000  0.4950370000000 1.0
C      1  0.5112760000000  0.4880920000000  0.4278330000000 1.0
C      1  0.5091070000000  0.4815410000000  0.4762360000000 1.0
C      1  0.4571460000000  0.4761530000000  0.5973110000000 1.0
C      1  0.4398730000000  0.4153260000000  0.5015770000000 1.0
C      1  0.5149710000000  0.5135450000000  0.6014280000000 1.0
C      1  0.4774260000000  0.5456820000000  0.5980050000000 1.0
C      1  0.4269560000000  0.4286830000000  0.5247900000000 1.0
C      1  0.5099950000000  0.5886860000000  0.4346070000000 1.0
C      1  0.5533100000000  0.4593950000000  0.4940760000000 1.0
C      1  0.5067050000000  0.4060510000000  0.4704820000000 1.0
C      1  0.5622320000000  0.5347330000000  0.4313090000000 1.0
C      1  0.4197860000000  0.4821450000000  0.4861870000000 1.0
C      1  0.4557500000000  0.5196070000000  0.5095260000000 1.0
C      1  0.4666370000000  0.4717750000000  0.4517980000000 1.0
C      1  0.5393520000000  0.4759130000000  0.5130190000000 1.0
C      1  0.4895710000000  0.4079440000000  0.4233210000000 1.0
C      1  0.4161540000000  0.5648940000000  0.5690250000000 1.0
C      1  0.5804790000000  0.4752700000000  0.5448050000000 1.0
C      1  0.5866970000000  0.5366250000000  0.4491040000000 1.0
C      1  0.5852370000000  0.5524310000000  0.4740690000000 1.0
C      1  0.4389120000000  0.4718830000000  0.4362400000000 1.0
C      1  0.5539890000000  0.5193800000000  0.5269650000000 1.0
C      1  0.5269650000000  0.4270390000000  0.5588760000000 1.0
C      1  0.4006880000000  0.4729010000000  0.5365690000000 1.0
C      1  0.4646010000000  0.5711070000000  0.4511220000000 1.0
C      1  0.5547070000000  0.4196810000000  0.5130660000000 1.0
C      1  0.6054790000000  0.5427640000000  0.4931630000000 1.0
C      1  0.4825390000000  0.4952730000000  0.4379620000000 1.0
C      1  0.4115160000000  0.5572280000000  0.4591510000000 1.0
C      1  0.6145210000000  0.5159460000000  0.4832670000000 1.0
C      1  0.4855500000000  0.5197360000000  0.6045040000000 1.0
C      1  0.4579650000000  0.4800480000000  0.4810770000000 1.0
C      1  0.5498240000000  0.5051720000000  0.4614110000000 1.0
C      1  0.5571740000000  0.5811620000000  0.4479090000000 1.0
C      1  0.4422460000000  0.5665380000000  0.5744820000000 1.0
END
