TITL C-950529-3362-301 1.76268499466611e-07 125000 -927.246477505062 0 0 148 (C1) n - 1
REM
REM in /home/bkarasulu/work/CARBON/AIRSS/Generating-Clusters/EDIP-Nigel-Params/with-SteepDescent/Only-C1/SD-CG/HFTN-CG
REM
REM
REM
REM
REM
REM ./C.cell (11c1c37f851c82e70ff6c80c92926a4b)
REM
REM compiler GCC version 9.2.1 20190827 (Red Hat 9.2.1-1)
REM options -cpp -mtune=generic -march=x86-64 -g -O0 -fpre-include=/usr/include/finclude/math-vector-fortran.h
REM seed -1506271818 -1119739011 -373395154 -843523138 1759304540 1309326612 -1255619877 -974119716 1467832199 1604632842 -1910417362 -748204830 68001920 2093642213 438557257 -1284507379 1660572081 2032465490 -611248918 567998165 915071633 680156017 444295624 907618098 1928035876 976905222 377432569 -90887011 -1472426501 93568491 876146250 233669139 -405716768
REM
CELL 1.54180   50.00000   50.00000   50.00000   90.00000   90.00000   90.00000
LATT -1
SFAC C  
C      1  0.5069190000000  0.5264600000000  0.5469530000000 1.0
C      1  0.5608100000000  0.5565800000000  0.5643880000000 1.0
C      1  0.4804410000000  0.5072420000000  0.4417080000000 1.0
C      1  0.5479710000000  0.5664000000000  0.4660490000000 1.0
C      1  0.5640690000000  0.4216290000000  0.5188020000000 1.0
C      1  0.5588060000000  0.4284620000000  0.4522550000000 1.0
C      1  0.4128990000000  0.4955980000000  0.5582010000000 1.0
C      1  0.4488440000000  0.4760380000000  0.4926680000000 1.0
C      1  0.5295340000000  0.5524170000000  0.5338560000000 1.0
C      1  0.5123080000000  0.5659030000000  0.4257510000000 1.0
C      1  0.5304820000000  0.5253120000000  0.4223940000000 1.0
C      1  0.5585640000000  0.5299150000000  0.4342650000000 1.0
C      1  0.4680760000000  0.5523130000000  0.4087390000000 1.0
C      1  0.4994510000000  0.4911000000000  0.3989550000000 1.0
C      1  0.5193150000000  0.5664770000000  0.4554240000000 1.0
C      1  0.4890290000000  0.5388430000000  0.5853420000000 1.0
C      1  0.5567600000000  0.4897200000000  0.5007250000000 1.0
C      1  0.5225240000000  0.5482270000000  0.4072230000000 1.0
C      1  0.5186250000000  0.5769760000000  0.5689230000000 1.0
C      1  0.4826090000000  0.4578640000000  0.4236780000000 1.0
C      1  0.4625880000000  0.4215360000000  0.5480550000000 1.0
C      1  0.4836230000000  0.5669460000000  0.4269030000000 1.0
C      1  0.4918980000000  0.4453630000000  0.5042540000000 1.0
C      1  0.4547980000000  0.5762000000000  0.4700410000000 1.0
C      1  0.5508640000000  0.5865320000000  0.4872650000000 1.0
C      1  0.4083000000000  0.4785090000000  0.5091900000000 1.0
C      1  0.4027960000000  0.5224430000000  0.5486520000000 1.0
C      1  0.4545550000000  0.5033050000000  0.5048400000000 1.0
C      1  0.4392570000000  0.5437870000000  0.5826200000000 1.0
C      1  0.5112520000000  0.4818490000000  0.5947920000000 1.0
C      1  0.4474890000000  0.5743330000000  0.5139810000000 1.0
C      1  0.4114120000000  0.4920000000000  0.4522540000000 1.0
C      1  0.5017370000000  0.4626920000000  0.4026880000000 1.0
C      1  0.5264690000000  0.5366320000000  0.4910290000000 1.0
C      1  0.5746960000000  0.4414150000000  0.4983660000000 1.0
C      1  0.5929050000000  0.5312870000000  0.4713170000000 1.0
C      1  0.5546740000000  0.4993250000000  0.4712210000000 1.0
C      1  0.5293220000000  0.4780220000000  0.5544620000000 1.0
C      1  0.5275910000000  0.5001090000000  0.4063720000000 1.0
C      1  0.5336580000000  0.4550830000000  0.5336410000000 1.0
C      1  0.5279870000000  0.5023010000000  0.6040140000000 1.0
C      1  0.5172130000000  0.4442960000000  0.4481340000000 1.0
C      1  0.5539060000000  0.4845360000000  0.5721300000000 1.0
C      1  0.5169810000000  0.5502300000000  0.5824620000000 1.0
C      1  0.4746680000000  0.5145640000000  0.5982260000000 1.0
C      1  0.5268620000000  0.4176090000000  0.5600150000000 1.0
C      1  0.4453300000000  0.5159200000000  0.5924920000000 1.0
C      1  0.4720490000000  0.5011870000000  0.4125970000000 1.0
C      1  0.5271310000000  0.4949630000000  0.4593010000000 1.0
C      1  0.5383570000000  0.4657400000000  0.5056770000000 1.0
C      1  0.4961770000000  0.3911970000000  0.5179160000000 1.0
C      1  0.4827180000000  0.4856320000000  0.5951110000000 1.0
C      1  0.3991560000000  0.5044210000000  0.4994230000000 1.0
C      1  0.4219240000000  0.5671660000000  0.5035220000000 1.0
C      1  0.5712890000000  0.5805500000000  0.5052590000000 1.0
C      1  0.4130030000000  0.5397850000000  0.4621670000000 1.0
C      1  0.4534460000000  0.5446590000000  0.4791210000000 1.0
C      1  0.5219110000000  0.4571630000000  0.5863900000000 1.0
C      1  0.5323910000000  0.4240660000000  0.4644270000000 1.0
C      1  0.4066480000000  0.5126400000000  0.4719700000000 1.0
C      1  0.4858670000000  0.5060370000000  0.5562040000000 1.0
C      1  0.4713400000000  0.5726980000000  0.5547480000000 1.0
C      1  0.3994130000000  0.5247120000000  0.5194080000000 1.0
C      1  0.6046750000000  0.4997350000000  0.4886830000000 1.0
C      1  0.4546850000000  0.4098120000000  0.5001570000000 1.0
C      1  0.4311520000000  0.5237000000000  0.4167170000000 1.0
C      1  0.5424260000000  0.4791000000000  0.4208390000000 1.0
C      1  0.4823860000000  0.5314880000000  0.4790010000000 1.0
C      1  0.5953310000000  0.5304550000000  0.5379430000000 1.0
C      1  0.4832720000000  0.4769890000000  0.4494460000000 1.0
C      1  0.5564640000000  0.4361420000000  0.5435280000000 1.0
C      1  0.4095350000000  0.4641780000000  0.4602590000000 1.0
C      1  0.5123170000000  0.5175950000000  0.4465390000000 1.0
C      1  0.4634770000000  0.5892380000000  0.4955120000000 1.0
C      1  0.5805240000000  0.4784820000000  0.5606010000000 1.0
C      1  0.4485330000000  0.4441750000000  0.4576530000000 1.0
C      1  0.5482750000000  0.5375500000000  0.5126200000000 1.0
C      1  0.5323570000000  0.4511850000000  0.4216450000000 1.0
C      1  0.5248400000000  0.3975590000000  0.4753500000000 1.0
C      1  0.5618020000000  0.5353010000000  0.4644920000000 1.0
C      1  0.5073620000000  0.5538480000000  0.5089890000000 1.0
C      1  0.4880470000000  0.4788710000000  0.5414370000000 1.0
C      1  0.4670470000000  0.5578390000000  0.5802110000000 1.0
C      1  0.4878780000000  0.5374100000000  0.5231850000000 1.0
C      1  0.5975640000000  0.5382210000000  0.5096270000000 1.0
C      1  0.5443560000000  0.3855990000000  0.4918610000000 1.0
C      1  0.4822750000000  0.5137600000000  0.5039740000000 1.0
C      1  0.5076710000000  0.4379050000000  0.5298890000000 1.0
C      1  0.4769210000000  0.5824640000000  0.4508680000000 1.0
C      1  0.5820220000000  0.4538510000000  0.5444840000000 1.0
C      1  0.4229870000000  0.5440710000000  0.5560720000000 1.0
C      1  0.5018750000000  0.4912100000000  0.5141330000000 1.0
C      1  0.5910670000000  0.4586550000000  0.5157940000000 1.0
C      1  0.5102260000000  0.4712890000000  0.4639300000000 1.0
C      1  0.5863160000000  0.5512030000000  0.5544270000000 1.0
C      1  0.5740600000000  0.4479270000000  0.4683830000000 1.0
C      1  0.4630350000000  0.5560920000000  0.5317920000000 1.0
C      1  0.5074370000000  0.4361190000000  0.5737000000000 1.0
C      1  0.4583850000000  0.4711400000000  0.5346490000000 1.0
C      1  0.4687410000000  0.4014850000000  0.5252360000000 1.0
C      1  0.4783890000000  0.4156880000000  0.4828850000000 1.0
C      1  0.5865500000000  0.4866820000000  0.5078120000000 1.0
C      1  0.4273690000000  0.5845000000000  0.4619510000000 1.0
C      1  0.4396150000000  0.4340630000000  0.5086880000000 1.0
C      1  0.5759940000000  0.4782060000000  0.4574300000000 1.0
C      1  0.5705800000000  0.4828880000000  0.4280430000000 1.0
C      1  0.6032190000000  0.4898020000000  0.4618530000000 1.0
C      1  0.5184650000000  0.4074300000000  0.5309720000000 1.0
C      1  0.4978110000000  0.3939310000000  0.4873970000000 1.0
C      1  0.5742160000000  0.5104450000000  0.5425330000000 1.0
C      1  0.4568970000000  0.5078580000000  0.5484980000000 1.0
C      1  0.4358880000000  0.5269510000000  0.5065510000000 1.0
C      1  0.4648050000000  0.4685120000000  0.5778630000000 1.0
C      1  0.5413940000000  0.5360820000000  0.5732060000000 1.0
C      1  0.4934150000000  0.5881560000000  0.4966480000000 1.0
C      1  0.4535160000000  0.5243940000000  0.4537370000000 1.0
C      1  0.5436520000000  0.4020420000000  0.5149760000000 1.0
C      1  0.5560390000000  0.4345910000000  0.4245170000000 1.0
C      1  0.5728460000000  0.5519500000000  0.5040460000000 1.0
C      1  0.5096790000000  0.5395160000000  0.4667740000000 1.0
C      1  0.5100690000000  0.4681430000000  0.4950020000000 1.0
C      1  0.4911520000000  0.4329890000000  0.4369830000000 1.0
C      1  0.4700320000000  0.4230110000000  0.4550220000000 1.0
C      1  0.4254620000000  0.5440620000000  0.4362170000000 1.0
C      1  0.4098660000000  0.4730190000000  0.5388240000000 1.0
C      1  0.4613900000000  0.4553930000000  0.5095980000000 1.0
C      1  0.4989960000000  0.5813260000000  0.5482140000000 1.0
C      1  0.4613320000000  0.4691780000000  0.4671760000000 1.0
C      1  0.4357960000000  0.4306660000000  0.5383560000000 1.0
C      1  0.4436500000000  0.4764700000000  0.4175220000000 1.0
C      1  0.4416870000000  0.4949930000000  0.5712760000000 1.0
C      1  0.5517030000000  0.5102160000000  0.5226220000000 1.0
C      1  0.5014620000000  0.5879950000000  0.4672230000000 1.0
C      1  0.4440610000000  0.5340600000000  0.5366950000000 1.0
C      1  0.4337680000000  0.4575150000000  0.5490100000000 1.0
C      1  0.5801890000000  0.5114840000000  0.4257610000000 1.0
C      1  0.5397300000000  0.5923520000000  0.5237630000000 1.0
C      1  0.4575300000000  0.5268150000000  0.4030610000000 1.0
C      1  0.4152940000000  0.4573550000000  0.4895470000000 1.0
C      1  0.5250790000000  0.5025900000000  0.5352150000000 1.0
C      1  0.5489800000000  0.5107750000000  0.5872260000000 1.0
C      1  0.4798550000000  0.4442530000000  0.5624130000000 1.0
C      1  0.5453410000000  0.5810240000000  0.5556000000000 1.0
C      1  0.5089040000000  0.5949910000000  0.5232180000000 1.0
C      1  0.6027060000000  0.5148190000000  0.4460590000000 1.0
C      1  0.4335130000000  0.4534600000000  0.4332460000000 1.0
C      1  0.4124340000000  0.5651800000000  0.4769760000000 1.0
C      1  0.4286670000000  0.4976190000000  0.4292090000000 1.0
END
