TITL C-951339-9237-409 -3.10523692483106e-06 125000 -861.508933817878 0 0 139 (C1) n - 1
REM
REM in /home/bkarasulu/work/CARBON/AIRSS/Generating-Clusters/EDIP-Nigel-Params/with-SteepDescent/Only-C1/SD-CG/HFTN-CG
REM
REM
REM
REM
REM
REM ./C.cell (11c1c37f851c82e70ff6c80c92926a4b)
REM
REM compiler GCC version 9.2.1 20190827 (Red Hat 9.2.1-1)
REM options -cpp -mtune=generic -march=x86-64 -g -O0 -fpre-include=/usr/include/finclude/math-vector-fortran.h
REM seed -810162507 802157376 -685581712 738495148 -79546414 386617902 -973042766 1733303704 1153436133 1223030153 -1440700252 -313393309 1193923196 -142992565 413858480 1051558057 -1005643885 834832619 890934987 615328688 654362818 -648236437 383329700 -1395946866 -616502571 1651250691 -1466723251 -1820522751 -904604341 641375016 1665365844 270367998 -372596786
REM
CELL 1.54180   50.00000   50.00000   50.00000   90.00000   90.00000   90.00000
LATT -1
SFAC C  
C      1  0.4755780000000  0.4842560000000  0.4363870000000 1.0
C      1  0.4533560000000  0.5226910000000  0.5424100000000 1.0
C      1  0.4810100000000  0.4838240000000  0.5977170000000 1.0
C      1  0.4619360000000  0.5559990000000  0.4663570000000 1.0
C      1  0.5560310000000  0.5730210000000  0.5421570000000 1.0
C      1  0.4386850000000  0.4106960000000  0.5309610000000 1.0
C      1  0.4669840000000  0.5628020000000  0.5686150000000 1.0
C      1  0.4312670000000  0.4348320000000  0.4703860000000 1.0
C      1  0.5122660000000  0.4426110000000  0.5094110000000 1.0
C      1  0.4808770000000  0.4396040000000  0.4633070000000 1.0
C      1  0.5476260000000  0.5982930000000  0.5040750000000 1.0
C      1  0.4307070000000  0.5034410000000  0.4409530000000 1.0
C      1  0.4721780000000  0.5909870000000  0.5008320000000 1.0
C      1  0.5292250000000  0.5552010000000  0.4924280000000 1.0
C      1  0.4596560000000  0.5357290000000  0.4865090000000 1.0
C      1  0.5279600000000  0.4374350000000  0.4408500000000 1.0
C      1  0.4535090000000  0.5057330000000  0.5659930000000 1.0
C      1  0.4566350000000  0.4205360000000  0.5109680000000 1.0
C      1  0.5021160000000  0.4804320000000  0.4752470000000 1.0
C      1  0.5686600000000  0.4673510000000  0.4372200000000 1.0
C      1  0.4257860000000  0.5085380000000  0.5184860000000 1.0
C      1  0.5814970000000  0.4189660000000  0.5226060000000 1.0
C      1  0.5475350000000  0.5500960000000  0.4466330000000 1.0
C      1  0.4096990000000  0.5569460000000  0.4732680000000 1.0
C      1  0.5273270000000  0.5523900000000  0.5744190000000 1.0
C      1  0.5815720000000  0.4420390000000  0.5388220000000 1.0
C      1  0.4260670000000  0.4815980000000  0.4595710000000 1.0
C      1  0.5465020000000  0.4559270000000  0.4552680000000 1.0
C      1  0.4391950000000  0.5957360000000  0.5475510000000 1.0
C      1  0.5737380000000  0.4902960000000  0.5626810000000 1.0
C      1  0.5281920000000  0.5672770000000  0.5462940000000 1.0
C      1  0.5918280000000  0.4901790000000  0.5361070000000 1.0
C      1  0.5474740000000  0.5098470000000  0.5327610000000 1.0
C      1  0.4740060000000  0.4039560000000  0.4958720000000 1.0
C      1  0.4142530000000  0.4253180000000  0.5304780000000 1.0
C      1  0.5062720000000  0.4717360000000  0.6015710000000 1.0
C      1  0.5777450000000  0.5612490000000  0.4961410000000 1.0
C      1  0.5155670000000  0.3868680000000  0.4970130000000 1.0
C      1  0.5090140000000  0.5458740000000  0.5957740000000 1.0
C      1  0.5158520000000  0.5946860000000  0.4692350000000 1.0
C      1  0.4741640000000  0.5427750000000  0.5491410000000 1.0
C      1  0.4804870000000  0.5314830000000  0.5052270000000 1.0
C      1  0.5927600000000  0.5196410000000  0.4694480000000 1.0
C      1  0.5104620000000  0.4475670000000  0.4191840000000 1.0
C      1  0.4840930000000  0.4998650000000  0.4621740000000 1.0
C      1  0.4540210000000  0.5828470000000  0.4786750000000 1.0
C      1  0.5386920000000  0.4270360000000  0.4962980000000 1.0
C      1  0.5347040000000  0.5005610000000  0.4403330000000 1.0
C      1  0.4426360000000  0.4106130000000  0.4605810000000 1.0
C      1  0.5245430000000  0.4649760000000  0.5262950000000 1.0
C      1  0.5189210000000  0.5895490000000  0.4407850000000 1.0
C      1  0.4428860000000  0.4432860000000  0.4980560000000 1.0
C      1  0.4699720000000  0.5795180000000  0.4292440000000 1.0
C      1  0.5787970000000  0.5139470000000  0.4236980000000 1.0
C      1  0.5274040000000  0.6068220000000  0.5198380000000 1.0
C      1  0.5567340000000  0.5166870000000  0.4801530000000 1.0
C      1  0.5526820000000  0.4679800000000  0.5656880000000 1.0
C      1  0.5793500000000  0.5371140000000  0.5623280000000 1.0
C      1  0.4882010000000  0.5521260000000  0.5249220000000 1.0
C      1  0.5583200000000  0.4919600000000  0.4241460000000 1.0
C      1  0.5353980000000  0.5343810000000  0.4691040000000 1.0
C      1  0.4564920000000  0.5085420000000  0.4757540000000 1.0
C      1  0.5062710000000  0.5707960000000  0.4819700000000 1.0
C      1  0.5115590000000  0.5916880000000  0.5368590000000 1.0
C      1  0.5779090000000  0.5560030000000  0.5425480000000 1.0
C      1  0.4977280000000  0.5684590000000  0.4337310000000 1.0
C      1  0.4642530000000  0.4546380000000  0.4416770000000 1.0
C      1  0.4535080000000  0.5551600000000  0.4232360000000 1.0
C      1  0.4570040000000  0.4778120000000  0.5556960000000 1.0
C      1  0.4535680000000  0.4089220000000  0.5540420000000 1.0
C      1  0.4898360000000  0.4564760000000  0.4871670000000 1.0
C      1  0.5592910000000  0.5164660000000  0.5607110000000 1.0
C      1  0.4351290000000  0.4558570000000  0.4505870000000 1.0
C      1  0.4209060000000  0.4507580000000  0.5178120000000 1.0
C      1  0.4650860000000  0.5861760000000  0.5511530000000 1.0
C      1  0.5463750000000  0.4914170000000  0.4878730000000 1.0
C      1  0.5239910000000  0.4123830000000  0.4531630000000 1.0
C      1  0.4799400000000  0.5089040000000  0.5803050000000 1.0
C      1  0.5228150000000  0.3981410000000  0.5465810000000 1.0
C      1  0.4985810000000  0.5307680000000  0.4244210000000 1.0
C      1  0.4121110000000  0.4914350000000  0.5381200000000 1.0
C      1  0.5530440000000  0.5746380000000  0.4889080000000 1.0
C      1  0.5307180000000  0.4810610000000  0.4647270000000 1.0
C      1  0.4587830000000  0.5942580000000  0.4518140000000 1.0
C      1  0.4836670000000  0.5827340000000  0.5269820000000 1.0
C      1  0.5286580000000  0.4050480000000  0.4798570000000 1.0
C      1  0.4916590000000  0.5553430000000  0.4610080000000 1.0
C      1  0.6079240000000  0.5101920000000  0.4922390000000 1.0
C      1  0.5810160000000  0.4568000000000  0.4927680000000 1.0
C      1  0.3947960000000  0.5403150000000  0.4940940000000 1.0
C      1  0.4910850000000  0.4299730000000  0.4089700000000 1.0
C      1  0.4818770000000  0.4860630000000  0.5380090000000 1.0
C      1  0.4669540000000  0.4392630000000  0.4173480000000 1.0
C      1  0.3981020000000  0.4657070000000  0.5022960000000 1.0
C      1  0.5087250000000  0.4551340000000  0.5785250000000 1.0
C      1  0.4699990000000  0.5074260000000  0.5209270000000 1.0
C      1  0.5986660000000  0.5056590000000  0.4441170000000 1.0
C      1  0.4969650000000  0.4205290000000  0.5284430000000 1.0
C      1  0.5846370000000  0.5445280000000  0.5177620000000 1.0
C      1  0.4757360000000  0.4261940000000  0.5504290000000 1.0
C      1  0.5183170000000  0.5470220000000  0.5251960000000 1.0
C      1  0.5126830000000  0.5023740000000  0.4210090000000 1.0
C      1  0.5026490000000  0.5264870000000  0.4567020000000 1.0
C      1  0.4825880000000  0.5366320000000  0.5916830000000 1.0
C      1  0.5373420000000  0.5252780000000  0.5793760000000 1.0
C      1  0.4628500000000  0.4649050000000  0.4988990000000 1.0
C      1  0.4298840000000  0.5530240000000  0.4399620000000 1.0
C      1  0.4828470000000  0.4413880000000  0.5745700000000 1.0
C      1  0.4040570000000  0.4849510000000  0.4789920000000 1.0
C      1  0.3974360000000  0.5564600000000  0.5180970000000 1.0
C      1  0.5225520000000  0.4714570000000  0.5565510000000 1.0
C      1  0.5951940000000  0.4760210000000  0.4484640000000 1.0
C      1  0.5954710000000  0.5161950000000  0.5178680000000 1.0
C      1  0.4695890000000  0.4127720000000  0.4692510000000 1.0
C      1  0.5483990000000  0.4822960000000  0.5174160000000 1.0
C      1  0.5775270000000  0.4665820000000  0.5217440000000 1.0
C      1  0.5201540000000  0.5177650000000  0.5334660000000 1.0
C      1  0.4164830000000  0.5864330000000  0.5354950000000 1.0
C      1  0.5597390000000  0.4395870000000  0.5578770000000 1.0
C      1  0.5057060000000  0.3901270000000  0.5236010000000 1.0
C      1  0.5041760000000  0.4755490000000  0.4126430000000 1.0
C      1  0.5390250000000  0.4217720000000  0.5429430000000 1.0
C      1  0.5052940000000  0.4982270000000  0.5528830000000 1.0
C      1  0.3880450000000  0.4843240000000  0.5228350000000 1.0
C      1  0.6015340000000  0.4691830000000  0.4765540000000 1.0
C      1  0.4018880000000  0.5098590000000  0.4988980000000 1.0
C      1  0.4649580000000  0.4636410000000  0.5818140000000 1.0
C      1  0.4291320000000  0.5284040000000  0.4556730000000 1.0
C      1  0.5578140000000  0.4435500000000  0.4798550000000 1.0
C      1  0.4513940000000  0.4931580000000  0.5017020000000 1.0
C      1  0.5672450000000  0.5387930000000  0.4304820000000 1.0
C      1  0.4686450000000  0.5294010000000  0.4200690000000 1.0
C      1  0.5536850000000  0.4141280000000  0.5189170000000 1.0
C      1  0.5464270000000  0.5790360000000  0.4510310000000 1.0
C      1  0.4555630000000  0.5028680000000  0.4246960000000 1.0
C      1  0.4210800000000  0.5700840000000  0.5140430000000 1.0
C      1  0.4253270000000  0.5784440000000  0.4869860000000 1.0
C      1  0.4306850000000  0.4692240000000  0.5407810000000 1.0
C      1  0.6206400000000  0.4852020000000  0.4896880000000 1.0
END
