TITL C-951345-2650-620 -9.33337942447805e-07 125000 -1098.42658882755 0 0 175 (C1) n - 1
REM
REM in /home/bkarasulu/work/CARBON/AIRSS/Generating-Clusters/EDIP-Nigel-Params/with-SteepDescent/Only-C1/SD-CG/HFTN-CG
REM
REM
REM
REM
REM
REM ./C.cell (11c1c37f851c82e70ff6c80c92926a4b)
REM
REM compiler GCC version 9.2.1 20190827 (Red Hat 9.2.1-1)
REM options -cpp -mtune=generic -march=x86-64 -g -O0 -fpre-include=/usr/include/finclude/math-vector-fortran.h
REM seed -65586390 -1035138237 859870280 -1843818570 -1724728847 -1922218768 954710319 166648077 -1142168505 131893358 624359007 -363297618 1263443384 353836141 -1777977234 -1004096544 -1856475781 -1221998292 704828874 -645184217 1928712815 735468008 507776483 777135847 -474187949 600030694 -722340671 -1394090063 -1490731251 -1090670059 -166815696 -664511662 -1834984629
REM
CELL 1.54180   50.00000   50.00000   50.00000   90.00000   90.00000   90.00000
LATT -1
SFAC C  
C      1  0.4807720000000  0.4818780000000  0.4800390000000 1.0
C      1  0.4866800000000  0.5110290000000  0.4801860000000 1.0
C      1  0.4403850000000  0.5582320000000  0.5869910000000 1.0
C      1  0.5733940000000  0.5291420000000  0.5707070000000 1.0
C      1  0.5108540000000  0.4685230000000  0.4149050000000 1.0
C      1  0.5680580000000  0.5559480000000  0.4293750000000 1.0
C      1  0.6012690000000  0.5455790000000  0.4652670000000 1.0
C      1  0.5033230000000  0.4733630000000  0.5244680000000 1.0
C      1  0.4440530000000  0.6111670000000  0.4857540000000 1.0
C      1  0.5566940000000  0.4006910000000  0.5023260000000 1.0
C      1  0.5060580000000  0.5493100000000  0.4452400000000 1.0
C      1  0.5182180000000  0.5171310000000  0.5900120000000 1.0
C      1  0.4889140000000  0.4654360000000  0.5998400000000 1.0
C      1  0.4537190000000  0.5760570000000  0.5487070000000 1.0
C      1  0.4878520000000  0.4172750000000  0.5373230000000 1.0
C      1  0.4580240000000  0.4284100000000  0.4521280000000 1.0
C      1  0.4290510000000  0.4441920000000  0.5426260000000 1.0
C      1  0.4099800000000  0.5520280000000  0.5457980000000 1.0
C      1  0.4516380000000  0.5964160000000  0.4621630000000 1.0
C      1  0.4880320000000  0.4505920000000  0.4048630000000 1.0
C      1  0.4002780000000  0.5263680000000  0.5551500000000 1.0
C      1  0.4615090000000  0.4072910000000  0.4989300000000 1.0
C      1  0.4520520000000  0.4865600000000  0.5325760000000 1.0
C      1  0.5542160000000  0.5510250000000  0.5650710000000 1.0
C      1  0.5045170000000  0.4463690000000  0.4570420000000 1.0
C      1  0.5601910000000  0.5166310000000  0.4057020000000 1.0
C      1  0.4806580000000  0.5122930000000  0.3972760000000 1.0
C      1  0.5634180000000  0.4211560000000  0.5408180000000 1.0
C      1  0.5323490000000  0.5867260000000  0.5318340000000 1.0
C      1  0.4605300000000  0.4574550000000  0.5962310000000 1.0
C      1  0.4390100000000  0.4758870000000  0.4550680000000 1.0
C      1  0.4316170000000  0.5972140000000  0.5097750000000 1.0
C      1  0.5469370000000  0.4263400000000  0.4147200000000 1.0
C      1  0.5129570000000  0.3990610000000  0.5892980000000 1.0
C      1  0.5464760000000  0.4402650000000  0.5553730000000 1.0
C      1  0.6024990000000  0.4983390000000  0.4899710000000 1.0
C      1  0.4669370000000  0.5699550000000  0.5903940000000 1.0
C      1  0.5772820000000  0.4240240000000  0.5041650000000 1.0
C      1  0.5345280000000  0.4053070000000  0.4841450000000 1.0
C      1  0.5596800000000  0.5032020000000  0.5733720000000 1.0
C      1  0.4622630000000  0.5501790000000  0.5345640000000 1.0
C      1  0.4914310000000  0.5546550000000  0.5254750000000 1.0
C      1  0.4273150000000  0.5706200000000  0.5625090000000 1.0
C      1  0.5691570000000  0.5592840000000  0.5163390000000 1.0
C      1  0.5533460000000  0.5937420000000  0.4577340000000 1.0
C      1  0.5531300000000  0.4956830000000  0.5269180000000 1.0
C      1  0.4519110000000  0.5030510000000  0.4417570000000 1.0
C      1  0.5263200000000  0.5433760000000  0.5757790000000 1.0
C      1  0.4621820000000  0.4634550000000  0.4128120000000 1.0
C      1  0.4353630000000  0.5219240000000  0.4982080000000 1.0
C      1  0.5071790000000  0.5935170000000  0.4840430000000 1.0
C      1  0.5847460000000  0.5115280000000  0.4259640000000 1.0
C      1  0.4690550000000  0.6171660000000  0.4985160000000 1.0
C      1  0.3998760000000  0.4666950000000  0.4854220000000 1.0
C      1  0.5480100000000  0.3982100000000  0.5304660000000 1.0
C      1  0.5389250000000  0.4573270000000  0.4939330000000 1.0
C      1  0.4875280000000  0.4231190000000  0.4461770000000 1.0
C      1  0.5751020000000  0.4767170000000  0.5323530000000 1.0
C      1  0.4552630000000  0.4572560000000  0.5328450000000 1.0
C      1  0.5223030000000  0.4765100000000  0.5643310000000 1.0
C      1  0.5999880000000  0.4806290000000  0.4659460000000 1.0
C      1  0.5378890000000  0.5014590000000  0.5513280000000 1.0
C      1  0.4230900000000  0.5696460000000  0.5023600000000 1.0
C      1  0.5873650000000  0.4859780000000  0.4397200000000 1.0
C      1  0.4677930000000  0.5214890000000  0.4593610000000 1.0
C      1  0.4233300000000  0.4853500000000  0.5766180000000 1.0
C      1  0.4668820000000  0.5366330000000  0.3962770000000 1.0
C      1  0.4121210000000  0.5331440000000  0.4544790000000 1.0
C      1  0.3986670000000  0.4926340000000  0.4733080000000 1.0
C      1  0.4879810000000  0.5528640000000  0.6012500000000 1.0
C      1  0.4979790000000  0.5854640000000  0.5728570000000 1.0
C      1  0.5357330000000  0.5000000000000  0.3965170000000 1.0
C      1  0.4435520000000  0.4730790000000  0.4875190000000 1.0
C      1  0.5159410000000  0.5123680000000  0.4736590000000 1.0
C      1  0.4611080000000  0.5103070000000  0.5968140000000 1.0
C      1  0.4082830000000  0.5201490000000  0.4834350000000 1.0
C      1  0.4597130000000  0.4048870000000  0.5432850000000 1.0
C      1  0.5144210000000  0.5460530000000  0.4023270000000 1.0
C      1  0.5308800000000  0.5948410000000  0.5020550000000 1.0
C      1  0.4793270000000  0.4478560000000  0.5516520000000 1.0
C      1  0.4004480000000  0.5573100000000  0.5183000000000 1.0
C      1  0.4174160000000  0.4263730000000  0.4882850000000 1.0
C      1  0.4697320000000  0.4930960000000  0.4183420000000 1.0
C      1  0.5264460000000  0.4528470000000  0.4363600000000 1.0
C      1  0.4946680000000  0.5009150000000  0.5340440000000 1.0
C      1  0.4892070000000  0.5841200000000  0.5241360000000 1.0
C      1  0.5399220000000  0.4717290000000  0.3908440000000 1.0
C      1  0.4795110000000  0.5623240000000  0.4378440000000 1.0
C      1  0.5781910000000  0.4200340000000  0.4541040000000 1.0
C      1  0.5951410000000  0.5358900000000  0.5139130000000 1.0
C      1  0.4706540000000  0.4995390000000  0.5506450000000 1.0
C      1  0.4959790000000  0.4890100000000  0.4327040000000 1.0
C      1  0.5409530000000  0.4824700000000  0.4770880000000 1.0
C      1  0.4124160000000  0.4676270000000  0.5555680000000 1.0
C      1  0.5104370000000  0.5166630000000  0.3981500000000 1.0
C      1  0.5567950000000  0.5710760000000  0.5417530000000 1.0
C      1  0.4476610000000  0.4522690000000  0.4374930000000 1.0
C      1  0.5597300000000  0.4557040000000  0.5773290000000 1.0
C      1  0.4753640000000  0.5920380000000  0.4456960000000 1.0
C      1  0.5065500000000  0.3991390000000  0.4890250000000 1.0
C      1  0.4910220000000  0.4742430000000  0.5690250000000 1.0
C      1  0.5119870000000  0.4426850000000  0.4872200000000 1.0
C      1  0.5774600000000  0.5794210000000  0.4960380000000 1.0
C      1  0.6074260000000  0.5280580000000  0.4877250000000 1.0
C      1  0.4417490000000  0.4222890000000  0.5607620000000 1.0
C      1  0.5580540000000  0.4535680000000  0.4057460000000 1.0
C      1  0.5755910000000  0.4776770000000  0.5642630000000 1.0
C      1  0.4178010000000  0.5142970000000  0.5752580000000 1.0
C      1  0.5433520000000  0.5412500000000  0.5064140000000 1.0
C      1  0.4910470000000  0.4611210000000  0.5005250000000 1.0
C      1  0.5107610000000  0.5650490000000  0.5882070000000 1.0
C      1  0.4987640000000  0.3981710000000  0.4593550000000 1.0
C      1  0.6018990000000  0.4543040000000  0.4736400000000 1.0
C      1  0.4892900000000  0.4712730000000  0.4551960000000 1.0
C      1  0.4023030000000  0.4427720000000  0.4702930000000 1.0
C      1  0.3901600000000  0.5303770000000  0.5076180000000 1.0
C      1  0.4471410000000  0.3959220000000  0.5200390000000 1.0
C      1  0.5427240000000  0.5063930000000  0.4390060000000 1.0
C      1  0.4540280000000  0.5995110000000  0.5298670000000 1.0
C      1  0.4181710000000  0.5722900000000  0.4740990000000 1.0
C      1  0.5557070000000  0.5957510000000  0.4866300000000 1.0
C      1  0.5368420000000  0.4694960000000  0.5920520000000 1.0
C      1  0.4112430000000  0.4364080000000  0.5170690000000 1.0
C      1  0.3907410000000  0.5105300000000  0.5321790000000 1.0
C      1  0.4468110000000  0.5497210000000  0.5060730000000 1.0
C      1  0.5495230000000  0.5652600000000  0.4498480000000 1.0
C      1  0.5216820000000  0.5972450000000  0.4375380000000 1.0
C      1  0.4929680000000  0.4237740000000  0.4162280000000 1.0
C      1  0.5533210000000  0.4183590000000  0.4422080000000 1.0
C      1  0.5978450000000  0.5252430000000  0.5587050000000 1.0
C      1  0.5199640000000  0.3959430000000  0.5375360000000 1.0
C      1  0.3955610000000  0.4613730000000  0.5129460000000 1.0
C      1  0.5256790000000  0.5677020000000  0.4332020000000 1.0
C      1  0.4817490000000  0.5898690000000  0.4963280000000 1.0
C      1  0.6008280000000  0.4901820000000  0.5205350000000 1.0
C      1  0.4644740000000  0.4354410000000  0.5753630000000 1.0
C      1  0.5899300000000  0.4298610000000  0.4771410000000 1.0
C      1  0.5612350000000  0.4504070000000  0.5156540000000 1.0
C      1  0.4895610000000  0.5225810000000  0.6013660000000 1.0
C      1  0.5147780000000  0.5201060000000  0.5465150000000 1.0
C      1  0.5123370000000  0.4189530000000  0.6067990000000 1.0
C      1  0.5578060000000  0.5225970000000  0.4608340000000 1.0
C      1  0.5124900000000  0.5977320000000  0.5510020000000 1.0
C      1  0.5413750000000  0.4992230000000  0.5975030000000 1.0
C      1  0.4438410000000  0.5290210000000  0.5797610000000 1.0
C      1  0.4463570000000  0.4235910000000  0.4802350000000 1.0
C      1  0.6061800000000  0.5172050000000  0.5336250000000 1.0
C      1  0.4508030000000  0.4833050000000  0.5863420000000 1.0
C      1  0.5521720000000  0.5452400000000  0.4070870000000 1.0
C      1  0.4299530000000  0.5563030000000  0.4541550000000 1.0
C      1  0.5129400000000  0.5157640000000  0.4427250000000 1.0
C      1  0.5183290000000  0.5408760000000  0.5258750000000 1.0
C      1  0.5010030000000  0.6028570000000  0.4565990000000 1.0
C      1  0.5455210000000  0.4753660000000  0.4471340000000 1.0
C      1  0.4108180000000  0.4870510000000  0.4473920000000 1.0
C      1  0.5049080000000  0.4444990000000  0.6091030000000 1.0
C      1  0.5198450000000  0.4199230000000  0.4092070000000 1.0
C      1  0.5353710000000  0.4007250000000  0.4555210000000 1.0
C      1  0.5814630000000  0.5345940000000  0.4449960000000 1.0
C      1  0.4611510000000  0.4510440000000  0.5037090000000 1.0
C      1  0.3990900000000  0.4815700000000  0.5333180000000 1.0
C      1  0.5647280000000  0.5020080000000  0.4819370000000 1.0
C      1  0.5353870000000  0.5400780000000  0.4765160000000 1.0
C      1  0.5617450000000  0.5164250000000  0.5084850000000 1.0
C      1  0.5258140000000  0.4572330000000  0.5413860000000 1.0
C      1  0.4599440000000  0.5273110000000  0.5545290000000 1.0
C      1  0.4887450000000  0.4170520000000  0.5055440000000 1.0
C      1  0.4845770000000  0.5553280000000  0.4073060000000 1.0
C      1  0.4599880000000  0.5501520000000  0.4588410000000 1.0
C      1  0.5763110000000  0.4635320000000  0.4261390000000 1.0
C      1  0.4663160000000  0.5619360000000  0.4861550000000 1.0
C      1  0.4222360000000  0.5124770000000  0.4358160000000 1.0
C      1  0.5949850000000  0.5706940000000  0.4760020000000 1.0
C      1  0.4480170000000  0.4967920000000  0.5053560000000 1.0
C      1  0.5120050000000  0.3927370000000  0.5634850000000 1.0
END
