TITL C-950532-2784-403 -1.61642995881049e-06 125000 -1019.42864007204 0 0 161 (C1) n - 1
REM
REM in /home/bkarasulu/work/CARBON/AIRSS/Generating-Clusters/EDIP-Nigel-Params/with-SteepDescent/Only-C1/SD-CG/HFTN-CG
REM
REM
REM
REM
REM
REM ./C.cell (11c1c37f851c82e70ff6c80c92926a4b)
REM
REM compiler GCC version 9.2.1 20190827 (Red Hat 9.2.1-1)
REM options -cpp -mtune=generic -march=x86-64 -g -O0 -fpre-include=/usr/include/finclude/math-vector-fortran.h
REM seed -1248175305 -1956956557 -1153623144 1374997941 1269156744 -788456964 1397120352 926864226 -722615023 -1947811573 -1332298884 1955773339 -1017791044 407580995 1976727846 2026846645 2087293461 -356018155 -57069395 1339985029 1230385699 -1632009290 -2084598222 25726696 506529691 -1195886235 -1819626936 1615043762 294461183 -1247132297 409839886 153184227 1439929964
REM
CELL 1.54180   50.00000   50.00000   50.00000   90.00000   90.00000   90.00000
LATT -1
SFAC C  
C      1  0.4544860000000  0.5936980000000  0.4623070000000 1.0
C      1  0.5171450000000  0.4755940000000  0.5349640000000 1.0
C      1  0.5664510000000  0.4687810000000  0.4190650000000 1.0
C      1  0.5757450000000  0.5158420000000  0.4247760000000 1.0
C      1  0.5095250000000  0.5024930000000  0.4878280000000 1.0
C      1  0.4928920000000  0.4106220000000  0.4399170000000 1.0
C      1  0.5139390000000  0.3968700000000  0.4518490000000 1.0
C      1  0.4892590000000  0.4731860000000  0.5227040000000 1.0
C      1  0.4167170000000  0.4822540000000  0.5769710000000 1.0
C      1  0.5313440000000  0.5663830000000  0.5877260000000 1.0
C      1  0.5381940000000  0.4753750000000  0.5131820000000 1.0
C      1  0.4380810000000  0.4655920000000  0.5377820000000 1.0
C      1  0.4222130000000  0.5654100000000  0.4813770000000 1.0
C      1  0.5423130000000  0.6036310000000  0.4926730000000 1.0
C      1  0.4688740000000  0.4113170000000  0.4559680000000 1.0
C      1  0.4682050000000  0.5156670000000  0.5520220000000 1.0
C      1  0.4924610000000  0.5474940000000  0.4810510000000 1.0
C      1  0.4345270000000  0.5917090000000  0.4847050000000 1.0
C      1  0.5193030000000  0.5901530000000  0.5796350000000 1.0
C      1  0.6097680000000  0.5387200000000  0.4967780000000 1.0
C      1  0.5380000000000  0.4517870000000  0.4915190000000 1.0
C      1  0.5217660000000  0.4644820000000  0.3971490000000 1.0
C      1  0.4418460000000  0.4856010000000  0.3909640000000 1.0
C      1  0.5285200000000  0.4099880000000  0.5232500000000 1.0
C      1  0.5829980000000  0.4884140000000  0.4337180000000 1.0
C      1  0.4222790000000  0.5002340000000  0.4565700000000 1.0
C      1  0.5870800000000  0.5044570000000  0.5391220000000 1.0
C      1  0.4987650000000  0.4912030000000  0.4295870000000 1.0
C      1  0.4895560000000  0.5205180000000  0.4315840000000 1.0
C      1  0.4588980000000  0.5184900000000  0.4215800000000 1.0
C      1  0.4446490000000  0.5488420000000  0.4890820000000 1.0
C      1  0.5860270000000  0.5312880000000  0.5522840000000 1.0
C      1  0.5964790000000  0.5589050000000  0.5418310000000 1.0
C      1  0.4742960000000  0.4388970000000  0.5628690000000 1.0
C      1  0.5914570000000  0.4519030000000  0.4675230000000 1.0
C      1  0.5435680000000  0.4832440000000  0.4049460000000 1.0
C      1  0.5009640000000  0.5864180000000  0.4476260000000 1.0
C      1  0.4502020000000  0.4477390000000  0.4205950000000 1.0
C      1  0.5172730000000  0.4493360000000  0.5479670000000 1.0
C      1  0.5777430000000  0.4825910000000  0.5564740000000 1.0
C      1  0.5379190000000  0.4390060000000  0.5665050000000 1.0
C      1  0.5470960000000  0.5856190000000  0.4692520000000 1.0
C      1  0.5055270000000  0.5251680000000  0.4667100000000 1.0
C      1  0.5584720000000  0.5608520000000  0.5793410000000 1.0
C      1  0.4646310000000  0.4571300000000  0.4631180000000 1.0
C      1  0.5566230000000  0.4945100000000  0.4748760000000 1.0
C      1  0.5183340000000  0.5869740000000  0.5340550000000 1.0
C      1  0.5000590000000  0.3852630000000  0.5257270000000 1.0
C      1  0.4264170000000  0.5269820000000  0.5554950000000 1.0
C      1  0.5163030000000  0.6012900000000  0.5069210000000 1.0
C      1  0.5315200000000  0.5321040000000  0.4560030000000 1.0
C      1  0.5356070000000  0.5512170000000  0.4333240000000 1.0
C      1  0.4583620000000  0.5040410000000  0.4963250000000 1.0
C      1  0.4828010000000  0.5567100000000  0.5553450000000 1.0
C      1  0.5958300000000  0.4796320000000  0.4599560000000 1.0
C      1  0.4713310000000  0.4890120000000  0.5655910000000 1.0
C      1  0.5121300000000  0.6034340000000  0.5572040000000 1.0
C      1  0.4485120000000  0.3991460000000  0.5294420000000 1.0
C      1  0.4073780000000  0.5236510000000  0.5048800000000 1.0
C      1  0.4691500000000  0.4664720000000  0.5464860000000 1.0
C      1  0.4316010000000  0.4179440000000  0.5424770000000 1.0
C      1  0.5674180000000  0.4208680000000  0.5000030000000 1.0
C      1  0.5466640000000  0.4542790000000  0.4379130000000 1.0
C      1  0.4432320000000  0.5388690000000  0.5328730000000 1.0
C      1  0.5776080000000  0.5457870000000  0.4611440000000 1.0
C      1  0.4467450000000  0.5914530000000  0.5125150000000 1.0
C      1  0.4903610000000  0.6075530000000  0.4952440000000 1.0
C      1  0.5539540000000  0.5117810000000  0.5883480000000 1.0
C      1  0.5846820000000  0.6099780000000  0.5285660000000 1.0
C      1  0.4446080000000  0.4785900000000  0.4966930000000 1.0
C      1  0.4440690000000  0.4945240000000  0.4370460000000 1.0
C      1  0.5569080000000  0.4160230000000  0.5269040000000 1.0
C      1  0.4982800000000  0.4926730000000  0.5776570000000 1.0
C      1  0.4364840000000  0.4739140000000  0.4160750000000 1.0
C      1  0.5720210000000  0.5713390000000  0.4728190000000 1.0
C      1  0.4981980000000  0.4351380000000  0.4257770000000 1.0
C      1  0.5969280000000  0.5276930000000  0.4746390000000 1.0
C      1  0.4831540000000  0.5982850000000  0.4684300000000 1.0
C      1  0.5448750000000  0.4148530000000  0.4825080000000 1.0
C      1  0.4601680000000  0.4539150000000  0.4914310000000 1.0
C      1  0.3978490000000  0.4513960000000  0.5210970000000 1.0
C      1  0.4881590000000  0.5406260000000  0.6004990000000 1.0
C      1  0.5571610000000  0.4855310000000  0.5765920000000 1.0
C      1  0.4049040000000  0.5217690000000  0.4479620000000 1.0
C      1  0.4817890000000  0.4814740000000  0.4553250000000 1.0
C      1  0.5666430000000  0.5781790000000  0.5569170000000 1.0
C      1  0.5468800000000  0.5083370000000  0.4494640000000 1.0
C      1  0.4861780000000  0.5127770000000  0.6075280000000 1.0
C      1  0.4959900000000  0.5472640000000  0.5097290000000 1.0
C      1  0.3829340000000  0.5296640000000  0.4634650000000 1.0
C      1  0.4642750000000  0.5096630000000  0.4663930000000 1.0
C      1  0.4937910000000  0.5185620000000  0.5357580000000 1.0
C      1  0.3879370000000  0.4481880000000  0.4950760000000 1.0
C      1  0.4167970000000  0.5399320000000  0.4306230000000 1.0
C      1  0.4867200000000  0.4998770000000  0.3853580000000 1.0
C      1  0.5789100000000  0.4579940000000  0.5419130000000 1.0
C      1  0.4692580000000  0.5494480000000  0.5793410000000 1.0
C      1  0.4926870000000  0.5613620000000  0.4057730000000 1.0
C      1  0.4183950000000  0.4820760000000  0.4812480000000 1.0
C      1  0.5024540000000  0.3984030000000  0.5617870000000 1.0
C      1  0.4146470000000  0.4986730000000  0.5536350000000 1.0
C      1  0.5001910000000  0.5621920000000  0.5338970000000 1.0
C      1  0.4380530000000  0.4304470000000  0.5683140000000 1.0
C      1  0.5065610000000  0.5374270000000  0.4121590000000 1.0
C      1  0.4448450000000  0.5327210000000  0.5777110000000 1.0
C      1  0.4693100000000  0.6078890000000  0.5135870000000 1.0
C      1  0.5476650000000  0.5802470000000  0.5343750000000 1.0
C      1  0.4390120000000  0.4324460000000  0.4962370000000 1.0
C      1  0.5987190000000  0.5586460000000  0.5123210000000 1.0
C      1  0.4650670000000  0.5431850000000  0.4686200000000 1.0
C      1  0.5054770000000  0.4788470000000  0.4716160000000 1.0
C      1  0.5104430000000  0.5019900000000  0.6188500000000 1.0
C      1  0.4593330000000  0.5076380000000  0.3929590000000 1.0
C      1  0.5057140000000  0.5206880000000  0.3886690000000 1.0
C      1  0.5793390000000  0.5745640000000  0.4995500000000 1.0
C      1  0.5123010000000  0.4737230000000  0.6200190000000 1.0
C      1  0.4498260000000  0.4354890000000  0.4498860000000 1.0
C      1  0.5167840000000  0.5433400000000  0.5961290000000 1.0
C      1  0.5638710000000  0.5945690000000  0.5137220000000 1.0
C      1  0.4054330000000  0.4550570000000  0.4740590000000 1.0
C      1  0.5250220000000  0.4428420000000  0.4178220000000 1.0
C      1  0.5060690000000  0.4299310000000  0.5288020000000 1.0
C      1  0.4376130000000  0.5268230000000  0.5063710000000 1.0
C      1  0.5627980000000  0.4344700000000  0.5491190000000 1.0
C      1  0.5226170000000  0.3959110000000  0.4783440000000 1.0
C      1  0.4869180000000  0.5012460000000  0.5100300000000 1.0
C      1  0.4508980000000  0.4063840000000  0.5020930000000 1.0
C      1  0.4435870000000  0.5680630000000  0.5291570000000 1.0
C      1  0.4894160000000  0.4491330000000  0.5043420000000 1.0
C      1  0.5668630000000  0.5337260000000  0.5741990000000 1.0
C      1  0.5880610000000  0.4996750000000  0.4816750000000 1.0
C      1  0.5551270000000  0.4636890000000  0.4684310000000 1.0
C      1  0.4030730000000  0.4815960000000  0.5279250000000 1.0
C      1  0.4852680000000  0.4158440000000  0.5450020000000 1.0
C      1  0.5136290000000  0.5010740000000  0.5519790000000 1.0
C      1  0.5096060000000  0.4529610000000  0.4830630000000 1.0
C      1  0.3937790000000  0.5415010000000  0.4861410000000 1.0
C      1  0.4781720000000  0.4500400000000  0.4107110000000 1.0
C      1  0.5915160000000  0.4624990000000  0.5162930000000 1.0
C      1  0.5401020000000  0.4628640000000  0.5838300000000 1.0
C      1  0.5379340000000  0.5000870000000  0.4978000000000 1.0
C      1  0.4588930000000  0.5625730000000  0.4440010000000 1.0
C      1  0.5846030000000  0.4445210000000  0.4945900000000 1.0
C      1  0.4726620000000  0.4006880000000  0.4839220000000 1.0
C      1  0.4937870000000  0.4759990000000  0.4031470000000 1.0
C      1  0.4295480000000  0.4590400000000  0.5661580000000 1.0
C      1  0.5926780000000  0.5916760000000  0.5493540000000 1.0
C      1  0.5949730000000  0.4915950000000  0.5119120000000 1.0
C      1  0.4258010000000  0.4405620000000  0.5235250000000 1.0
C      1  0.5156390000000  0.4182530000000  0.5795400000000 1.0
C      1  0.5303150000000  0.5190990000000  0.6046110000000 1.0
C      1  0.5298350000000  0.4890620000000  0.4331730000000 1.0
C      1  0.5680710000000  0.5426630000000  0.4335470000000 1.0
C      1  0.5110510000000  0.4668890000000  0.5917480000000 1.0
C      1  0.4436270000000  0.5443950000000  0.4251770000000 1.0
C      1  0.5295800000000  0.5786630000000  0.4466440000000 1.0
C      1  0.4243370000000  0.4327070000000  0.4690210000000 1.0
C      1  0.4984950000000  0.3927250000000  0.4959950000000 1.0
C      1  0.4954930000000  0.4405000000000  0.5855930000000 1.0
C      1  0.4838870000000  0.5712000000000  0.4301470000000 1.0
C      1  0.4005790000000  0.4957310000000  0.5017680000000 1.0
END
