TITL C-951333-8791-550 -8.4711077106254e-07 125000 -1093.7865494385 0 0 175 (C1) n - 1
REM
REM in /home/bkarasulu/work/CARBON/AIRSS/Generating-Clusters/EDIP-Nigel-Params/with-SteepDescent/Only-C1/SD-CG/HFTN-CG
REM
REM
REM
REM
REM
REM ./C.cell (11c1c37f851c82e70ff6c80c92926a4b)
REM
REM compiler GCC version 9.2.1 20190827 (Red Hat 9.2.1-1)
REM options -cpp -mtune=generic -march=x86-64 -g -O0 -fpre-include=/usr/include/finclude/math-vector-fortran.h
REM seed 497451832 -497858150 335262845 -399177713 1740381882 -853889331 -304953448 -1876765189 -1599468166 -1527450855 628327675 -945383645 1240882978 -202422143 471383073 1878658510 -2000433283 -1382008392 563743435 -78677520 -1364098408 -1421723326 862579371 -1296775511 -305395715 -1640358350 -191327256 -2131210825 -1616608077 1815064040 -1624171239 -690854883 971528879
REM
CELL 1.54180   50.00000   50.00000   50.00000   90.00000   90.00000   90.00000
LATT -1
SFAC C  
C      1  0.5136550000000  0.4998420000000  0.4228920000000 1.0
C      1  0.4707980000000  0.4981250000000  0.5994140000000 1.0
C      1  0.4788970000000  0.4674840000000  0.4259900000000 1.0
C      1  0.4404710000000  0.5397590000000  0.5580510000000 1.0
C      1  0.4856470000000  0.4545110000000  0.5807630000000 1.0
C      1  0.5247910000000  0.4234120000000  0.4531400000000 1.0
C      1  0.4199970000000  0.5600000000000  0.4927830000000 1.0
C      1  0.4659690000000  0.5261380000000  0.5165540000000 1.0
C      1  0.5162540000000  0.4818780000000  0.6077310000000 1.0
C      1  0.5438670000000  0.5150080000000  0.5117820000000 1.0
C      1  0.4801690000000  0.4680380000000  0.5251790000000 1.0
C      1  0.6037910000000  0.5366150000000  0.4943950000000 1.0
C      1  0.4972910000000  0.4365470000000  0.4618500000000 1.0
C      1  0.5064900000000  0.5626980000000  0.5867560000000 1.0
C      1  0.5095640000000  0.4383960000000  0.5707700000000 1.0
C      1  0.3889060000000  0.5252400000000  0.4819420000000 1.0
C      1  0.5981920000000  0.5205590000000  0.4459620000000 1.0
C      1  0.6057020000000  0.4680100000000  0.4973440000000 1.0
C      1  0.4068410000000  0.4795430000000  0.4819330000000 1.0
C      1  0.5679840000000  0.4785260000000  0.4339840000000 1.0
C      1  0.5579170000000  0.4780650000000  0.5731280000000 1.0
C      1  0.4150330000000  0.5803730000000  0.4456180000000 1.0
C      1  0.5135650000000  0.4384040000000  0.5413260000000 1.0
C      1  0.5412300000000  0.4699280000000  0.4502820000000 1.0
C      1  0.4408070000000  0.4811690000000  0.4220880000000 1.0
C      1  0.5572380000000  0.5934710000000  0.4955080000000 1.0
C      1  0.3961260000000  0.4926030000000  0.5587680000000 1.0
C      1  0.5481410000000  0.4284280000000  0.5872490000000 1.0
C      1  0.4526490000000  0.4098420000000  0.5110380000000 1.0
C      1  0.4625930000000  0.5562750000000  0.5183860000000 1.0
C      1  0.5011510000000  0.5428690000000  0.6074160000000 1.0
C      1  0.6009200000000  0.5423230000000  0.4655150000000 1.0
C      1  0.5402980000000  0.5392860000000  0.4729320000000 1.0
C      1  0.5371420000000  0.5120750000000  0.4357680000000 1.0
C      1  0.4039020000000  0.5197540000000  0.5714210000000 1.0
C      1  0.4525900000000  0.4272910000000  0.5564060000000 1.0
C      1  0.4581900000000  0.4513740000000  0.5713830000000 1.0
C      1  0.4092110000000  0.4674830000000  0.5690090000000 1.0
C      1  0.5275820000000  0.4732490000000  0.5057500000000 1.0
C      1  0.5451520000000  0.5743460000000  0.5160800000000 1.0
C      1  0.5063880000000  0.4989040000000  0.5526470000000 1.0
C      1  0.4985480000000  0.5658140000000  0.4897000000000 1.0
C      1  0.5771730000000  0.4118140000000  0.5452380000000 1.0
C      1  0.5299520000000  0.4871130000000  0.4763660000000 1.0
C      1  0.4496300000000  0.5993210000000  0.4980280000000 1.0
C      1  0.4696580000000  0.4933780000000  0.3988480000000 1.0
C      1  0.4459900000000  0.5699530000000  0.4985640000000 1.0
C      1  0.3704570000000  0.4918890000000  0.5040150000000 1.0
C      1  0.4539080000000  0.4276680000000  0.4389220000000 1.0
C      1  0.4040320000000  0.5233280000000  0.5239370000000 1.0
C      1  0.4940220000000  0.5146880000000  0.5091410000000 1.0
C      1  0.5548930000000  0.5127600000000  0.5396530000000 1.0
C      1  0.4625570000000  0.4430820000000  0.4159280000000 1.0
C      1  0.5019120000000  0.4889340000000  0.5235620000000 1.0
C      1  0.4795590000000  0.5263020000000  0.5983710000000 1.0
C      1  0.4046920000000  0.4442970000000  0.5499700000000 1.0
C      1  0.4760370000000  0.4168510000000  0.4542060000000 1.0
C      1  0.5179070000000  0.5406350000000  0.5397780000000 1.0
C      1  0.4528170000000  0.5568270000000  0.4231540000000 1.0
C      1  0.5006490000000  0.4905720000000  0.4675520000000 1.0
C      1  0.5998650000000  0.4994730000000  0.5014800000000 1.0
C      1  0.5266260000000  0.5549070000000  0.4955960000000 1.0
C      1  0.5624670000000  0.5504680000000  0.4182260000000 1.0
C      1  0.5832370000000  0.5652470000000  0.4617810000000 1.0
C      1  0.4084460000000  0.5711690000000  0.4700900000000 1.0
C      1  0.5148170000000  0.6126450000000  0.4826810000000 1.0
C      1  0.4055970000000  0.4258700000000  0.5052140000000 1.0
C      1  0.6086160000000  0.4487310000000  0.5187770000000 1.0
C      1  0.5579280000000  0.5028310000000  0.5896300000000 1.0
C      1  0.4853540000000  0.5441650000000  0.4726940000000 1.0
C      1  0.5160340000000  0.5162890000000  0.3971560000000 1.0
C      1  0.4376480000000  0.4608900000000  0.4475430000000 1.0
C      1  0.5654570000000  0.4849440000000  0.5446870000000 1.0
C      1  0.5029050000000  0.4562060000000  0.3903280000000 1.0
C      1  0.4469500000000  0.5166650000000  0.4938690000000 1.0
C      1  0.5193430000000  0.5313170000000  0.5130860000000 1.0
C      1  0.5379090000000  0.4046650000000  0.5754490000000 1.0
C      1  0.4102660000000  0.4951020000000  0.5323900000000 1.0
C      1  0.4423820000000  0.5763920000000  0.4415810000000 1.0
C      1  0.5224340000000  0.4712860000000  0.4265770000000 1.0
C      1  0.5655400000000  0.5328990000000  0.5786680000000 1.0
C      1  0.4951510000000  0.6083430000000  0.5155710000000 1.0
C      1  0.4544520000000  0.5910970000000  0.5440910000000 1.0
C      1  0.5506640000000  0.4022720000000  0.5491130000000 1.0
C      1  0.5250450000000  0.5290240000000  0.6163770000000 1.0
C      1  0.5285480000000  0.5195940000000  0.5564950000000 1.0
C      1  0.6193180000000  0.4903130000000  0.5332810000000 1.0
C      1  0.5315990000000  0.5439400000000  0.4060720000000 1.0
C      1  0.4853740000000  0.4653690000000  0.4572490000000 1.0
C      1  0.5910180000000  0.5600510000000  0.5082000000000 1.0
C      1  0.5103640000000  0.5654270000000  0.4085360000000 1.0
C      1  0.4865600000000  0.4361460000000  0.4020950000000 1.0
C      1  0.4920230000000  0.5082980000000  0.4442290000000 1.0
C      1  0.6023460000000  0.5285330000000  0.5464270000000 1.0
C      1  0.5024070000000  0.4021840000000  0.4929550000000 1.0
C      1  0.4987740000000  0.4333100000000  0.4944810000000 1.0
C      1  0.4493930000000  0.4855070000000  0.4922170000000 1.0
C      1  0.4241180000000  0.4093900000000  0.5221240000000 1.0
C      1  0.4171750000000  0.5308440000000  0.4964580000000 1.0
C      1  0.4903490000000  0.4756680000000  0.5996820000000 1.0
C      1  0.4952030000000  0.5929490000000  0.4749670000000 1.0
C      1  0.5819980000000  0.5792020000000  0.4873840000000 1.0
C      1  0.5884340000000  0.4836990000000  0.4554370000000 1.0
C      1  0.3965780000000  0.4762570000000  0.5116990000000 1.0
C      1  0.5439490000000  0.4257150000000  0.5074750000000 1.0
C      1  0.4618170000000  0.5972550000000  0.4469230000000 1.0
C      1  0.5151870000000  0.5852680000000  0.4300680000000 1.0
C      1  0.4102910000000  0.5397010000000  0.5487670000000 1.0
C      1  0.5099570000000  0.5019910000000  0.3735880000000 1.0
C      1  0.5391250000000  0.6005550000000  0.4728840000000 1.0
C      1  0.5591320000000  0.4441590000000  0.4188100000000 1.0
C      1  0.4493570000000  0.5247730000000  0.4231420000000 1.0
C      1  0.5743250000000  0.4360510000000  0.4662570000000 1.0
C      1  0.4880030000000  0.5708810000000  0.5182650000000 1.0
C      1  0.5299220000000  0.4142710000000  0.5311490000000 1.0
C      1  0.4710680000000  0.4177660000000  0.5347430000000 1.0
C      1  0.5301870000000  0.5402780000000  0.4447270000000 1.0
C      1  0.5341090000000  0.5034340000000  0.6070570000000 1.0
C      1  0.5103090000000  0.3934490000000  0.5218260000000 1.0
C      1  0.5934640000000  0.4588630000000  0.4715370000000 1.0
C      1  0.5767340000000  0.4096350000000  0.4747780000000 1.0
C      1  0.4608690000000  0.6101460000000  0.4735570000000 1.0
C      1  0.4273960000000  0.5062960000000  0.4165460000000 1.0
C      1  0.5270530000000  0.5870710000000  0.5376610000000 1.0
C      1  0.5803630000000  0.5261460000000  0.4223080000000 1.0
C      1  0.4644320000000  0.6072690000000  0.5226280000000 1.0
C      1  0.4401630000000  0.4903380000000  0.5407090000000 1.0
C      1  0.4807810000000  0.5101180000000  0.5635660000000 1.0
C      1  0.5745030000000  0.5350630000000  0.5485770000000 1.0
C      1  0.4918060000000  0.4822010000000  0.3823770000000 1.0
C      1  0.5868300000000  0.4347990000000  0.5316570000000 1.0
C      1  0.4577330000000  0.4635150000000  0.4712900000000 1.0
C      1  0.4427510000000  0.4943060000000  0.5909230000000 1.0
C      1  0.5270390000000  0.4008900000000  0.4729230000000 1.0
C      1  0.6240250000000  0.5176010000000  0.5340390000000 1.0
C      1  0.3835220000000  0.4968770000000  0.4747130000000 1.0
C      1  0.5631610000000  0.5695230000000  0.4406100000000 1.0
C      1  0.5696740000000  0.5588180000000  0.5288230000000 1.0
C      1  0.5353530000000  0.5387550000000  0.5804490000000 1.0
C      1  0.5066310000000  0.4069420000000  0.5719090000000 1.0
C      1  0.5151890000000  0.6123140000000  0.5356210000000 1.0
C      1  0.4823220000000  0.5700170000000  0.5732150000000 1.0
C      1  0.3757070000000  0.5212040000000  0.5108380000000 1.0
C      1  0.4726220000000  0.5225940000000  0.4033020000000 1.0
C      1  0.5062570000000  0.5668890000000  0.5434410000000 1.0
C      1  0.4288050000000  0.5192410000000  0.5874340000000 1.0
C      1  0.4570730000000  0.5164010000000  0.5444990000000 1.0
C      1  0.4727860000000  0.4005800000000  0.4792760000000 1.0
C      1  0.4610730000000  0.5116640000000  0.4469940000000 1.0
C      1  0.4211490000000  0.4327650000000  0.4804650000000 1.0
C      1  0.5387770000000  0.5836150000000  0.4480590000000 1.0
C      1  0.4246530000000  0.4222130000000  0.5489140000000 1.0
C      1  0.5504870000000  0.4401380000000  0.4482230000000 1.0
C      1  0.4124230000000  0.4566170000000  0.4643610000000 1.0
C      1  0.5801150000000  0.5052660000000  0.4768960000000 1.0
C      1  0.5646050000000  0.4445950000000  0.5161120000000 1.0
C      1  0.4595570000000  0.5291930000000  0.4702890000000 1.0
C      1  0.5248650000000  0.4449410000000  0.4959160000000 1.0
C      1  0.3940400000000  0.4480690000000  0.5221790000000 1.0
C      1  0.5527390000000  0.4696730000000  0.5226320000000 1.0
C      1  0.4512290000000  0.4322020000000  0.4864880000000 1.0
C      1  0.4384670000000  0.4747900000000  0.5690000000000 1.0
C      1  0.4905090000000  0.5876290000000  0.4456740000000 1.0
C      1  0.5371850000000  0.4575890000000  0.4052270000000 1.0
C      1  0.5609860000000  0.5043650000000  0.4206550000000 1.0
C      1  0.5416970000000  0.4553010000000  0.5827670000000 1.0
C      1  0.4988360000000  0.5381330000000  0.4467450000000 1.0
C      1  0.5525380000000  0.4041980000000  0.4882450000000 1.0
C      1  0.4523750000000  0.4739740000000  0.5190780000000 1.0
C      1  0.5492780000000  0.5118050000000  0.4825990000000 1.0
C      1  0.4912890000000  0.3965150000000  0.5449160000000 1.0
C      1  0.4855560000000  0.5507830000000  0.4210010000000 1.0
C      1  0.4893220000000  0.4400420000000  0.5241840000000 1.0
C      1  0.5940850000000  0.4834130000000  0.5424030000000 1.0
C      1  0.4561740000000  0.5679050000000  0.5605850000000 1.0
END
