TITL C-951338-5626-620 -1.58031374413058e-06 125000 -326.734145368773 0 0 53 (C1) n - 1
REM
REM in /home/bkarasulu/work/CARBON/AIRSS/Generating-Clusters/EDIP-Nigel-Params/with-SteepDescent/Only-C1/SD-CG/HFTN-CG
REM
REM
REM
REM
REM
REM ./C.cell (11c1c37f851c82e70ff6c80c92926a4b)
REM
REM compiler GCC version 9.2.1 20190827 (Red Hat 9.2.1-1)
REM options -cpp -mtune=generic -march=x86-64 -g -O0 -fpre-include=/usr/include/finclude/math-vector-fortran.h
REM seed 54880632 -1065884812 477344152 -298918820 82174233 -1481400382 1400400107 602332864 -657599331 -510005833 -146846972 500181952 1217826849 -862535484 653204092 -492335574 -456918805 1957066429 2104895601 -938546017 -245301347 -138998013 -1094062050 496603848 -1238745717 -717014738 673262076 -89846259 379870888 1307175378 1352470213 -1325624279 -997481726
REM
CELL 1.54180   50.00000   50.00000   50.00000   90.00000   90.00000   90.00000
LATT -1
SFAC C  
C      1  0.5291480000000  0.4682340000000  0.5502200000000 1.0
C      1  0.5391610000000  0.4430880000000  0.5002840000000 1.0
C      1  0.5386900000000  0.5494260000000  0.4719470000000 1.0
C      1  0.5085960000000  0.5041190000000  0.5803680000000 1.0
C      1  0.5002800000000  0.5164850000000  0.4377720000000 1.0
C      1  0.5349960000000  0.5348680000000  0.5524710000000 1.0
C      1  0.5177150000000  0.4692830000000  0.4354160000000 1.0
C      1  0.5170840000000  0.4571290000000  0.5259560000000 1.0
C      1  0.5383470000000  0.4537780000000  0.4532110000000 1.0
C      1  0.5316110000000  0.5640580000000  0.5129160000000 1.0
C      1  0.5352530000000  0.5202650000000  0.4800460000000 1.0
C      1  0.4573480000000  0.5607410000000  0.5142090000000 1.0
C      1  0.5528640000000  0.4828250000000  0.5449470000000 1.0
C      1  0.4615480000000  0.4915870000000  0.4550980000000 1.0
C      1  0.4592900000000  0.5008500000000  0.5029500000000 1.0
C      1  0.5456250000000  0.5019130000000  0.4593990000000 1.0
C      1  0.4893460000000  0.4717840000000  0.4221900000000 1.0
C      1  0.4428090000000  0.5415150000000  0.5279550000000 1.0
C      1  0.4773660000000  0.4786190000000  0.5482140000000 1.0
C      1  0.5256360000000  0.4366690000000  0.4741970000000 1.0
C      1  0.4854140000000  0.5508600000000  0.5044180000000 1.0
C      1  0.4547820000000  0.4510990000000  0.4844840000000 1.0
C      1  0.4515280000000  0.5111580000000  0.4751770000000 1.0
C      1  0.5056720000000  0.4826320000000  0.5609290000000 1.0
C      1  0.5546810000000  0.4681670000000  0.4970030000000 1.0
C      1  0.5441360000000  0.5164270000000  0.5083200000000 1.0
C      1  0.4968450000000  0.4421680000000  0.4723480000000 1.0
C      1  0.5111000000000  0.5601530000000  0.4697990000000 1.0
C      1  0.4522570000000  0.5597450000000  0.4858350000000 1.0
C      1  0.4838140000000  0.5147690000000  0.5870890000000 1.0
C      1  0.5502150000000  0.4894050000000  0.5173730000000 1.0
C      1  0.4593900000000  0.5164140000000  0.5759660000000 1.0
C      1  0.5247050000000  0.4982270000000  0.4390430000000 1.0
C      1  0.4600450000000  0.4625820000000  0.4577220000000 1.0
C      1  0.4978990000000  0.5290600000000  0.5211110000000 1.0
C      1  0.5057940000000  0.5118010000000  0.4767640000000 1.0
C      1  0.5065840000000  0.5707660000000  0.4975570000000 1.0
C      1  0.5541630000000  0.4746740000000  0.4678960000000 1.0
C      1  0.4626070000000  0.5381620000000  0.4693070000000 1.0
C      1  0.5291830000000  0.5221310000000  0.5753970000000 1.0
C      1  0.4644600000000  0.4573260000000  0.5297770000000 1.0
C      1  0.4846770000000  0.4502560000000  0.4453970000000 1.0
C      1  0.4770690000000  0.4329640000000  0.4921550000000 1.0
C      1  0.5275530000000  0.5358790000000  0.5247750000000 1.0
C      1  0.4772770000000  0.4983100000000  0.4308820000000 1.0
C      1  0.4796750000000  0.4347190000000  0.5206360000000 1.0
C      1  0.4910820000000  0.5048580000000  0.5044150000000 1.0
C      1  0.4597280000000  0.5026980000000  0.5516300000000 1.0
C      1  0.4927680000000  0.5363740000000  0.4630740000000 1.0
C      1  0.4482270000000  0.5142870000000  0.5276550000000 1.0
C      1  0.5003520000000  0.4796340000000  0.5170700000000 1.0
C      1  0.4518200000000  0.4708720000000  0.5065990000000 1.0
C      1  0.5517860000000  0.5641840000000  0.4926350000000 1.0
END
