TITL C-950521-2237-665 5.45318058570814e-07 125000 -273.940676076836 0 0 45 (C1) n - 1
REM
REM in /home/bkarasulu/work/CARBON/AIRSS/Generating-Clusters/EDIP-Nigel-Params/with-SteepDescent/Only-C1/SD-CG/HFTN-CG
REM
REM
REM
REM
REM
REM ./C.cell (11c1c37f851c82e70ff6c80c92926a4b)
REM
REM compiler GCC version 9.2.1 20190827 (Red Hat 9.2.1-1)
REM options -cpp -mtune=generic -march=x86-64 -g -O0 -fpre-include=/usr/include/finclude/math-vector-fortran.h
REM seed 312951185 308344596 -915090456 -69340331 -195500096 1833510100 -1437914741 -1094451769 -2115278013 -451802704 -563031148 515387818 1093708523 1921681802 1882540783 1850651640 -672415852 550058972 -691740395 689942583 1188766274 2001779497 2084165446 387963528 806570816 1156028308 -1352857405 1415740221 776107104 388779068 -183191775 -2022543101 132093232
REM
CELL 1.54180   50.00000   50.00000   50.00000   90.00000   90.00000   90.00000
LATT -1
SFAC C  
C      1  0.4408650000000  0.4768330000000  0.4838770000000 1.0
C      1  0.4991670000000  0.4950240000000  0.5279840000000 1.0
C      1  0.4755140000000  0.5365220000000  0.4521400000000 1.0
C      1  0.5428000000000  0.5661950000000  0.5098810000000 1.0
C      1  0.5447160000000  0.5123210000000  0.5403960000000 1.0
C      1  0.5282090000000  0.5374770000000  0.4719750000000 1.0
C      1  0.5473020000000  0.4658250000000  0.4978200000000 1.0
C      1  0.4870090000000  0.4613520000000  0.4914950000000 1.0
C      1  0.4668840000000  0.5509760000000  0.4756060000000 1.0
C      1  0.5308330000000  0.4901970000000  0.4871790000000 1.0
C      1  0.4537880000000  0.5013300000000  0.4843410000000 1.0
C      1  0.4816700000000  0.5092550000000  0.4858370000000 1.0
C      1  0.4370310000000  0.4691300000000  0.4572900000000 1.0
C      1  0.5218910000000  0.5598740000000  0.4903200000000 1.0
C      1  0.5153430000000  0.5151380000000  0.5441000000000 1.0
C      1  0.5021300000000  0.4585940000000  0.5533320000000 1.0
C      1  0.5452550000000  0.4635110000000  0.5269310000000 1.0
C      1  0.4580170000000  0.4614770000000  0.5028020000000 1.0
C      1  0.5342180000000  0.5591160000000  0.5361890000000 1.0
C      1  0.4904800000000  0.4558950000000  0.4606430000000 1.0
C      1  0.5141320000000  0.5011090000000  0.4410420000000 1.0
C      1  0.5048810000000  0.5095510000000  0.5715090000000 1.0
C      1  0.4578740000000  0.5155220000000  0.4432800000000 1.0
C      1  0.4911120000000  0.4736640000000  0.5736980000000 1.0
C      1  0.5066940000000  0.4427740000000  0.5050650000000 1.0
C      1  0.5302290000000  0.4436590000000  0.4857080000000 1.0
C      1  0.5029590000000  0.5459450000000  0.5074500000000 1.0
C      1  0.5004270000000  0.4891030000000  0.4985110000000 1.0
C      1  0.5299510000000  0.4828650000000  0.4579580000000 1.0
C      1  0.4565570000000  0.4776280000000  0.5262290000000 1.0
C      1  0.5513370000000  0.5301620000000  0.5169620000000 1.0
C      1  0.4655550000000  0.5300070000000  0.5279170000000 1.0
C      1  0.4798630000000  0.5480110000000  0.5455190000000 1.0
C      1  0.4772470000000  0.5360170000000  0.4993280000000 1.0
C      1  0.4544910000000  0.4864920000000  0.4425730000000 1.0
C      1  0.4983070000000  0.4875480000000  0.4221080000000 1.0
C      1  0.5425400000000  0.5181730000000  0.4900810000000 1.0
C      1  0.5203110000000  0.4541980000000  0.4587660000000 1.0
C      1  0.5541650000000  0.4862650000000  0.5402670000000 1.0
C      1  0.5040080000000  0.5242380000000  0.4574900000000 1.0
C      1  0.4774480000000  0.4986920000000  0.5670290000000 1.0
C      1  0.4715060000000  0.5003510000000  0.5370420000000 1.0
C      1  0.4799200000000  0.4731360000000  0.4381560000000 1.0
C      1  0.5173320000000  0.4547560000000  0.5299730000000 1.0
C      1  0.5080330000000  0.5440940000000  0.5362010000000 1.0
END
