TITL C-950524-1808-594 1.36254487843645e-06 125000 -1007.14253143485 0 0 161 (C1) n - 1
REM
REM in /home/bkarasulu/work/CARBON/AIRSS/Generating-Clusters/EDIP-Nigel-Params/with-SteepDescent/Only-C1/SD-CG/HFTN-CG
REM
REM
REM
REM
REM
REM ./C.cell (11c1c37f851c82e70ff6c80c92926a4b)
REM
REM compiler GCC version 9.2.1 20190827 (Red Hat 9.2.1-1)
REM options -cpp -mtune=generic -march=x86-64 -g -O0 -fpre-include=/usr/include/finclude/math-vector-fortran.h
REM seed -1632350411 1047027814 -364715775 -458854440 -795697596 -1826158015 2046703897 -2099184684 -715142439 498694956 1166373503 1789826648 -2074604663 1098623924 -164855976 1668236909 599193693 1675565707 -2126635044 1202033467 353476518 647740601 461865431 1632011687 -599798792 -2058790590 813346250 2047073128 1776423000 -351884955 1677850171 -2138076713 1088026419
REM
CELL 1.54180   50.00000   50.00000   50.00000   90.00000   90.00000   90.00000
LATT -1
SFAC C  
C      1  0.5269590000000  0.4583690000000  0.4666030000000 1.0
C      1  0.5910100000000  0.4874360000000  0.5039640000000 1.0
C      1  0.4124400000000  0.4787010000000  0.4984640000000 1.0
C      1  0.5033310000000  0.4614070000000  0.5067590000000 1.0
C      1  0.4615050000000  0.5152870000000  0.4802090000000 1.0
C      1  0.5083630000000  0.5594030000000  0.5961620000000 1.0
C      1  0.5719120000000  0.5101640000000  0.4269750000000 1.0
C      1  0.5561320000000  0.4213510000000  0.5333600000000 1.0
C      1  0.5208530000000  0.5924580000000  0.5655300000000 1.0
C      1  0.5267870000000  0.5819560000000  0.5936540000000 1.0
C      1  0.5106280000000  0.5759610000000  0.4276480000000 1.0
C      1  0.4095730000000  0.5315540000000  0.5439590000000 1.0
C      1  0.4514450000000  0.4597120000000  0.4774690000000 1.0
C      1  0.4793970000000  0.6016200000000  0.4578300000000 1.0
C      1  0.5116470000000  0.5332210000000  0.5502690000000 1.0
C      1  0.4705660000000  0.5355180000000  0.5250560000000 1.0
C      1  0.5890630000000  0.4988330000000  0.4480510000000 1.0
C      1  0.5941260000000  0.5575410000000  0.4904150000000 1.0
C      1  0.4981380000000  0.5120430000000  0.6021200000000 1.0
C      1  0.4278350000000  0.4983440000000  0.4227770000000 1.0
C      1  0.4952980000000  0.5254360000000  0.4494310000000 1.0
C      1  0.4290550000000  0.5877340000000  0.5092010000000 1.0
C      1  0.4695310000000  0.4485150000000  0.5411370000000 1.0
C      1  0.5478560000000  0.4664540000000  0.4170500000000 1.0
C      1  0.5330630000000  0.5799080000000  0.4458690000000 1.0
C      1  0.5570890000000  0.5679430000000  0.5752220000000 1.0
C      1  0.4945690000000  0.5557070000000  0.5696600000000 1.0
C      1  0.4246840000000  0.4548540000000  0.4429000000000 1.0
C      1  0.5631370000000  0.5135850000000  0.4809050000000 1.0
C      1  0.5896660000000  0.4560070000000  0.5420800000000 1.0
C      1  0.5022940000000  0.6127660000000  0.4716780000000 1.0
C      1  0.5451100000000  0.4199960000000  0.4330390000000 1.0
C      1  0.4764440000000  0.5190410000000  0.4244440000000 1.0
C      1  0.4269410000000  0.4164190000000  0.4747920000000 1.0
C      1  0.4596320000000  0.5132960000000  0.5089130000000 1.0
C      1  0.5698390000000  0.5590280000000  0.4739040000000 1.0
C      1  0.5836340000000  0.4382800000000  0.4954650000000 1.0
C      1  0.5117450000000  0.5750440000000  0.5126540000000 1.0
C      1  0.4321150000000  0.4149260000000  0.5189240000000 1.0
C      1  0.4675550000000  0.4579420000000  0.4107830000000 1.0
C      1  0.5439640000000  0.4379980000000  0.4107110000000 1.0
C      1  0.4896680000000  0.5077400000000  0.4724560000000 1.0
C      1  0.4152950000000  0.4058900000000  0.4983780000000 1.0
C      1  0.4618080000000  0.4224820000000  0.5810650000000 1.0
C      1  0.4234300000000  0.5427940000000  0.5213800000000 1.0
C      1  0.4511110000000  0.6057660000000  0.5000470000000 1.0
C      1  0.5124480000000  0.4877450000000  0.4342100000000 1.0
C      1  0.4478010000000  0.4910690000000  0.4665310000000 1.0
C      1  0.4504320000000  0.5470570000000  0.4725260000000 1.0
C      1  0.5218470000000  0.5901910000000  0.4727990000000 1.0
C      1  0.5064750000000  0.4834580000000  0.6008140000000 1.0
C      1  0.5086690000000  0.4233220000000  0.5656260000000 1.0
C      1  0.5420160000000  0.4025270000000  0.5156330000000 1.0
C      1  0.5551040000000  0.5344350000000  0.4234380000000 1.0
C      1  0.5226990000000  0.4867390000000  0.5450340000000 1.0
C      1  0.5889950000000  0.4706460000000  0.4571750000000 1.0
C      1  0.5185960000000  0.4113600000000  0.4448210000000 1.0
C      1  0.4658550000000  0.5644660000000  0.5176860000000 1.0
C      1  0.4846060000000  0.5806480000000  0.4390550000000 1.0
C      1  0.4697390000000  0.4906880000000  0.5237330000000 1.0
C      1  0.5881080000000  0.5300300000000  0.5355560000000 1.0
C      1  0.5598590000000  0.4948140000000  0.5038700000000 1.0
C      1  0.4612680000000  0.4722900000000  0.6070600000000 1.0
C      1  0.5192700000000  0.5324030000000  0.6008750000000 1.0
C      1  0.4493750000000  0.4364140000000  0.5595040000000 1.0
C      1  0.5130190000000  0.3990040000000  0.5189990000000 1.0
C      1  0.4557760000000  0.4162690000000  0.4714460000000 1.0
C      1  0.5478320000000  0.4547950000000  0.5607180000000 1.0
C      1  0.5303740000000  0.4772400000000  0.3948820000000 1.0
C      1  0.5355540000000  0.5909550000000  0.5086910000000 1.0
C      1  0.5528400000000  0.5410150000000  0.4905590000000 1.0
C      1  0.4152690000000  0.4666040000000  0.5410550000000 1.0
C      1  0.4124110000000  0.5445180000000  0.4941480000000 1.0
C      1  0.5255010000000  0.4405560000000  0.5478160000000 1.0
C      1  0.5426710000000  0.4950240000000  0.5777180000000 1.0
C      1  0.4184080000000  0.4422180000000  0.4673170000000 1.0
C      1  0.4703650000000  0.3983770000000  0.4895260000000 1.0
C      1  0.4978550000000  0.4539940000000  0.4616940000000 1.0
C      1  0.4411370000000  0.5636320000000  0.5639520000000 1.0
C      1  0.4229480000000  0.5699460000000  0.4863330000000 1.0
C      1  0.5522650000000  0.5566770000000  0.4473100000000 1.0
C      1  0.5607240000000  0.4655840000000  0.5367750000000 1.0
C      1  0.4255090000000  0.4295840000000  0.5435370000000 1.0
C      1  0.4304610000000  0.5151960000000  0.5589300000000 1.0
C      1  0.4947430000000  0.4312160000000  0.4401710000000 1.0
C      1  0.5985590000000  0.5180000000000  0.4666450000000 1.0
C      1  0.5463050000000  0.5063230000000  0.4556400000000 1.0
C      1  0.4547030000000  0.6010870000000  0.4718060000000 1.0
C      1  0.4655950000000  0.4252210000000  0.4456820000000 1.0
C      1  0.5413830000000  0.5756640000000  0.5526340000000 1.0
C      1  0.4815740000000  0.4479240000000  0.4883740000000 1.0
C      1  0.5853410000000  0.4306330000000  0.5254000000000 1.0
C      1  0.5684990000000  0.4271780000000  0.4492720000000 1.0
C      1  0.5151070000000  0.5003930000000  0.4076620000000 1.0
C      1  0.5507490000000  0.4525830000000  0.5105200000000 1.0
C      1  0.4210330000000  0.5264380000000  0.4236870000000 1.0
C      1  0.4118000000000  0.5250130000000  0.4719700000000 1.0
C      1  0.5250350000000  0.5303250000000  0.4544590000000 1.0
C      1  0.4598700000000  0.5246920000000  0.5532840000000 1.0
C      1  0.5120920000000  0.5175580000000  0.5026080000000 1.0
C      1  0.4515680000000  0.4684330000000  0.5273830000000 1.0
C      1  0.5337290000000  0.4778470000000  0.5990830000000 1.0
C      1  0.4167690000000  0.4948720000000  0.4712380000000 1.0
C      1  0.5465590000000  0.4044400000000  0.4868380000000 1.0
C      1  0.4747970000000  0.4983510000000  0.5528220000000 1.0
C      1  0.5039330000000  0.5050780000000  0.5588430000000 1.0
C      1  0.4873800000000  0.5847090000000  0.5275790000000 1.0
C      1  0.5852800000000  0.4481440000000  0.4408320000000 1.0
C      1  0.4698890000000  0.5684360000000  0.4854950000000 1.0
C      1  0.4866110000000  0.5032350000000  0.4007750000000 1.0
C      1  0.4769180000000  0.6108130000000  0.5154620000000 1.0
C      1  0.4886380000000  0.4821080000000  0.4513180000000 1.0
C      1  0.6001250000000  0.5362150000000  0.5090760000000 1.0
C      1  0.4564690000000  0.4784960000000  0.5695130000000 1.0
C      1  0.5055950000000  0.4613650000000  0.5366270000000 1.0
C      1  0.5212320000000  0.4006270000000  0.4721880000000 1.0
C      1  0.4154590000000  0.5500980000000  0.5664250000000 1.0
C      1  0.5620290000000  0.5403030000000  0.5737590000000 1.0
C      1  0.5049370000000  0.5660240000000  0.4853760000000 1.0
C      1  0.4702080000000  0.5219250000000  0.5994590000000 1.0
C      1  0.5443510000000  0.5301130000000  0.5413060000000 1.0
C      1  0.4637320000000  0.5655450000000  0.4256950000000 1.0
C      1  0.3974360000000  0.4794840000000  0.5222730000000 1.0
C      1  0.4992930000000  0.5341870000000  0.5237490000000 1.0
C      1  0.5290800000000  0.4646640000000  0.4945310000000 1.0
C      1  0.5422560000000  0.5234030000000  0.5849380000000 1.0
C      1  0.4999460000000  0.4002390000000  0.4923840000000 1.0
C      1  0.4930140000000  0.4442570000000  0.4123180000000 1.0
C      1  0.5084900000000  0.5521620000000  0.4100220000000 1.0
C      1  0.6014680000000  0.4816440000000  0.5316210000000 1.0
C      1  0.4076780000000  0.5368560000000  0.4462770000000 1.0
C      1  0.6051500000000  0.5120090000000  0.4936350000000 1.0
C      1  0.4661550000000  0.5442800000000  0.5758020000000 1.0
C      1  0.4282490000000  0.4847650000000  0.5607140000000 1.0
C      1  0.5228510000000  0.5394720000000  0.4834610000000 1.0
C      1  0.5283610000000  0.5291510000000  0.4104030000000 1.0
C      1  0.4932210000000  0.5837150000000  0.5573930000000 1.0
C      1  0.4993370000000  0.4050910000000  0.5445010000000 1.0
C      1  0.5948960000000  0.4644440000000  0.4849940000000 1.0
C      1  0.4524320000000  0.4990610000000  0.6009700000000 1.0
C      1  0.4870290000000  0.4359980000000  0.5826090000000 1.0
C      1  0.5885470000000  0.5026690000000  0.5483050000000 1.0
C      1  0.5592030000000  0.5485800000000  0.5201880000000 1.0
C      1  0.5537940000000  0.5779220000000  0.5266280000000 1.0
C      1  0.4798470000000  0.4274810000000  0.5210490000000 1.0
C      1  0.5136300000000  0.4523170000000  0.3926430000000 1.0
C      1  0.4522920000000  0.4492010000000  0.4344900000000 1.0
C      1  0.4784700000000  0.5458490000000  0.4094760000000 1.0
C      1  0.4361060000000  0.4623500000000  0.5023830000000 1.0
C      1  0.4947550000000  0.6228270000000  0.4970080000000 1.0
C      1  0.5695310000000  0.4193630000000  0.4767910000000 1.0
C      1  0.5357090000000  0.5046760000000  0.5217690000000 1.0
C      1  0.4380540000000  0.5678510000000  0.5306770000000 1.0
C      1  0.5702830000000  0.4864450000000  0.5682980000000 1.0
C      1  0.4701940000000  0.4811680000000  0.3954990000000 1.0
C      1  0.4865620000000  0.4624030000000  0.5974630000000 1.0
C      1  0.4119590000000  0.4819560000000  0.4419140000000 1.0
C      1  0.5370280000000  0.4772850000000  0.4451220000000 1.0
C      1  0.4436300000000  0.5509390000000  0.4426140000000 1.0
C      1  0.4554930000000  0.4929920000000  0.4348450000000 1.0
C      1  0.4596440000000  0.4055000000000  0.5166200000000 1.0
END
