TITL C-950525-1983-179 1.84051351248545e-07 125000 -1015.5916582934 0 0 164 (C1) n - 1
REM
REM in /home/bkarasulu/work/CARBON/AIRSS/Generating-Clusters/EDIP-Nigel-Params/with-SteepDescent/Only-C1/SD-CG/HFTN-CG
REM
REM
REM
REM
REM
REM ./C.cell (11c1c37f851c82e70ff6c80c92926a4b)
REM
REM compiler GCC version 9.2.1 20190827 (Red Hat 9.2.1-1)
REM options -cpp -mtune=generic -march=x86-64 -g -O0 -fpre-include=/usr/include/finclude/math-vector-fortran.h
REM seed 2080581316 275859741 -1969581964 -1639214352 1460437726 -866467204 -210047381 -523027330 -1658418069 1493688970 -302386915 1176587119 -239259756 2131296376 -516629515 -1134816124 -736569353 2144001946 1886501235 1782301006 592885450 -581300919 481432344 -1357112134 387670383 -1188557177 -982040396 -1439884297 881604815 1095273203 1319820477 1257155941 2089894091
REM
CELL 1.54180   50.00000   50.00000   50.00000   90.00000   90.00000   90.00000
LATT -1
SFAC C  
C      1  0.4479920000000  0.5209120000000  0.5232800000000 1.0
C      1  0.4340990000000  0.5869010000000  0.4671530000000 1.0
C      1  0.4713210000000  0.4618930000000  0.4709210000000 1.0
C      1  0.4530310000000  0.5884430000000  0.4888540000000 1.0
C      1  0.4185360000000  0.5105070000000  0.5229130000000 1.0
C      1  0.4946510000000  0.3941190000000  0.4891670000000 1.0
C      1  0.4552420000000  0.5553880000000  0.4598180000000 1.0
C      1  0.4348650000000  0.4832700000000  0.4247830000000 1.0
C      1  0.4080340000000  0.5135780000000  0.5516730000000 1.0
C      1  0.4303900000000  0.4319820000000  0.5364420000000 1.0
C      1  0.4001860000000  0.5091250000000  0.4450410000000 1.0
C      1  0.5725030000000  0.5222460000000  0.4327520000000 1.0
C      1  0.5705080000000  0.5665980000000  0.5525420000000 1.0
C      1  0.4589990000000  0.4315960000000  0.5792740000000 1.0
C      1  0.4756970000000  0.4042040000000  0.4426590000000 1.0
C      1  0.4928800000000  0.4664130000000  0.5293580000000 1.0
C      1  0.5591020000000  0.4963280000000  0.5465250000000 1.0
C      1  0.5182090000000  0.3971490000000  0.5049820000000 1.0
C      1  0.4796660000000  0.5392530000000  0.4979120000000 1.0
C      1  0.4993990000000  0.5402800000000  0.4747500000000 1.0
C      1  0.4987930000000  0.6040610000000  0.5040260000000 1.0
C      1  0.4563690000000  0.4378150000000  0.5509120000000 1.0
C      1  0.4529620000000  0.4185110000000  0.4564030000000 1.0
C      1  0.5685560000000  0.4937290000000  0.5938290000000 1.0
C      1  0.5050630000000  0.4727210000000  0.3960380000000 1.0
C      1  0.5759800000000  0.4696990000000  0.4296230000000 1.0
C      1  0.4538930000000  0.5372180000000  0.4825610000000 1.0
C      1  0.4884400000000  0.5664130000000  0.5243710000000 1.0
C      1  0.5780010000000  0.4379860000000  0.5057810000000 1.0
C      1  0.5439560000000  0.4029450000000  0.4937250000000 1.0
C      1  0.5061510000000  0.5344120000000  0.4086390000000 1.0
C      1  0.4863710000000  0.5009910000000  0.5604650000000 1.0
C      1  0.4631120000000  0.4823680000000  0.4162960000000 1.0
C      1  0.4832710000000  0.5499720000000  0.4496990000000 1.0
C      1  0.5819440000000  0.4593780000000  0.5264620000000 1.0
C      1  0.5805090000000  0.4954050000000  0.4438960000000 1.0
C      1  0.6078170000000  0.5445010000000  0.5204800000000 1.0
C      1  0.5132230000000  0.5623050000000  0.4191480000000 1.0
C      1  0.5438860000000  0.4317200000000  0.4205590000000 1.0
C      1  0.5597730000000  0.5248720000000  0.4074180000000 1.0
C      1  0.4130360000000  0.4543580000000  0.5471820000000 1.0
C      1  0.4148370000000  0.4963030000000  0.4677240000000 1.0
C      1  0.4323540000000  0.4294790000000  0.5058850000000 1.0
C      1  0.5275070000000  0.5262750000000  0.5088520000000 1.0
C      1  0.5204640000000  0.4583210000000  0.4875130000000 1.0
C      1  0.4172400000000  0.5663350000000  0.5165700000000 1.0
C      1  0.4134210000000  0.5658850000000  0.4652510000000 1.0
C      1  0.4130180000000  0.5508990000000  0.4924050000000 1.0
C      1  0.5483440000000  0.4666190000000  0.4695890000000 1.0
C      1  0.4328700000000  0.5332960000000  0.4204170000000 1.0
C      1  0.4618320000000  0.4892730000000  0.5998490000000 1.0
C      1  0.4723820000000  0.4892970000000  0.3886400000000 1.0
C      1  0.4807830000000  0.5783040000000  0.5527680000000 1.0
C      1  0.5443490000000  0.5736600000000  0.4556290000000 1.0
C      1  0.4968540000000  0.6038640000000  0.5535290000000 1.0
C      1  0.4739280000000  0.4927690000000  0.4654610000000 1.0
C      1  0.5321210000000  0.5781790000000  0.5822910000000 1.0
C      1  0.4663300000000  0.3954510000000  0.5280300000000 1.0
C      1  0.4983360000000  0.4533700000000  0.4184210000000 1.0
C      1  0.4939290000000  0.5221530000000  0.6209490000000 1.0
C      1  0.4500240000000  0.4748090000000  0.5162340000000 1.0
C      1  0.5342300000000  0.5548800000000  0.4368940000000 1.0
C      1  0.4598220000000  0.5006390000000  0.5066440000000 1.0
C      1  0.4297710000000  0.4797350000000  0.5561200000000 1.0
C      1  0.4499570000000  0.5074220000000  0.4785580000000 1.0
C      1  0.4000510000000  0.4641460000000  0.5242150000000 1.0
C      1  0.4197380000000  0.5150170000000  0.5797900000000 1.0
C      1  0.5226180000000  0.4860790000000  0.5809740000000 1.0
C      1  0.4935910000000  0.6164220000000  0.5288040000000 1.0
C      1  0.5552020000000  0.4719870000000  0.5284770000000 1.0
C      1  0.5826350000000  0.5450040000000  0.5357580000000 1.0
C      1  0.5765650000000  0.4459260000000  0.4522620000000 1.0
C      1  0.5011960000000  0.5499170000000  0.5686130000000 1.0
C      1  0.5192900000000  0.4356570000000  0.5085470000000 1.0
C      1  0.5344390000000  0.4746780000000  0.4448620000000 1.0
C      1  0.4607940000000  0.5349010000000  0.4071650000000 1.0
C      1  0.4981960000000  0.4152680000000  0.5579770000000 1.0
C      1  0.5660410000000  0.5742440000000  0.5153000000000 1.0
C      1  0.5264510000000  0.5982340000000  0.4955560000000 1.0
C      1  0.5473100000000  0.4231560000000  0.5410550000000 1.0
C      1  0.5256450000000  0.5024350000000  0.4918450000000 1.0
C      1  0.5328610000000  0.5072110000000  0.5598420000000 1.0
C      1  0.5862170000000  0.5445970000000  0.4481870000000 1.0
C      1  0.4776490000000  0.4205410000000  0.5370260000000 1.0
C      1  0.5110500000000  0.4801170000000  0.5059770000000 1.0
C      1  0.5299920000000  0.4375890000000  0.5791000000000 1.0
C      1  0.4844620000000  0.4791410000000  0.5809380000000 1.0
C      1  0.4686120000000  0.4540230000000  0.4215340000000 1.0
C      1  0.5311340000000  0.5481930000000  0.4894420000000 1.0
C      1  0.4976390000000  0.5906540000000  0.4588370000000 1.0
C      1  0.4785490000000  0.5296650000000  0.5659600000000 1.0
C      1  0.6009650000000  0.4790470000000  0.5127750000000 1.0
C      1  0.4548370000000  0.4479300000000  0.4482110000000 1.0
C      1  0.4679100000000  0.5389770000000  0.5384690000000 1.0
C      1  0.5315920000000  0.5183880000000  0.4484640000000 1.0
C      1  0.4828250000000  0.5281540000000  0.4277330000000 1.0
C      1  0.5966560000000  0.5075640000000  0.5164290000000 1.0
C      1  0.5776440000000  0.4863280000000  0.5679500000000 1.0
C      1  0.5634690000000  0.5101070000000  0.4889340000000 1.0
C      1  0.5615110000000  0.4151620000000  0.5144080000000 1.0
C      1  0.4807590000000  0.4980390000000  0.4360200000000 1.0
C      1  0.5368590000000  0.5729180000000  0.5080470000000 1.0
C      1  0.5734540000000  0.4867720000000  0.4725570000000 1.0
C      1  0.4683650000000  0.3965210000000  0.5004580000000 1.0
C      1  0.5350110000000  0.4496880000000  0.5335910000000 1.0
C      1  0.4008390000000  0.5259170000000  0.5027770000000 1.0
C      1  0.5916620000000  0.5326360000000  0.4754480000000 1.0
C      1  0.6044980000000  0.5527480000000  0.4930970000000 1.0
C      1  0.5518520000000  0.5327470000000  0.4704940000000 1.0
C      1  0.4867160000000  0.4264160000000  0.5825980000000 1.0
C      1  0.4992710000000  0.4539580000000  0.4672380000000 1.0
C      1  0.4876870000000  0.4395720000000  0.5154770000000 1.0
C      1  0.5099200000000  0.5434310000000  0.6154340000000 1.0
C      1  0.5224450000000  0.4007710000000  0.4489650000000 1.0
C      1  0.5196870000000  0.5672780000000  0.5329430000000 1.0
C      1  0.4200510000000  0.5079550000000  0.4251640000000 1.0
C      1  0.4107970000000  0.5507760000000  0.5408720000000 1.0
C      1  0.5608960000000  0.4227070000000  0.4437850000000 1.0
C      1  0.4351770000000  0.5406750000000  0.5816970000000 1.0
C      1  0.4482930000000  0.4124720000000  0.4865840000000 1.0
C      1  0.5736690000000  0.5170500000000  0.5308790000000 1.0
C      1  0.4912750000000  0.5337360000000  0.3826980000000 1.0
C      1  0.5267580000000  0.4074230000000  0.5551090000000 1.0
C      1  0.5077570000000  0.5627890000000  0.5950990000000 1.0
C      1  0.5060650000000  0.4689360000000  0.4434280000000 1.0
C      1  0.4589860000000  0.4694980000000  0.5468660000000 1.0
C      1  0.5253900000000  0.5928250000000  0.4669010000000 1.0
C      1  0.4671850000000  0.5172160000000  0.3820610000000 1.0
C      1  0.5315790000000  0.4845150000000  0.4018180000000 1.0
C      1  0.3924590000000  0.5076330000000  0.4830010000000 1.0
C      1  0.4336430000000  0.4882810000000  0.5863050000000 1.0
C      1  0.5042290000000  0.5268880000000  0.5255820000000 1.0
C      1  0.4675290000000  0.5169400000000  0.6119870000000 1.0
C      1  0.4123120000000  0.4676620000000  0.4654550000000 1.0
C      1  0.5332480000000  0.5136470000000  0.4136190000000 1.0
C      1  0.5553800000000  0.4517220000000  0.5850750000000 1.0
C      1  0.4940400000000  0.5813480000000  0.4311540000000 1.0
C      1  0.5080760000000  0.5116430000000  0.4678340000000 1.0
C      1  0.5135280000000  0.4614060000000  0.5526820000000 1.0
C      1  0.5235260000000  0.5899820000000  0.5547600000000 1.0
C      1  0.4328720000000  0.5575310000000  0.5573830000000 1.0
C      1  0.5980780000000  0.4726780000000  0.4840980000000 1.0
C      1  0.4226340000000  0.5533920000000  0.4390980000000 1.0
C      1  0.4287810000000  0.4617530000000  0.4438210000000 1.0
C      1  0.4801550000000  0.5987660000000  0.4821320000000 1.0
C      1  0.5727850000000  0.5701590000000  0.4622590000000 1.0
C      1  0.5472230000000  0.4648490000000  0.4204900000000 1.0
C      1  0.5040230000000  0.4480680000000  0.5911570000000 1.0
C      1  0.4510800000000  0.5780950000000  0.5455140000000 1.0
C      1  0.4970310000000  0.3980250000000  0.4611830000000 1.0
C      1  0.4199470000000  0.4815580000000  0.5133470000000 1.0
C      1  0.5444380000000  0.4099230000000  0.4646480000000 1.0
C      1  0.5189360000000  0.4149490000000  0.4239700000000 1.0
C      1  0.5509620000000  0.5571250000000  0.5716650000000 1.0
C      1  0.4898470000000  0.4158740000000  0.4190090000000 1.0
C      1  0.5765910000000  0.4573950000000  0.5645700000000 1.0
C      1  0.5297170000000  0.5399970000000  0.5590790000000 1.0
C      1  0.4425310000000  0.5814490000000  0.5167620000000 1.0
C      1  0.5910440000000  0.4445190000000  0.4797610000000 1.0
C      1  0.5838490000000  0.5736550000000  0.4906200000000 1.0
C      1  0.5091470000000  0.5041530000000  0.5429000000000 1.0
C      1  0.5460560000000  0.4768170000000  0.5971930000000 1.0
C      1  0.4624000000000  0.4519680000000  0.4992650000000 1.0
C      1  0.4625530000000  0.5369260000000  0.5905670000000 1.0
END
