TITL C-950527-2551-370 0.00807291228432494 125000 -86.0459750984576 0 0 16 (C1) n - 1
REM
REM in /home/bkarasulu/work/CARBON/AIRSS/Generating-Clusters/EDIP-Nigel-Params/with-SteepDescent/Only-C1/SD-CG/HFTN-CG
REM
REM
REM
REM
REM
REM ./C.cell (11c1c37f851c82e70ff6c80c92926a4b)
REM
REM compiler GCC version 9.2.1 20190827 (Red Hat 9.2.1-1)
REM options -cpp -mtune=generic -march=x86-64 -g -O0 -fpre-include=/usr/include/finclude/math-vector-fortran.h
REM seed -1612496167 -1375092184 535042196 1498962920 -974846368 590757297 -501367471 -1512985806 128122193 -1401450247 1447597390 -1140717439 -753785794 1162637479 110561397 210431950 354635673 16854758 -1719777772 -1815047994 1573006191 -1361444928 143027356 -433963448 629623441 -1201903090 254539304 -1532256585 -1683655214 685895242 146607041 1642251638 -2099931258
REM
CELL 1.54180   50.00000   50.00000   50.00000   90.00000   90.00000   90.00000
LATT -1
SFAC C  
C      1  0.5272650000000  0.5144980000000  0.5545620000000 1.0
C      1  0.5107360000000  0.5387470000000  0.5430520000000 1.0
C      1  0.4988370000000  0.5307590000000  0.5183850000000 1.0
C      1  0.5098600000000  0.4847800000000  0.5172450000000 1.0
C      1  0.4818860000000  0.5040280000000  0.4820370000000 1.0
C      1  0.4543460000000  0.4906260000000  0.4138400000000 1.0
C      1  0.4658950000000  0.5044090000000  0.4594110000000 1.0
C      1  0.5095230000000  0.4586190000000  0.5061640000000 1.0
C      1  0.5236420000000  0.4908740000000  0.5403690000000 1.0
C      1  0.5223140000000  0.4389640000000  0.5182990000000 1.0
C      1  0.5492200000000  0.5329830000000  0.5476990000000 1.0
C      1  0.4725890000000  0.4881250000000  0.4353170000000 1.0
C      1  0.4960590000000  0.4538600000000  0.4839560000000 1.0
C      1  0.4466750000000  0.5065800000000  0.4358250000000 1.0
C      1  0.4965340000000  0.5066780000000  0.5050630000000 1.0
C      1  0.5346170000000  0.5554690000000  0.5387740000000 1.0
END
