TITL C-951343-2256-116 1.14808073341891e-06 125000 -572.4369853346 0 0 92 (C1) n - 1
REM
REM in /home/bkarasulu/work/CARBON/AIRSS/Generating-Clusters/EDIP-Nigel-Params/with-SteepDescent/Only-C1/SD-CG/HFTN-CG
REM
REM
REM
REM
REM
REM ./C.cell (11c1c37f851c82e70ff6c80c92926a4b)
REM
REM compiler GCC version 9.2.1 20190827 (Red Hat 9.2.1-1)
REM options -cpp -mtune=generic -march=x86-64 -g -O0 -fpre-include=/usr/include/finclude/math-vector-fortran.h
REM seed -106542968 -1019683611 -1853362069 704555473 -1472466415 219011718 -1947833470 490768171 -1956160629 185895352 346350937 763165823 -1619321599 -1138381714 -127587512 -641510763 -1479717193 1146290159 -330637024 1070310110 1767161032 -1478814970 922404465 626961807 -199935975 -1055465717 -1042474304 1413503555 258834845 -1095437529 -1998509372 1894601253 27500646
REM
CELL 1.54180   50.00000   50.00000   50.00000   90.00000   90.00000   90.00000
LATT -1
SFAC C  
C      1  0.5234410000000  0.5012600000000  0.5045970000000 1.0
C      1  0.4785710000000  0.5232310000000  0.4205630000000 1.0
C      1  0.4588130000000  0.4228890000000  0.5019780000000 1.0
C      1  0.5044180000000  0.4706880000000  0.5480000000000 1.0
C      1  0.4895430000000  0.4393480000000  0.4653500000000 1.0
C      1  0.4532370000000  0.5063260000000  0.5742440000000 1.0
C      1  0.5292460000000  0.5657650000000  0.5331430000000 1.0
C      1  0.4598270000000  0.5559560000000  0.5635330000000 1.0
C      1  0.5205860000000  0.5138730000000  0.5509060000000 1.0
C      1  0.4511540000000  0.5309860000000  0.4197780000000 1.0
C      1  0.4410850000000  0.5459650000000  0.4426260000000 1.0
C      1  0.4395480000000  0.4971090000000  0.4616230000000 1.0
C      1  0.5300480000000  0.5061850000000  0.4248820000000 1.0
C      1  0.4552670000000  0.4521080000000  0.5460930000000 1.0
C      1  0.5226690000000  0.4262970000000  0.5569360000000 1.0
C      1  0.4630430000000  0.4756140000000  0.4218760000000 1.0
C      1  0.4785480000000  0.5339510000000  0.4630490000000 1.0
C      1  0.5545780000000  0.5491820000000  0.5382490000000 1.0
C      1  0.4222860000000  0.5441130000000  0.4917520000000 1.0
C      1  0.4959490000000  0.5443240000000  0.4296670000000 1.0
C      1  0.5255890000000  0.4130500000000  0.4643500000000 1.0
C      1  0.4621110000000  0.5611010000000  0.4675810000000 1.0
C      1  0.5071600000000  0.4057340000000  0.5080150000000 1.0
C      1  0.5723760000000  0.4644340000000  0.4937590000000 1.0
C      1  0.4306190000000  0.5243230000000  0.5375410000000 1.0
C      1  0.4885270000000  0.5346140000000  0.5122460000000 1.0
C      1  0.4825770000000  0.5736940000000  0.5516550000000 1.0
C      1  0.4396480000000  0.4692130000000  0.5033050000000 1.0
C      1  0.5262520000000  0.4693720000000  0.5268500000000 1.0
C      1  0.5646580000000  0.4893260000000  0.4579840000000 1.0
C      1  0.5028940000000  0.5343270000000  0.4835620000000 1.0
C      1  0.5141480000000  0.5610010000000  0.4711050000000 1.0
C      1  0.5522860000000  0.4621410000000  0.5391070000000 1.0
C      1  0.5357840000000  0.5238610000000  0.4456500000000 1.0
C      1  0.5376130000000  0.5729000000000  0.4855820000000 1.0
C      1  0.4550310000000  0.5628530000000  0.5174680000000 1.0
C      1  0.4884800000000  0.5784860000000  0.4737680000000 1.0
C      1  0.5705510000000  0.4772440000000  0.5200250000000 1.0
C      1  0.4518170000000  0.4470300000000  0.4595910000000 1.0
C      1  0.5028810000000  0.5105040000000  0.5247500000000 1.0
C      1  0.4951100000000  0.5869780000000  0.5027610000000 1.0
C      1  0.4410910000000  0.5522550000000  0.5410890000000 1.0
C      1  0.4660740000000  0.5080710000000  0.4741400000000 1.0
C      1  0.4462230000000  0.4439960000000  0.4887160000000 1.0
C      1  0.4438730000000  0.4723050000000  0.4437940000000 1.0
C      1  0.4871180000000  0.4869890000000  0.4750370000000 1.0
C      1  0.5456820000000  0.4544250000000  0.4838470000000 1.0
C      1  0.4235930000000  0.4864270000000  0.4846940000000 1.0
C      1  0.5353570000000  0.4163820000000  0.5120300000000 1.0
C      1  0.5659120000000  0.5278940000000  0.4902230000000 1.0
C      1  0.5875600000000  0.4998010000000  0.5338630000000 1.0
C      1  0.4678120000000  0.5305830000000  0.5768710000000 1.0
C      1  0.4743210000000  0.5827240000000  0.5243310000000 1.0
C      1  0.4331840000000  0.5226340000000  0.5086440000000 1.0
C      1  0.5507120000000  0.5096430000000  0.5116080000000 1.0
C      1  0.5509850000000  0.4794700000000  0.5643120000000 1.0
C      1  0.4811340000000  0.4191750000000  0.5196520000000 1.0
C      1  0.4268590000000  0.5203520000000  0.4476450000000 1.0
C      1  0.5246500000000  0.5834880000000  0.5097080000000 1.0
C      1  0.4633900000000  0.5136180000000  0.5040350000000 1.0
C      1  0.4947780000000  0.4463150000000  0.4956270000000 1.0
C      1  0.5159460000000  0.4984960000000  0.4755800000000 1.0
C      1  0.5063230000000  0.3992660000000  0.4804560000000 1.0
C      1  0.5584880000000  0.5554080000000  0.4904530000000 1.0
C      1  0.4933800000000  0.5314170000000  0.5876410000000 1.0
C      1  0.5379380000000  0.4755700000000  0.4626570000000 1.0
C      1  0.5203860000000  0.5485560000000  0.4443840000000 1.0
C      1  0.5680070000000  0.5038660000000  0.5569870000000 1.0
C      1  0.5000880000000  0.4428820000000  0.5585160000000 1.0
C      1  0.5126340000000  0.4336760000000  0.4462970000000 1.0
C      1  0.5104160000000  0.5365590000000  0.5660250000000 1.0
C      1  0.4847090000000  0.4945260000000  0.4193930000000 1.0
C      1  0.4760340000000  0.4331120000000  0.5459870000000 1.0
C      1  0.5458240000000  0.4242830000000  0.4833340000000 1.0
C      1  0.5913350000000  0.5251210000000  0.5184010000000 1.0
C      1  0.5259140000000  0.4612500000000  0.4387600000000 1.0
C      1  0.5031450000000  0.5539920000000  0.5425510000000 1.0
C      1  0.5219690000000  0.4572360000000  0.5012150000000 1.0
C      1  0.4784370000000  0.4720550000000  0.5004050000000 1.0
C      1  0.4847730000000  0.4670180000000  0.4529940000000 1.0
C      1  0.5484930000000  0.5202580000000  0.5405810000000 1.0
C      1  0.5853710000000  0.4792690000000  0.4741020000000 1.0
C      1  0.5435270000000  0.4303640000000  0.5385870000000 1.0
C      1  0.5597380000000  0.5176630000000  0.4616590000000 1.0
C      1  0.4436350000000  0.5623930000000  0.4913760000000 1.0
C      1  0.4110210000000  0.5073190000000  0.4980200000000 1.0
C      1  0.5125550000000  0.4843290000000  0.4232940000000 1.0
C      1  0.4819980000000  0.4877120000000  0.5277930000000 1.0
C      1  0.5218510000000  0.4881110000000  0.5667210000000 1.0
C      1  0.5812190000000  0.5501280000000  0.5278660000000 1.0
C      1  0.4412800000000  0.4735630000000  0.5346990000000 1.0
C      1  0.4452870000000  0.5007000000000  0.5479010000000 1.0
END
