TITL C-950535-5962-257 -2.82161891731458e-06 125000 -449.000386256861 0 0 73 (C1) n - 1
REM
REM in /home/bkarasulu/work/CARBON/AIRSS/Generating-Clusters/EDIP-Nigel-Params/with-SteepDescent/Only-C1/SD-CG/HFTN-CG
REM
REM
REM
REM
REM
REM ./C.cell (11c1c37f851c82e70ff6c80c92926a4b)
REM
REM compiler GCC version 9.2.1 20190827 (Red Hat 9.2.1-1)
REM options -cpp -mtune=generic -march=x86-64 -g -O0 -fpre-include=/usr/include/finclude/math-vector-fortran.h
REM seed 247968874 725582016 -640575414 -7714113 642796947 1632745087 -1719275928 523817755 1313614805 -1713418046 1369391213 566648064 -1665398341 1680524173 1127963963 392715025 641862996 1916851730 9245663 -780751015 -181833962 1663578857 449927092 -1459688649 -1086878859 -997605325 1472542457 879861116 -1859930441 -556150718 1188135742 -1569808302 1772034830
REM
CELL 1.54180   50.00000   50.00000   50.00000   90.00000   90.00000   90.00000
LATT -1
SFAC C  
C      1  0.4656570000000  0.5720050000000  0.5268180000000 1.0
C      1  0.4442550000000  0.4636830000000  0.5598670000000 1.0
C      1  0.5538870000000  0.4463370000000  0.5004920000000 1.0
C      1  0.4498770000000  0.5474250000000  0.4623450000000 1.0
C      1  0.4879860000000  0.5188170000000  0.5177150000000 1.0
C      1  0.5220730000000  0.5085090000000  0.4890440000000 1.0
C      1  0.4781990000000  0.5069010000000  0.5674690000000 1.0
C      1  0.5262180000000  0.4384760000000  0.4916760000000 1.0
C      1  0.5578080000000  0.5348430000000  0.5370730000000 1.0
C      1  0.4780340000000  0.4917670000000  0.4806720000000 1.0
C      1  0.5765130000000  0.4882740000000  0.4849670000000 1.0
C      1  0.4474990000000  0.4885090000000  0.4737670000000 1.0
C      1  0.5539410000000  0.4861090000000  0.4457230000000 1.0
C      1  0.5356330000000  0.5486390000000  0.4476130000000 1.0
C      1  0.4381640000000  0.5270890000000  0.4475330000000 1.0
C      1  0.4996820000000  0.4754300000000  0.4643280000000 1.0
C      1  0.4759110000000  0.4353460000000  0.5004670000000 1.0
C      1  0.5114410000000  0.4655510000000  0.4933480000000 1.0
C      1  0.4931450000000  0.5165810000000  0.4892280000000 1.0
C      1  0.4871680000000  0.5787350000000  0.4675350000000 1.0
C      1  0.5537590000000  0.5128520000000  0.5556700000000 1.0
C      1  0.4950800000000  0.5275360000000  0.4275100000000 1.0
C      1  0.5094350000000  0.4777910000000  0.4218370000000 1.0
C      1  0.5109440000000  0.5507740000000  0.5469200000000 1.0
C      1  0.4326170000000  0.4543840000000  0.5048580000000 1.0
C      1  0.4824570000000  0.5522810000000  0.4291580000000 1.0
C      1  0.4404880000000  0.4994170000000  0.4466230000000 1.0
C      1  0.4591730000000  0.4905750000000  0.4265290000000 1.0
C      1  0.4291440000000  0.4816990000000  0.5169480000000 1.0
C      1  0.5659590000000  0.5055170000000  0.4644510000000 1.0
C      1  0.5503080000000  0.5483730000000  0.4954270000000 1.0
C      1  0.5275360000000  0.4951100000000  0.4374890000000 1.0
C      1  0.4619120000000  0.4447690000000  0.5473850000000 1.0
C      1  0.5588960000000  0.4588150000000  0.4521490000000 1.0
C      1  0.4880720000000  0.4586940000000  0.5394090000000 1.0
C      1  0.5439690000000  0.5236360000000  0.4755270000000 1.0
C      1  0.4873230000000  0.5473880000000  0.5287820000000 1.0
C      1  0.5257510000000  0.4868110000000  0.5100620000000 1.0
C      1  0.4513930000000  0.5743280000000  0.5028020000000 1.0
C      1  0.5690170000000  0.4602850000000  0.4786880000000 1.0
C      1  0.5762060000000  0.5286070000000  0.5158570000000 1.0
C      1  0.4538580000000  0.5516140000000  0.5447360000000 1.0
C      1  0.4873370000000  0.4503020000000  0.4531770000000 1.0
C      1  0.5124250000000  0.5787500000000  0.4766780000000 1.0
C      1  0.4839010000000  0.5017770000000  0.4385560000000 1.0
C      1  0.4656300000000  0.4396490000000  0.4713750000000 1.0
C      1  0.4344870000000  0.5298090000000  0.5060850000000 1.0
C      1  0.5355740000000  0.5515700000000  0.5308440000000 1.0
C      1  0.4420250000000  0.4584090000000  0.4762230000000 1.0
C      1  0.4503710000000  0.5021790000000  0.5634230000000 1.0
C      1  0.4331530000000  0.5362740000000  0.5333740000000 1.0
C      1  0.5489360000000  0.4656120000000  0.5232780000000 1.0
C      1  0.5736210000000  0.4929960000000  0.5580090000000 1.0
C      1  0.5368710000000  0.5659490000000  0.4720100000000 1.0
C      1  0.5195420000000  0.4838390000000  0.5753050000000 1.0
C      1  0.5071390000000  0.4999560000000  0.5301730000000 1.0
C      1  0.4970660000000  0.4865780000000  0.5549920000000 1.0
C      1  0.4702920000000  0.5641260000000  0.4509340000000 1.0
C      1  0.5805450000000  0.4999220000000  0.5114890000000 1.0
C      1  0.5073400000000  0.4250460000000  0.5110640000000 1.0
C      1  0.5080910000000  0.5297400000000  0.5675450000000 1.0
C      1  0.5369660000000  0.4625290000000  0.5703870000000 1.0
C      1  0.4845580000000  0.4617710000000  0.4262000000000 1.0
C      1  0.5737400000000  0.4808580000000  0.5324770000000 1.0
C      1  0.4521420000000  0.4354250000000  0.5198720000000 1.0
C      1  0.4320700000000  0.5022000000000  0.4963450000000 1.0
C      1  0.5220220000000  0.5245190000000  0.4372020000000 1.0
C      1  0.5101020000000  0.4377780000000  0.5385230000000 1.0
C      1  0.4440720000000  0.4850230000000  0.5417190000000 1.0
C      1  0.4417770000000  0.5519370000000  0.4892400000000 1.0
C      1  0.4845900000000  0.4640090000000  0.5078970000000 1.0
C      1  0.5366720000000  0.4495470000000  0.5455530000000 1.0
C      1  0.5305530000000  0.5116390000000  0.5735570000000 1.0
END
