TITL C-951341-1326-635 -1.94064125087423e-07 125000 -1259.66262990901 0 0 200 (C1) n - 1
REM
REM in /home/bkarasulu/work/CARBON/AIRSS/Generating-Clusters/EDIP-Nigel-Params/with-SteepDescent/Only-C1/SD-CG/HFTN-CG
REM
REM
REM
REM
REM
REM ./C.cell (11c1c37f851c82e70ff6c80c92926a4b)
REM
REM compiler GCC version 9.2.1 20190827 (Red Hat 9.2.1-1)
REM options -cpp -mtune=generic -march=x86-64 -g -O0 -fpre-include=/usr/include/finclude/math-vector-fortran.h
REM seed 1912194324 -1509944516 1541821783 -564775331 1623339962 1110047812 -692785780 1340744938 -968915741 -2062255504 -71636971 -1889757416 2007199463 -1966416483 -817903893 -655835274 783642491 -369956503 353742690 1217049054 -1853279845 -1639122155 -1923439760 959709237 -2120862638 1568371890 265543219 2096657997 67575678 -1556328408 463745571 413283567 -2037646469
REM
CELL 1.54180   50.00000   50.00000   50.00000   90.00000   90.00000   90.00000
LATT -1
SFAC C  
C      1  0.4585130000000  0.4980830000000  0.3954770000000 1.0
C      1  0.5132390000000  0.6085830000000  0.4750410000000 1.0
C      1  0.4948680000000  0.5373120000000  0.5554270000000 1.0
C      1  0.4402890000000  0.4795710000000  0.5865800000000 1.0
C      1  0.5169780000000  0.3998010000000  0.4190100000000 1.0
C      1  0.4919140000000  0.5848610000000  0.5711610000000 1.0
C      1  0.5248600000000  0.5318610000000  0.4102260000000 1.0
C      1  0.4114290000000  0.4904940000000  0.5823550000000 1.0
C      1  0.4649950000000  0.4688360000000  0.4063930000000 1.0
C      1  0.3895620000000  0.5320930000000  0.5490090000000 1.0
C      1  0.6054080000000  0.4286250000000  0.4889300000000 1.0
C      1  0.5476580000000  0.4632270000000  0.6024970000000 1.0
C      1  0.4353230000000  0.4110660000000  0.5181540000000 1.0
C      1  0.3873280000000  0.5352770000000  0.5024420000000 1.0
C      1  0.4310940000000  0.5568140000000  0.5146570000000 1.0
C      1  0.4435350000000  0.3940990000000  0.5384710000000 1.0
C      1  0.5606580000000  0.4355240000000  0.4983410000000 1.0
C      1  0.4387400000000  0.4405130000000  0.5223510000000 1.0
C      1  0.5416670000000  0.4821670000000  0.5556480000000 1.0
C      1  0.4421230000000  0.5130950000000  0.5024940000000 1.0
C      1  0.4139830000000  0.5201260000000  0.5903750000000 1.0
C      1  0.4000550000000  0.4965180000000  0.4637490000000 1.0
C      1  0.5670560000000  0.5250790000000  0.5696070000000 1.0
C      1  0.5480030000000  0.4590440000000  0.4704610000000 1.0
C      1  0.4355410000000  0.5751760000000  0.4587430000000 1.0
C      1  0.5491550000000  0.4226730000000  0.5764170000000 1.0
C      1  0.5355890000000  0.5037520000000  0.4821950000000 1.0
C      1  0.4835490000000  0.5316430000000  0.4469680000000 1.0
C      1  0.6024630000000  0.6026460000000  0.5212950000000 1.0
C      1  0.4405100000000  0.5041760000000  0.4401990000000 1.0
C      1  0.5206430000000  0.5653650000000  0.4480430000000 1.0
C      1  0.4555700000000  0.5575740000000  0.5938220000000 1.0
C      1  0.5291580000000  0.5030030000000  0.5973400000000 1.0
C      1  0.5512540000000  0.5089040000000  0.5317600000000 1.0
C      1  0.5469590000000  0.5207000000000  0.3932850000000 1.0
C      1  0.5407800000000  0.6199650000000  0.4837000000000 1.0
C      1  0.4655640000000  0.3917980000000  0.5547940000000 1.0
C      1  0.5851450000000  0.4325220000000  0.5415230000000 1.0
C      1  0.5695480000000  0.5115290000000  0.4138300000000 1.0
C      1  0.5077480000000  0.6248030000000  0.5469260000000 1.0
C      1  0.5387260000000  0.4128690000000  0.4628420000000 1.0
C      1  0.4372710000000  0.5134980000000  0.4113760000000 1.0
C      1  0.5295450000000  0.5487290000000  0.5885440000000 1.0
C      1  0.5190540000000  0.5289450000000  0.4830530000000 1.0
C      1  0.5097330000000  0.5785850000000  0.4750310000000 1.0
C      1  0.4822940000000  0.4914510000000  0.6005640000000 1.0
C      1  0.5749220000000  0.4611840000000  0.4123090000000 1.0
C      1  0.4737970000000  0.5959490000000  0.5016480000000 1.0
C      1  0.4106400000000  0.4981260000000  0.4154470000000 1.0
C      1  0.4976050000000  0.4273670000000  0.5326560000000 1.0
C      1  0.5252380000000  0.4701250000000  0.3899320000000 1.0
C      1  0.5898520000000  0.4878890000000  0.4140480000000 1.0
C      1  0.4676380000000  0.4201300000000  0.4010020000000 1.0
C      1  0.4013920000000  0.4548060000000  0.4933120000000 1.0
C      1  0.5108070000000  0.3937300000000  0.5064900000000 1.0
C      1  0.4521000000000  0.4766480000000  0.5570400000000 1.0
C      1  0.4784260000000  0.4444850000000  0.3912220000000 1.0
C      1  0.4723420000000  0.5443190000000  0.4940090000000 1.0
C      1  0.4501630000000  0.5235910000000  0.5592950000000 1.0
C      1  0.5615640000000  0.5233320000000  0.4413180000000 1.0
C      1  0.5640220000000  0.5063340000000  0.4695530000000 1.0
C      1  0.6101430000000  0.5042930000000  0.4862940000000 1.0
C      1  0.4427670000000  0.4545760000000  0.4224210000000 1.0
C      1  0.4930160000000  0.4920380000000  0.4896710000000 1.0
C      1  0.5827230000000  0.5175380000000  0.4909090000000 1.0
C      1  0.5273940000000  0.5891190000000  0.5226490000000 1.0
C      1  0.5206980000000  0.3960330000000  0.4466250000000 1.0
C      1  0.4034030000000  0.4808390000000  0.4386400000000 1.0
C      1  0.4269360000000  0.5579920000000  0.4830330000000 1.0
C      1  0.3989890000000  0.4592420000000  0.5439620000000 1.0
C      1  0.4702440000000  0.4335510000000  0.4633160000000 1.0
C      1  0.5577000000000  0.5718630000000  0.4834160000000 1.0
C      1  0.5543330000000  0.5932950000000  0.5348410000000 1.0
C      1  0.5012830000000  0.5394930000000  0.5867310000000 1.0
C      1  0.6104580000000  0.4543500000000  0.4791700000000 1.0
C      1  0.3864070000000  0.5040140000000  0.5097190000000 1.0
C      1  0.5313140000000  0.5213730000000  0.4370300000000 1.0
C      1  0.5000060000000  0.5068550000000  0.5439160000000 1.0
C      1  0.5127010000000  0.5366060000000  0.4549040000000 1.0
C      1  0.5517640000000  0.5376870000000  0.5271140000000 1.0
C      1  0.4720420000000  0.4929150000000  0.5363010000000 1.0
C      1  0.5025040000000  0.5120530000000  0.6010770000000 1.0
C      1  0.5224710000000  0.4805870000000  0.4666860000000 1.0
C      1  0.5740910000000  0.6065800000000  0.5167760000000 1.0
C      1  0.4673780000000  0.5956190000000  0.5294490000000 1.0
C      1  0.5471120000000  0.5252560000000  0.5920420000000 1.0
C      1  0.5893990000000  0.5089460000000  0.5619670000000 1.0
C      1  0.3976930000000  0.5516710000000  0.4778370000000 1.0
C      1  0.5597040000000  0.3962460000000  0.5373930000000 1.0
C      1  0.4871590000000  0.4756080000000  0.4258920000000 1.0
C      1  0.4430280000000  0.5441870000000  0.4212490000000 1.0
C      1  0.4982850000000  0.4437060000000  0.4628500000000 1.0
C      1  0.5297890000000  0.5696800000000  0.4975040000000 1.0
C      1  0.5025020000000  0.4384560000000  0.5984110000000 1.0
C      1  0.4698330000000  0.5539650000000  0.4330100000000 1.0
C      1  0.4028540000000  0.5414560000000  0.4493830000000 1.0
C      1  0.5404200000000  0.4588010000000  0.5333380000000 1.0
C      1  0.4524560000000  0.4278020000000  0.4232950000000 1.0
C      1  0.5820230000000  0.5498870000000  0.4871760000000 1.0
C      1  0.5004450000000  0.3842460000000  0.4610810000000 1.0
C      1  0.5040300000000  0.5044540000000  0.3741810000000 1.0
C      1  0.4947420000000  0.3978580000000  0.5319990000000 1.0
C      1  0.4205580000000  0.5734290000000  0.5600610000000 1.0
C      1  0.4645080000000  0.5753250000000  0.4545400000000 1.0
C      1  0.4850020000000  0.4402240000000  0.5559970000000 1.0
C      1  0.5936280000000  0.4638480000000  0.4556510000000 1.0
C      1  0.4540660000000  0.4464050000000  0.5516100000000 1.0
C      1  0.4796940000000  0.5728430000000  0.4811300000000 1.0
C      1  0.4865680000000  0.4383540000000  0.5074820000000 1.0
C      1  0.5366820000000  0.5625430000000  0.5633400000000 1.0
C      1  0.5253080000000  0.4230680000000  0.4059340000000 1.0
C      1  0.5647320000000  0.6014630000000  0.4885480000000 1.0
C      1  0.4030050000000  0.4851040000000  0.4914370000000 1.0
C      1  0.4425340000000  0.5305110000000  0.4776610000000 1.0
C      1  0.4341400000000  0.5070740000000  0.5414240000000 1.0
C      1  0.5500540000000  0.5694080000000  0.4542900000000 1.0
C      1  0.6066620000000  0.4852280000000  0.4397870000000 1.0
C      1  0.5320970000000  0.4441650000000  0.4263080000000 1.0
C      1  0.5601780000000  0.5477570000000  0.5526080000000 1.0
C      1  0.4093170000000  0.4466700000000  0.5213760000000 1.0
C      1  0.5595940000000  0.4759280000000  0.5796970000000 1.0
C      1  0.4987330000000  0.4647720000000  0.5626890000000 1.0
C      1  0.5253940000000  0.5458540000000  0.5173630000000 1.0
C      1  0.4770480000000  0.4761810000000  0.5112980000000 1.0
C      1  0.5253280000000  0.4709310000000  0.5095910000000 1.0
C      1  0.4851020000000  0.5641750000000  0.5936840000000 1.0
C      1  0.4939450000000  0.5228840000000  0.4962830000000 1.0
C      1  0.5251940000000  0.4931850000000  0.4380440000000 1.0
C      1  0.3867170000000  0.5529390000000  0.5286450000000 1.0
C      1  0.5086960000000  0.4431170000000  0.3873650000000 1.0
C      1  0.5974350000000  0.4837940000000  0.5513380000000 1.0
C      1  0.5834870000000  0.4068740000000  0.5264730000000 1.0
C      1  0.4203460000000  0.5181030000000  0.4583140000000 1.0
C      1  0.5699370000000  0.5521640000000  0.4425530000000 1.0
C      1  0.5701280000000  0.4772060000000  0.4669880000000 1.0
C      1  0.5510130000000  0.4371460000000  0.4488200000000 1.0
C      1  0.4813430000000  0.5152980000000  0.3879900000000 1.0
C      1  0.4452570000000  0.4106050000000  0.4445610000000 1.0
C      1  0.4217160000000  0.5278920000000  0.5187200000000 1.0
C      1  0.5356920000000  0.6351950000000  0.5079890000000 1.0
C      1  0.5116350000000  0.4454600000000  0.4917830000000 1.0
C      1  0.5052660000000  0.4534320000000  0.4367560000000 1.0
C      1  0.4505840000000  0.4526620000000  0.5983270000000 1.0
C      1  0.5421010000000  0.5928990000000  0.5640970000000 1.0
C      1  0.6121660000000  0.5341790000000  0.4505880000000 1.0
C      1  0.4505410000000  0.5688190000000  0.5654420000000 1.0
C      1  0.4870340000000  0.5622360000000  0.4092330000000 1.0
C      1  0.5457090000000  0.4650210000000  0.4110780000000 1.0
C      1  0.5134350000000  0.4890770000000  0.5651880000000 1.0
C      1  0.5826400000000  0.4153370000000  0.4977700000000 1.0
C      1  0.3995100000000  0.4842340000000  0.5556880000000 1.0
C      1  0.5887070000000  0.4775300000000  0.5222800000000 1.0
C      1  0.5238200000000  0.5011310000000  0.5194380000000 1.0
C      1  0.4223420000000  0.5595740000000  0.4360720000000 1.0
C      1  0.5310690000000  0.4200670000000  0.4926440000000 1.0
C      1  0.4319720000000  0.4868480000000  0.4978790000000 1.0
C      1  0.6167420000000  0.5075630000000  0.4573850000000 1.0
C      1  0.5135020000000  0.5586230000000  0.5428270000000 1.0
C      1  0.4908220000000  0.3921910000000  0.4857830000000 1.0
C      1  0.4447540000000  0.4048820000000  0.4919540000000 1.0
C      1  0.5320540000000  0.4430170000000  0.5909940000000 1.0
C      1  0.4445050000000  0.5266550000000  0.5882030000000 1.0
C      1  0.4295650000000  0.4159990000000  0.4685620000000 1.0
C      1  0.4512460000000  0.4642600000000  0.4995950000000 1.0
C      1  0.5150100000000  0.6174100000000  0.5197640000000 1.0
C      1  0.5733880000000  0.5011960000000  0.5147530000000 1.0
C      1  0.5689960000000  0.4521110000000  0.5239000000000 1.0
C      1  0.4645020000000  0.4078980000000  0.5798610000000 1.0
C      1  0.5094130000000  0.4905430000000  0.4104030000000 1.0
C      1  0.4724880000000  0.4161370000000  0.4886100000000 1.0
C      1  0.4802360000000  0.5434030000000  0.3891500000000 1.0
C      1  0.4455500000000  0.4315240000000  0.5771000000000 1.0
C      1  0.4555010000000  0.5013170000000  0.6004120000000 1.0
C      1  0.5771570000000  0.4291980000000  0.5700210000000 1.0
C      1  0.4791320000000  0.4835660000000  0.4627350000000 1.0
C      1  0.4942500000000  0.6161800000000  0.4973750000000 1.0
C      1  0.5140470000000  0.6045500000000  0.5661460000000 1.0
C      1  0.5937240000000  0.5533610000000  0.4595530000000 1.0
C      1  0.5332900000000  0.5035820000000  0.3739250000000 1.0
C      1  0.5801030000000  0.4435670000000  0.4369570000000 1.0
C      1  0.4648380000000  0.5459460000000  0.5489630000000 1.0
C      1  0.6223880000000  0.6214060000000  0.5138510000000 1.0
C      1  0.4599390000000  0.5530770000000  0.5203270000000 1.0
C      1  0.3967080000000  0.5396290000000  0.5761480000000 1.0
C      1  0.4803920000000  0.4607140000000  0.6028260000000 1.0
C      1  0.6110740000000  0.4765110000000  0.4994750000000 1.0
C      1  0.3899110000000  0.5052890000000  0.5390650000000 1.0
C      1  0.5160550000000  0.5607940000000  0.4156180000000 1.0
C      1  0.4019840000000  0.5670270000000  0.5803220000000 1.0
C      1  0.4109490000000  0.5713040000000  0.5319750000000 1.0
C      1  0.4671550000000  0.5920640000000  0.5575070000000 1.0
C      1  0.5388890000000  0.4095420000000  0.5516880000000 1.0
C      1  0.5855180000000  0.4660530000000  0.5710630000000 1.0
C      1  0.4267790000000  0.4634400000000  0.4466020000000 1.0
C      1  0.4914750000000  0.4198190000000  0.5778800000000 1.0
C      1  0.4581460000000  0.4611380000000  0.4695910000000 1.0
C      1  0.4682020000000  0.5072790000000  0.4500250000000 1.0
C      1  0.4180740000000  0.4435880000000  0.4701180000000 1.0
C      1  0.5267080000000  0.4312690000000  0.5353860000000 1.0
C      1  0.6176440000000  0.6174880000000  0.5401010000000 1.0
END
