TITL C-950525-1983-681 -3.71773016259051e-06 125000 -915.236085088483 0 0 146 (C1) n - 1
REM
REM in /home/bkarasulu/work/CARBON/AIRSS/Generating-Clusters/EDIP-Nigel-Params/with-SteepDescent/Only-C1/SD-CG/HFTN-CG
REM
REM
REM
REM
REM
REM ./C.cell (11c1c37f851c82e70ff6c80c92926a4b)
REM
REM compiler GCC version 9.2.1 20190827 (Red Hat 9.2.1-1)
REM options -cpp -mtune=generic -march=x86-64 -g -O0 -fpre-include=/usr/include/finclude/math-vector-fortran.h
REM seed 1990089525 -1743022779 1449211517 -400871339 967105045 1550523006 -1682058361 -1757468013 -1723391768 -245090188 -2082442798 71585902 -2067342045 -1054030599 597341961 -435175658 -1547189446 -1667789045 1874914019 -2146516234 1733644667 707917917 1389380291 1584202381 1083770104 -367775004 566876280 1701211855 -751808668 -766718535 523485759 -633877291 -964167110
REM
CELL 1.54180   50.00000   50.00000   50.00000   90.00000   90.00000   90.00000
LATT -1
SFAC C  
C      1  0.4329600000000  0.4176320000000  0.4931160000000 1.0
C      1  0.5531260000000  0.4458740000000  0.4288430000000 1.0
C      1  0.5975100000000  0.5015910000000  0.5054740000000 1.0
C      1  0.5471380000000  0.5167450000000  0.5238230000000 1.0
C      1  0.5683580000000  0.4361500000000  0.5249170000000 1.0
C      1  0.4165450000000  0.4554780000000  0.5467350000000 1.0
C      1  0.4597610000000  0.5799160000000  0.5470350000000 1.0
C      1  0.5291200000000  0.5747370000000  0.5502810000000 1.0
C      1  0.5964060000000  0.5115680000000  0.5331430000000 1.0
C      1  0.5194100000000  0.5549610000000  0.5709080000000 1.0
C      1  0.5904130000000  0.5459270000000  0.5056920000000 1.0
C      1  0.5949290000000  0.5405450000000  0.5349410000000 1.0
C      1  0.4984020000000  0.4100030000000  0.5275750000000 1.0
C      1  0.4673500000000  0.4931340000000  0.4508570000000 1.0
C      1  0.3864680000000  0.5198870000000  0.5190600000000 1.0
C      1  0.4499360000000  0.5793460000000  0.4722050000000 1.0
C      1  0.5669240000000  0.5270900000000  0.4501110000000 1.0
C      1  0.3908330000000  0.5051700000000  0.4719200000000 1.0
C      1  0.5479530000000  0.4994180000000  0.5925480000000 1.0
C      1  0.5847920000000  0.4721440000000  0.5573880000000 1.0
C      1  0.5125100000000  0.5671870000000  0.4254590000000 1.0
C      1  0.4016380000000  0.5396020000000  0.5373460000000 1.0
C      1  0.4976740000000  0.6032490000000  0.4865870000000 1.0
C      1  0.5293090000000  0.5269750000000  0.5631120000000 1.0
C      1  0.5414130000000  0.4941280000000  0.4224660000000 1.0
C      1  0.5247940000000  0.4473850000000  0.5479280000000 1.0
C      1  0.5615080000000  0.5267240000000  0.4995060000000 1.0
C      1  0.4644450000000  0.5358290000000  0.4719030000000 1.0
C      1  0.5270620000000  0.4858370000000  0.3967430000000 1.0
C      1  0.5489360000000  0.5983400000000  0.4988690000000 1.0
C      1  0.5181810000000  0.4837490000000  0.4686590000000 1.0
C      1  0.4793800000000  0.4888000000000  0.5661680000000 1.0
C      1  0.6019730000000  0.5189350000000  0.4828150000000 1.0
C      1  0.5472960000000  0.4824300000000  0.4781790000000 1.0
C      1  0.5166750000000  0.4989240000000  0.5961040000000 1.0
C      1  0.4481070000000  0.4630080000000  0.5166960000000 1.0
C      1  0.5522200000000  0.5767120000000  0.4544900000000 1.0
C      1  0.3891040000000  0.4920950000000  0.5255450000000 1.0
C      1  0.4935420000000  0.4511050000000  0.5905680000000 1.0
C      1  0.4819060000000  0.4463330000000  0.4811370000000 1.0
C      1  0.4177090000000  0.5572850000000  0.5189030000000 1.0
C      1  0.4712000000000  0.4678370000000  0.4989240000000 1.0
C      1  0.5233490000000  0.3967770000000  0.5248070000000 1.0
C      1  0.4346260000000  0.4503500000000  0.4591750000000 1.0
C      1  0.5443800000000  0.4690910000000  0.5073650000000 1.0
C      1  0.4793370000000  0.3996750000000  0.4836110000000 1.0
C      1  0.4197520000000  0.5413690000000  0.4936070000000 1.0
C      1  0.5614810000000  0.4740370000000  0.4316630000000 1.0
C      1  0.4264990000000  0.4906400000000  0.4861060000000 1.0
C      1  0.4697310000000  0.4606640000000  0.5740800000000 1.0
C      1  0.5048680000000  0.4212420000000  0.4341120000000 1.0
C      1  0.4573480000000  0.5107550000000  0.4035040000000 1.0
C      1  0.5274440000000  0.4377260000000  0.4148680000000 1.0
C      1  0.4440100000000  0.4819330000000  0.5425620000000 1.0
C      1  0.4357220000000  0.5082060000000  0.5327140000000 1.0
C      1  0.4756160000000  0.6051810000000  0.5066690000000 1.0
C      1  0.5564860000000  0.5688320000000  0.5403530000000 1.0
C      1  0.5307870000000  0.4770940000000  0.5540740000000 1.0
C      1  0.5216670000000  0.4072900000000  0.4731170000000 1.0
C      1  0.5732790000000  0.5485750000000  0.5535050000000 1.0
C      1  0.5107080000000  0.5868370000000  0.5309070000000 1.0
C      1  0.5229110000000  0.4321400000000  0.4574510000000 1.0
C      1  0.5543780000000  0.5990800000000  0.4713520000000 1.0
C      1  0.4845750000000  0.5746680000000  0.4324130000000 1.0
C      1  0.4255550000000  0.4742310000000  0.4451270000000 1.0
C      1  0.4799940000000  0.4916410000000  0.4020330000000 1.0
C      1  0.4413470000000  0.5401510000000  0.5679610000000 1.0
C      1  0.5101180000000  0.5344360000000  0.4831520000000 1.0
C      1  0.5339720000000  0.4901780000000  0.5252700000000 1.0
C      1  0.4979620000000  0.3948610000000  0.4624440000000 1.0
C      1  0.5056760000000  0.5216100000000  0.4390310000000 1.0
C      1  0.5200140000000  0.5961200000000  0.5048080000000 1.0
C      1  0.5058340000000  0.4966370000000  0.5152130000000 1.0
C      1  0.4418090000000  0.5140810000000  0.5855790000000 1.0
C      1  0.5540310000000  0.5217100000000  0.4224310000000 1.0
C      1  0.4339480000000  0.4167220000000  0.5216490000000 1.0
C      1  0.4654470000000  0.5589150000000  0.4192760000000 1.0
C      1  0.4706310000000  0.5067980000000  0.5878240000000 1.0
C      1  0.5257590000000  0.5656460000000  0.4513620000000 1.0
C      1  0.4746620000000  0.5210620000000  0.4464570000000 1.0
C      1  0.4222560000000  0.4650220000000  0.5022180000000 1.0
C      1  0.5082730000000  0.4719130000000  0.6037990000000 1.0
C      1  0.4619020000000  0.4366860000000  0.4581760000000 1.0
C      1  0.4866470000000  0.4217330000000  0.5524270000000 1.0
C      1  0.5369770000000  0.5413300000000  0.4096410000000 1.0
C      1  0.5819600000000  0.4638720000000  0.4762580000000 1.0
C      1  0.5651030000000  0.5749440000000  0.5117920000000 1.0
C      1  0.4832270000000  0.5964570000000  0.5352730000000 1.0
C      1  0.4339540000000  0.5157180000000  0.5040180000000 1.0
C      1  0.5912830000000  0.5105780000000  0.4558510000000 1.0
C      1  0.5605390000000  0.5184330000000  0.5698040000000 1.0
C      1  0.4200070000000  0.4420610000000  0.4829320000000 1.0
C      1  0.5334550000000  0.4082770000000  0.5005330000000 1.0
C      1  0.5511620000000  0.5139600000000  0.4740160000000 1.0
C      1  0.4627550000000  0.5173090000000  0.4951620000000 1.0
C      1  0.4357530000000  0.4322820000000  0.5454530000000 1.0
C      1  0.4546260000000  0.4105160000000  0.4726400000000 1.0
C      1  0.5125500000000  0.4593740000000  0.4011800000000 1.0
C      1  0.4214240000000  0.5226960000000  0.5533660000000 1.0
C      1  0.5216040000000  0.5523920000000  0.5061900000000 1.0
C      1  0.4897630000000  0.5274470000000  0.5933980000000 1.0
C      1  0.3929320000000  0.5268460000000  0.4903100000000 1.0
C      1  0.5179520000000  0.4950650000000  0.4412630000000 1.0
C      1  0.4335240000000  0.4863200000000  0.5733560000000 1.0
C      1  0.5097110000000  0.4960810000000  0.5664790000000 1.0
C      1  0.4031790000000  0.4904280000000  0.4522420000000 1.0
C      1  0.4833960000000  0.5614630000000  0.5084280000000 1.0
C      1  0.5659470000000  0.4546090000000  0.5700210000000 1.0
C      1  0.5500800000000  0.5547820000000  0.4928660000000 1.0
C      1  0.4926380000000  0.4714030000000  0.5183590000000 1.0
C      1  0.4016440000000  0.4667860000000  0.5238690000000 1.0
C      1  0.4385340000000  0.5519790000000  0.4704540000000 1.0
C      1  0.5698460000000  0.5551590000000  0.4598410000000 1.0
C      1  0.4916410000000  0.4226390000000  0.5007470000000 1.0
C      1  0.4901730000000  0.5509530000000  0.5766130000000 1.0
C      1  0.4472560000000  0.4864090000000  0.4315580000000 1.0
C      1  0.5242800000000  0.5368000000000  0.4580450000000 1.0
C      1  0.5077550000000  0.4552840000000  0.4694050000000 1.0
C      1  0.4381260000000  0.5787540000000  0.5249010000000 1.0
C      1  0.4810140000000  0.5804530000000  0.4629950000000 1.0
C      1  0.4791260000000  0.4377050000000  0.4310000000000 1.0
C      1  0.5494410000000  0.4705080000000  0.5873590000000 1.0
C      1  0.5559450000000  0.4268680000000  0.5004110000000 1.0
C      1  0.4849580000000  0.4620490000000  0.4122190000000 1.0
C      1  0.5137480000000  0.4495440000000  0.5172210000000 1.0
C      1  0.4575600000000  0.5819250000000  0.5019480000000 1.0
C      1  0.4750440000000  0.5372980000000  0.5262050000000 1.0
C      1  0.5924270000000  0.4733190000000  0.5021470000000 1.0
C      1  0.5825070000000  0.4814420000000  0.4519280000000 1.0
C      1  0.5045900000000  0.5043340000000  0.4870810000000 1.0
C      1  0.5604850000000  0.4281800000000  0.4501910000000 1.0
C      1  0.4446520000000  0.4649160000000  0.5891010000000 1.0
C      1  0.5093170000000  0.5315090000000  0.4102100000000 1.0
C      1  0.4863900000000  0.5531590000000  0.4790930000000 1.0
C      1  0.4639700000000  0.4407640000000  0.5514520000000 1.0
C      1  0.5070860000000  0.4340550000000  0.5696550000000 1.0
C      1  0.4986280000000  0.5203450000000  0.5314910000000 1.0
C      1  0.5249370000000  0.5347120000000  0.5317780000000 1.0
C      1  0.5689840000000  0.4370160000000  0.4759190000000 1.0
C      1  0.5769520000000  0.4989010000000  0.5509920000000 1.0
C      1  0.5049110000000  0.5056880000000  0.3930800000000 1.0
C      1  0.5527030000000  0.4353550000000  0.5503080000000 1.0
C      1  0.5726630000000  0.4653100000000  0.5223220000000 1.0
C      1  0.4669060000000  0.5514000000000  0.5550260000000 1.0
C      1  0.4609730000000  0.4898960000000  0.4802220000000 1.0
C      1  0.4596210000000  0.5318410000000  0.4234520000000 1.0
END
