TITL C-951335-1172-729 8.16110929540149e-06 125000 -87.230406850565 0 0 17 (C1) n - 1
REM
REM in /home/bkarasulu/work/CARBON/AIRSS/Generating-Clusters/EDIP-Nigel-Params/with-SteepDescent/Only-C1/SD-CG/HFTN-CG
REM
REM
REM
REM
REM
REM ./C.cell (11c1c37f851c82e70ff6c80c92926a4b)
REM
REM compiler GCC version 9.2.1 20190827 (Red Hat 9.2.1-1)
REM options -cpp -mtune=generic -march=x86-64 -g -O0 -fpre-include=/usr/include/finclude/math-vector-fortran.h
REM seed -561359906 -71625025 -1554376314 1500312441 -1892739458 -1954781869 925703916 -768218734 28938565 -1141378156 1791610830 -733990214 2095259580 -463379093 -1894801239 -2000296212 1176486787 1590698200 95313216 2014883803 -10071398 -725917227 1000005884 -397036757 893665972 -413679334 2019346182 1942043696 2137834035 966854182 -1471541527 170048195 -147156150
REM
CELL 1.54180   50.00000   50.00000   50.00000   90.00000   90.00000   90.00000
LATT -1
SFAC C  
C      1  0.5271890000000  0.4315600000000  0.4986210000000 1.0
C      1  0.4913390000000  0.4754970000000  0.5371450000000 1.0
C      1  0.5266510000000  0.4777990000000  0.5110710000000 1.0
C      1  0.5049650000000  0.5111900000000  0.4790540000000 1.0
C      1  0.4793250000000  0.4881520000000  0.5128230000000 1.0
C      1  0.5295290000000  0.5258040000000  0.4844430000000 1.0
C      1  0.4654890000000  0.5403340000000  0.4704140000000 1.0
C      1  0.4960100000000  0.5530210000000  0.5005790000000 1.0
C      1  0.5014260000000  0.5069960000000  0.4523430000000 1.0
C      1  0.4816820000000  0.5269850000000  0.4911030000000 1.0
C      1  0.4789520000000  0.5636990000000  0.4788990000000 1.0
C      1  0.4557680000000  0.4777560000000  0.5057500000000 1.0
C      1  0.5232470000000  0.5492810000000  0.4964090000000 1.0
C      1  0.5171580000000  0.4891700000000  0.5365560000000 1.0
C      1  0.4967890000000  0.4477270000000  0.5322030000000 1.0
C      1  0.5027690000000  0.4860600000000  0.4944990000000 1.0
C      1  0.5217130000000  0.4489690000000  0.5180880000000 1.0
END
