TITL C-951342-2639-296 -3.3096874728869e-06 125000 -1192.39470551958 0 0 188 (C1) n - 1
REM
REM in /home/bkarasulu/work/CARBON/AIRSS/Generating-Clusters/EDIP-Nigel-Params/with-SteepDescent/Only-C1/SD-CG/HFTN-CG
REM
REM
REM
REM
REM
REM ./C.cell (11c1c37f851c82e70ff6c80c92926a4b)
REM
REM compiler GCC version 9.2.1 20190827 (Red Hat 9.2.1-1)
REM options -cpp -mtune=generic -march=x86-64 -g -O0 -fpre-include=/usr/include/finclude/math-vector-fortran.h
REM seed 159953931 569152393 -1804464959 -450370157 1501486954 -773202924 -1683238561 -762167177 -612595334 -651365103 -1750229251 876746435 -1055684822 -205380007 -694821605 -651262064 402384039 -1075032598 433959154 1165447639 1377850118 -646104746 564282459 1685380608 851934859 -153972958 -856775441 -2109337482 258226369 -493672486 1877202721 -2035467665 -2106066043
REM
CELL 1.54180   50.00000   50.00000   50.00000   90.00000   90.00000   90.00000
LATT -1
SFAC C  
C      1  0.4207720000000  0.5650660000000  0.4942990000000 1.0
C      1  0.5263310000000  0.5501130000000  0.4086850000000 1.0
C      1  0.5553090000000  0.5033500000000  0.4561210000000 1.0
C      1  0.4558230000000  0.5806900000000  0.4604460000000 1.0
C      1  0.4874060000000  0.4899730000000  0.5250660000000 1.0
C      1  0.5550880000000  0.4801530000000  0.5370870000000 1.0
C      1  0.5645980000000  0.4277880000000  0.4193450000000 1.0
C      1  0.6019110000000  0.4493830000000  0.5354220000000 1.0
C      1  0.5083960000000  0.5113940000000  0.5659700000000 1.0
C      1  0.4325090000000  0.5743630000000  0.5406300000000 1.0
C      1  0.4398230000000  0.4725760000000  0.4865810000000 1.0
C      1  0.4385860000000  0.4254260000000  0.5239390000000 1.0
C      1  0.5822240000000  0.4474210000000  0.4580950000000 1.0
C      1  0.4358490000000  0.5174680000000  0.4060700000000 1.0
C      1  0.4567770000000  0.4050010000000  0.4852250000000 1.0
C      1  0.4555150000000  0.5780490000000  0.5564340000000 1.0
C      1  0.4940020000000  0.5142130000000  0.5047660000000 1.0
C      1  0.4127420000000  0.4967860000000  0.5669490000000 1.0
C      1  0.5900860000000  0.4994940000000  0.4298070000000 1.0
C      1  0.4634000000000  0.4869880000000  0.4779130000000 1.0
C      1  0.4105570000000  0.5385720000000  0.5036510000000 1.0
C      1  0.4687430000000  0.5996230000000  0.4797570000000 1.0
C      1  0.5856090000000  0.4487230000000  0.4277310000000 1.0
C      1  0.5955930000000  0.5340090000000  0.4631600000000 1.0
C      1  0.5079230000000  0.5054600000000  0.3862390000000 1.0
C      1  0.5323100000000  0.5736210000000  0.5799700000000 1.0
C      1  0.4317830000000  0.4718460000000  0.5141110000000 1.0
C      1  0.4734430000000  0.3965480000000  0.5094290000000 1.0
C      1  0.4618910000000  0.5343180000000  0.5087440000000 1.0
C      1  0.5130330000000  0.6022570000000  0.4353670000000 1.0
C      1  0.4604140000000  0.4761000000000  0.4073510000000 1.0
C      1  0.5468690000000  0.5801040000000  0.5547110000000 1.0
C      1  0.4022730000000  0.4634010000000  0.5156680000000 1.0
C      1  0.5325420000000  0.6239900000000  0.4763040000000 1.0
C      1  0.4641380000000  0.4202960000000  0.5738680000000 1.0
C      1  0.6131890000000  0.5564080000000  0.5546060000000 1.0
C      1  0.5997830000000  0.4755120000000  0.5485790000000 1.0
C      1  0.5167140000000  0.4276970000000  0.4310100000000 1.0
C      1  0.3924940000000  0.5348130000000  0.4563000000000 1.0
C      1  0.4516830000000  0.4532660000000  0.5271070000000 1.0
C      1  0.4866060000000  0.4620760000000  0.4064720000000 1.0
C      1  0.5097410000000  0.4914540000000  0.5440350000000 1.0
C      1  0.4219560000000  0.5494150000000  0.5499220000000 1.0
C      1  0.5713550000000  0.5207700000000  0.4264290000000 1.0
C      1  0.4999420000000  0.6163920000000  0.5123020000000 1.0
C      1  0.4823970000000  0.5417700000000  0.4056570000000 1.0
C      1  0.5831470000000  0.4347090000000  0.5538660000000 1.0
C      1  0.4042090000000  0.5344280000000  0.5329020000000 1.0
C      1  0.4556310000000  0.4685050000000  0.5933380000000 1.0
C      1  0.5231960000000  0.4663640000000  0.5808310000000 1.0
C      1  0.5575860000000  0.4273390000000  0.5123430000000 1.0
C      1  0.3889570000000  0.5281900000000  0.4853150000000 1.0
C      1  0.5735290000000  0.4552660000000  0.5719350000000 1.0
C      1  0.4165110000000  0.4794650000000  0.4306870000000 1.0
C      1  0.4811520000000  0.4424300000000  0.5626250000000 1.0
C      1  0.3886030000000  0.4551140000000  0.4612580000000 1.0
C      1  0.4553330000000  0.4989010000000  0.5961370000000 1.0
C      1  0.5554500000000  0.4706600000000  0.4899460000000 1.0
C      1  0.5750170000000  0.5123850000000  0.5031350000000 1.0
C      1  0.4938230000000  0.3723890000000  0.5053680000000 1.0
C      1  0.4806260000000  0.5185980000000  0.3854790000000 1.0
C      1  0.5367560000000  0.5679590000000  0.4986540000000 1.0
C      1  0.5749570000000  0.5915760000000  0.4741780000000 1.0
C      1  0.5052300000000  0.5590840000000  0.4593880000000 1.0
C      1  0.4993540000000  0.4494270000000  0.5854750000000 1.0
C      1  0.4461630000000  0.4766810000000  0.4337690000000 1.0
C      1  0.6053570000000  0.5062720000000  0.4545960000000 1.0
C      1  0.4688860000000  0.5562800000000  0.4890120000000 1.0
C      1  0.5508510000000  0.5459610000000  0.4806420000000 1.0
C      1  0.5812840000000  0.4183550000000  0.4647660000000 1.0
C      1  0.4447520000000  0.4467220000000  0.4762900000000 1.0
C      1  0.5375560000000  0.4696270000000  0.4148240000000 1.0
C      1  0.5260300000000  0.5261840000000  0.3934880000000 1.0
C      1  0.5945850000000  0.5566810000000  0.5085840000000 1.0
C      1  0.5266600000000  0.6131140000000  0.5235950000000 1.0
C      1  0.5188580000000  0.3943600000000  0.5443910000000 1.0
C      1  0.5199800000000  0.5399960000000  0.6104420000000 1.0
C      1  0.4813060000000  0.5980030000000  0.5262610000000 1.0
C      1  0.5259560000000  0.4216840000000  0.4983480000000 1.0
C      1  0.5363860000000  0.5198080000000  0.4726370000000 1.0
C      1  0.4554850000000  0.5023920000000  0.4546240000000 1.0
C      1  0.4824530000000  0.4690500000000  0.4665420000000 1.0
C      1  0.5001480000000  0.4142180000000  0.5171960000000 1.0
C      1  0.3897980000000  0.4824260000000  0.4686120000000 1.0
C      1  0.5263270000000  0.5473690000000  0.4397530000000 1.0
C      1  0.5017400000000  0.4954930000000  0.6169070000000 1.0
C      1  0.5984470000000  0.4428090000000  0.5037820000000 1.0
C      1  0.4900110000000  0.3919570000000  0.4592600000000 1.0
C      1  0.4049590000000  0.4992660000000  0.4504420000000 1.0
C      1  0.5865440000000  0.5517140000000  0.5606220000000 1.0
C      1  0.5402130000000  0.4768310000000  0.4465540000000 1.0
C      1  0.4931520000000  0.5674410000000  0.5050140000000 1.0
C      1  0.5735360000000  0.4815790000000  0.5600260000000 1.0
C      1  0.5100800000000  0.5394700000000  0.5187380000000 1.0
C      1  0.4349630000000  0.4994500000000  0.5249560000000 1.0
C      1  0.5383860000000  0.5250410000000  0.5666760000000 1.0
C      1  0.4950120000000  0.4392160000000  0.5342930000000 1.0
C      1  0.4895040000000  0.4391900000000  0.4256620000000 1.0
C      1  0.4544430000000  0.4011860000000  0.5319800000000 1.0
C      1  0.4329350000000  0.5405020000000  0.4219560000000 1.0
C      1  0.3925630000000  0.4411890000000  0.5296140000000 1.0
C      1  0.4634860000000  0.4957620000000  0.5444230000000 1.0
C      1  0.5271860000000  0.4750310000000  0.4950560000000 1.0
C      1  0.4806530000000  0.4581910000000  0.5152830000000 1.0
C      1  0.4367660000000  0.5396120000000  0.5728690000000 1.0
C      1  0.4992990000000  0.6066620000000  0.4833140000000 1.0
C      1  0.4806440000000  0.5121700000000  0.6053560000000 1.0
C      1  0.5089780000000  0.4828820000000  0.4068630000000 1.0
C      1  0.5373550000000  0.5461540000000  0.5889510000000 1.0
C      1  0.5436770000000  0.5339330000000  0.5367100000000 1.0
C      1  0.4146150000000  0.4300320000000  0.5421780000000 1.0
C      1  0.5024640000000  0.5785490000000  0.5770320000000 1.0
C      1  0.4570490000000  0.5560580000000  0.4158250000000 1.0
C      1  0.5151120000000  0.5007860000000  0.4829720000000 1.0
C      1  0.5643720000000  0.5596650000000  0.5424940000000 1.0
C      1  0.5348570000000  0.4190380000000  0.5498540000000 1.0
C      1  0.5020940000000  0.5649480000000  0.4027560000000 1.0
C      1  0.5325940000000  0.4072520000000  0.4491290000000 1.0
C      1  0.4381390000000  0.5770990000000  0.5130150000000 1.0
C      1  0.5618150000000  0.4079420000000  0.4424490000000 1.0
C      1  0.5028830000000  0.4984270000000  0.4309800000000 1.0
C      1  0.4659820000000  0.5789720000000  0.4321990000000 1.0
C      1  0.4876810000000  0.4473680000000  0.4851710000000 1.0
C      1  0.4647040000000  0.5446000000000  0.5394570000000 1.0
C      1  0.5642860000000  0.4581820000000  0.5147410000000 1.0
C      1  0.4590350000000  0.5953910000000  0.5066460000000 1.0
C      1  0.4348410000000  0.5115650000000  0.5798990000000 1.0
C      1  0.6017560000000  0.4595600000000  0.4778570000000 1.0
C      1  0.4359290000000  0.4239150000000  0.4932220000000 1.0
C      1  0.3830780000000  0.4995600000000  0.4918700000000 1.0
C      1  0.5232570000000  0.4446160000000  0.5391530000000 1.0
C      1  0.4856000000000  0.5410710000000  0.4704570000000 1.0
C      1  0.4302900000000  0.5138760000000  0.4655560000000 1.0
C      1  0.5780340000000  0.5439930000000  0.4413310000000 1.0
C      1  0.4096010000000  0.4695990000000  0.5725580000000 1.0
C      1  0.4953990000000  0.5269520000000  0.4303340000000 1.0
C      1  0.4953500000000  0.5474040000000  0.5440310000000 1.0
C      1  0.4216600000000  0.4450370000000  0.5665960000000 1.0
C      1  0.4922800000000  0.4716800000000  0.6281030000000 1.0
C      1  0.5536540000000  0.5572780000000  0.4522300000000 1.0
C      1  0.5492950000000  0.4988330000000  0.6019170000000 1.0
C      1  0.5117920000000  0.5770340000000  0.4832670000000 1.0
C      1  0.5061840000000  0.3785150000000  0.4783730000000 1.0
C      1  0.4657940000000  0.4284120000000  0.4397110000000 1.0
C      1  0.5816230000000  0.4168490000000  0.4954160000000 1.0
C      1  0.4567800000000  0.5023220000000  0.3941600000000 1.0
C      1  0.4738330000000  0.5260450000000  0.4500860000000 1.0
C      1  0.5607380000000  0.5050770000000  0.5769520000000 1.0
C      1  0.5732960000000  0.4932870000000  0.4811530000000 1.0
C      1  0.3883960000000  0.4888000000000  0.5198140000000 1.0
C      1  0.4757480000000  0.4161310000000  0.4654680000000 1.0
C      1  0.4944040000000  0.5839720000000  0.4244060000000 1.0
C      1  0.4842140000000  0.5567660000000  0.5860130000000 1.0
C      1  0.5067860000000  0.4842750000000  0.4569390000000 1.0
C      1  0.4409480000000  0.4342410000000  0.5848260000000 1.0
C      1  0.4317840000000  0.5642170000000  0.4676560000000 1.0
C      1  0.5291510000000  0.3980740000000  0.4782690000000 1.0
C      1  0.5286610000000  0.4704050000000  0.5508260000000 1.0
C      1  0.5129810000000  0.3735330000000  0.5263580000000 1.0
C      1  0.6107760000000  0.4866320000000  0.4757240000000 1.0
C      1  0.4421250000000  0.4466190000000  0.4465260000000 1.0
C      1  0.4808420000000  0.4577760000000  0.6068010000000 1.0
C      1  0.5597760000000  0.4786410000000  0.3981790000000 1.0
C      1  0.5624640000000  0.4168710000000  0.5402190000000 1.0
C      1  0.4922990000000  0.5388170000000  0.6062250000000 1.0
C      1  0.5764260000000  0.5760080000000  0.5195670000000 1.0
C      1  0.4077390000000  0.5051850000000  0.5380450000000 1.0
C      1  0.5460180000000  0.6167460000000  0.5017680000000 1.0
C      1  0.5215690000000  0.4930600000000  0.5939120000000 1.0
C      1  0.4221790000000  0.5408900000000  0.4511240000000 1.0
C      1  0.4601450000000  0.3975380000000  0.5585370000000 1.0
C      1  0.4565670000000  0.5607710000000  0.5793750000000 1.0
C      1  0.4355550000000  0.5199100000000  0.5011200000000 1.0
C      1  0.5563670000000  0.5867730000000  0.4541820000000 1.0
C      1  0.5555520000000  0.5087920000000  0.5243130000000 1.0
C      1  0.5592750000000  0.5894590000000  0.4985770000000 1.0
C      1  0.5165880000000  0.4480020000000  0.4861450000000 1.0
C      1  0.5007580000000  0.5779180000000  0.5472080000000 1.0
C      1  0.5372250000000  0.4396410000000  0.4140230000000 1.0
C      1  0.5330030000000  0.6041280000000  0.4550150000000 1.0
C      1  0.5816330000000  0.4752970000000  0.4156880000000 1.0
C      1  0.5274120000000  0.5847960000000  0.5334240000000 1.0
C      1  0.5798810000000  0.5382540000000  0.4896520000000 1.0
C      1  0.4076620000000  0.4529020000000  0.4404320000000 1.0
C      1  0.5543240000000  0.4561560000000  0.4645380000000 1.0
C      1  0.6083110000000  0.5437630000000  0.5304080000000 1.0
C      1  0.4599760000000  0.4663450000000  0.5610130000000 1.0
C      1  0.4741840000000  0.5202680000000  0.5626870000000 1.0
END
