TITL C-950523-3027-384 -1.34186161406268e-06 125000 -427.437061785548 0 0 69 (C1) n - 1
REM
REM in /home/bkarasulu/work/CARBON/AIRSS/Generating-Clusters/EDIP-Nigel-Params/with-SteepDescent/Only-C1/SD-CG/HFTN-CG
REM
REM
REM
REM
REM
REM ./C.cell (11c1c37f851c82e70ff6c80c92926a4b)
REM
REM compiler GCC version 9.2.1 20190827 (Red Hat 9.2.1-1)
REM options -cpp -mtune=generic -march=x86-64 -g -O0 -fpre-include=/usr/include/finclude/math-vector-fortran.h
REM seed -107146838 -1950282445 229638334 -509367182 -2004471564 1338318452 -1797442245 224903326 1233742264 -2124853652 1719475990 -1964736840 32969060 497456656 -146800187 153871643 22677352 -1818965768 -72587444 1772689486 1589862005 1295042132 -1685429719 -766724436 -167377396 1645618011 148254521 2025372862 30086128 -225341166 31568655 -638859568 -331360626
REM
CELL 1.54180   50.00000   50.00000   50.00000   90.00000   90.00000   90.00000
LATT -1
SFAC C  
C      1  0.4829240000000  0.4331110000000  0.4610620000000 1.0
C      1  0.5465450000000  0.5465540000000  0.5388880000000 1.0
C      1  0.5155370000000  0.4844140000000  0.5476920000000 1.0
C      1  0.4624760000000  0.4599920000000  0.5285500000000 1.0
C      1  0.4335410000000  0.4684680000000  0.4900300000000 1.0
C      1  0.4224670000000  0.4851470000000  0.4701120000000 1.0
C      1  0.4174420000000  0.5211100000000  0.5003060000000 1.0
C      1  0.5298850000000  0.4501140000000  0.4560600000000 1.0
C      1  0.5147420000000  0.5637900000000  0.4968790000000 1.0
C      1  0.5485480000000  0.5062550000000  0.4568700000000 1.0
C      1  0.4912920000000  0.5182880000000  0.4290620000000 1.0
C      1  0.4641910000000  0.5079260000000  0.4281350000000 1.0
C      1  0.4648350000000  0.4781660000000  0.4320790000000 1.0
C      1  0.5588550000000  0.5414520000000  0.4873510000000 1.0
C      1  0.4260060000000  0.5128100000000  0.4738930000000 1.0
C      1  0.4417790000000  0.4788000000000  0.5162400000000 1.0
C      1  0.5734320000000  0.5404130000000  0.5332310000000 1.0
C      1  0.5032830000000  0.4300060000000  0.5167980000000 1.0
C      1  0.4681180000000  0.4360510000000  0.4843140000000 1.0
C      1  0.4204030000000  0.5495080000000  0.4978840000000 1.0
C      1  0.5229170000000  0.4250020000000  0.4977220000000 1.0
C      1  0.4990460000000  0.5565630000000  0.5535740000000 1.0
C      1  0.5022610000000  0.4468130000000  0.4463050000000 1.0
C      1  0.5306370000000  0.5421810000000  0.5127530000000 1.0
C      1  0.4797120000000  0.5631640000000  0.5338630000000 1.0
C      1  0.4961220000000  0.5439250000000  0.4437360000000 1.0
C      1  0.5451400000000  0.4878220000000  0.5556320000000 1.0
C      1  0.5645820000000  0.4794680000000  0.5341260000000 1.0
C      1  0.5099880000000  0.5173070000000  0.5115810000000 1.0
C      1  0.4956720000000  0.5095180000000  0.5590080000000 1.0
C      1  0.5419190000000  0.5328740000000  0.4654490000000 1.0
C      1  0.4415860000000  0.4431370000000  0.4822250000000 1.0
C      1  0.4640830000000  0.4767540000000  0.5764030000000 1.0
C      1  0.4849130000000  0.4936610000000  0.4790830000000 1.0
C      1  0.4596090000000  0.4903880000000  0.4617720000000 1.0
C      1  0.5402350000000  0.4398650000000  0.4817030000000 1.0
C      1  0.5716780000000  0.5261710000000  0.5088220000000 1.0
C      1  0.4695420000000  0.5786720000000  0.4891900000000 1.0
C      1  0.5076300000000  0.4943630000000  0.4337800000000 1.0
C      1  0.4899970000000  0.5759860000000  0.5083600000000 1.0
C      1  0.4652300000000  0.5383080000000  0.5254380000000 1.0
C      1  0.5742110000000  0.4942140000000  0.4615880000000 1.0
C      1  0.4932010000000  0.4693520000000  0.4291060000000 1.0
C      1  0.4820300000000  0.4489220000000  0.5073570000000 1.0
C      1  0.5094460000000  0.5343680000000  0.5675050000000 1.0
C      1  0.4740760000000  0.4603950000000  0.5561080000000 1.0
C      1  0.4568900000000  0.5664700000000  0.4677400000000 1.0
C      1  0.5524720000000  0.5094190000000  0.5720230000000 1.0
C      1  0.5744170000000  0.4680670000000  0.4503560000000 1.0
C      1  0.4710340000000  0.5034140000000  0.5751110000000 1.0
C      1  0.5772330000000  0.4785000000000  0.4879360000000 1.0
C      1  0.4415480000000  0.5283550000000  0.5417200000000 1.0
C      1  0.4732480000000  0.5597090000000  0.4464480000000 1.0
C      1  0.4977270000000  0.5192310000000  0.4850890000000 1.0
C      1  0.5151600000000  0.4878570000000  0.5168760000000 1.0
C      1  0.4500310000000  0.5190780000000  0.5667900000000 1.0
C      1  0.4951240000000  0.4748200000000  0.4991790000000 1.0
C      1  0.5616350000000  0.4525350000000  0.5248580000000 1.0
C      1  0.4334120000000  0.5508730000000  0.4724980000000 1.0
C      1  0.5124090000000  0.5408600000000  0.4696850000000 1.0
C      1  0.5377120000000  0.5313010000000  0.5622260000000 1.0
C      1  0.4877420000000  0.5194820000000  0.5316620000000 1.0
C      1  0.5035230000000  0.4576230000000  0.5565330000000 1.0
C      1  0.5479140000000  0.4656460000000  0.4385860000000 1.0
C      1  0.5365270000000  0.4932620000000  0.4343430000000 1.0
C      1  0.5119580000000  0.4351220000000  0.5424500000000 1.0
C      1  0.4295560000000  0.5066970000000  0.5234690000000 1.0
C      1  0.5689150000000  0.4968800000000  0.5103100000000 1.0
C      1  0.5620470000000  0.4532330000000  0.4964870000000 1.0
END
