TITL C-951339-9237-278 -1.02832665966651e-06 125000 -684.762598269328 0 0 112 (C1) n - 1
REM
REM in /home/bkarasulu/work/CARBON/AIRSS/Generating-Clusters/EDIP-Nigel-Params/with-SteepDescent/Only-C1/SD-CG/HFTN-CG
REM
REM
REM
REM
REM
REM ./C.cell (11c1c37f851c82e70ff6c80c92926a4b)
REM
REM compiler GCC version 9.2.1 20190827 (Red Hat 9.2.1-1)
REM options -cpp -mtune=generic -march=x86-64 -g -O0 -fpre-include=/usr/include/finclude/math-vector-fortran.h
REM seed -673155930 -1333881387 -988510023 766339427 821025389 -654529675 -389713469 315964275 1005250798 1905074205 135159342 -1280276927 -677601507 1525424821 2032024239 -390162830 -1549573875 134231509 -1391157422 -98121176 -241414636 -408384053 852344550 1655215972 1234812348 -1335272299 -209227746 1762223814 710912573 -1125602564 306323062 -1223028820 -505556462
REM
CELL 1.54180   50.00000   50.00000   50.00000   90.00000   90.00000   90.00000
LATT -1
SFAC C  
C      1  0.4739660000000  0.4247520000000  0.4579230000000 1.0
C      1  0.5731470000000  0.5545290000000  0.4742090000000 1.0
C      1  0.5215390000000  0.5357130000000  0.4250480000000 1.0
C      1  0.4889390000000  0.5409160000000  0.5796920000000 1.0
C      1  0.5219740000000  0.4919560000000  0.4063540000000 1.0
C      1  0.5349880000000  0.4845170000000  0.5448880000000 1.0
C      1  0.5580100000000  0.5178550000000  0.5614300000000 1.0
C      1  0.4608000000000  0.4482980000000  0.5298920000000 1.0
C      1  0.5104110000000  0.4736350000000  0.4245110000000 1.0
C      1  0.4585120000000  0.4112430000000  0.5058420000000 1.0
C      1  0.4586490000000  0.4931790000000  0.4222950000000 1.0
C      1  0.4766720000000  0.5610680000000  0.4299920000000 1.0
C      1  0.5186440000000  0.5933490000000  0.5115590000000 1.0
C      1  0.4808010000000  0.5761300000000  0.5267630000000 1.0
C      1  0.4105030000000  0.5221710000000  0.5070790000000 1.0
C      1  0.4787290000000  0.5482970000000  0.5538660000000 1.0
C      1  0.4643660000000  0.5068510000000  0.5939640000000 1.0
C      1  0.4300160000000  0.4784580000000  0.5655300000000 1.0
C      1  0.5078360000000  0.4113510000000  0.4929790000000 1.0
C      1  0.4671310000000  0.4951180000000  0.5411570000000 1.0
C      1  0.4853260000000  0.5267710000000  0.4618760000000 1.0
C      1  0.5554880000000  0.4608400000000  0.4282000000000 1.0
C      1  0.5612310000000  0.4952670000000  0.5778490000000 1.0
C      1  0.5075090000000  0.5151620000000  0.4092960000000 1.0
C      1  0.4339380000000  0.5644010000000  0.5410150000000 1.0
C      1  0.5481510000000  0.4706660000000  0.5787370000000 1.0
C      1  0.4694510000000  0.5044210000000  0.4725490000000 1.0
C      1  0.5143480000000  0.4561410000000  0.5074410000000 1.0
C      1  0.5589330000000  0.5326330000000  0.4354020000000 1.0
C      1  0.4553740000000  0.4703060000000  0.5519930000000 1.0
C      1  0.5986010000000  0.5089910000000  0.5222120000000 1.0
C      1  0.4776770000000  0.4302850000000  0.5592570000000 1.0
C      1  0.4863200000000  0.4828500000000  0.4859250000000 1.0
C      1  0.5063490000000  0.5166450000000  0.5203600000000 1.0
C      1  0.5821450000000  0.5354480000000  0.4537300000000 1.0
C      1  0.5174220000000  0.5807780000000  0.4470830000000 1.0
C      1  0.5121850000000  0.6056010000000  0.4871550000000 1.0
C      1  0.5749420000000  0.5202430000000  0.5366230000000 1.0
C      1  0.5275460000000  0.5164110000000  0.5527350000000 1.0
C      1  0.4783650000000  0.4542210000000  0.5017580000000 1.0
C      1  0.4677150000000  0.5345780000000  0.5977620000000 1.0
C      1  0.5467620000000  0.4430960000000  0.4681250000000 1.0
C      1  0.5214070000000  0.5070720000000  0.4968080000000 1.0
C      1  0.5285280000000  0.5662780000000  0.5087900000000 1.0
C      1  0.4992230000000  0.4300010000000  0.5400760000000 1.0
C      1  0.5941770000000  0.5109300000000  0.4678690000000 1.0
C      1  0.4325310000000  0.5684180000000  0.4824060000000 1.0
C      1  0.5563930000000  0.4858360000000  0.4493580000000 1.0
C      1  0.4109760000000  0.4950710000000  0.4957950000000 1.0
C      1  0.4229930000000  0.4472410000000  0.5067800000000 1.0
C      1  0.4621970000000  0.4326460000000  0.4841990000000 1.0
C      1  0.5190410000000  0.4427880000000  0.4550110000000 1.0
C      1  0.5373220000000  0.5257270000000  0.4808540000000 1.0
C      1  0.4902580000000  0.4908600000000  0.5240820000000 1.0
C      1  0.5262810000000  0.4337230000000  0.5553170000000 1.0
C      1  0.5059420000000  0.5612480000000  0.4293860000000 1.0
C      1  0.4652790000000  0.5376480000000  0.4430320000000 1.0
C      1  0.4807640000000  0.5085300000000  0.4138640000000 1.0
C      1  0.5261550000000  0.5541910000000  0.4814900000000 1.0
C      1  0.5626410000000  0.5407240000000  0.5211100000000 1.0
C      1  0.5418410000000  0.5149550000000  0.4511830000000 1.0
C      1  0.4589360000000  0.5342650000000  0.5112920000000 1.0
C      1  0.4914230000000  0.4968700000000  0.5860490000000 1.0
C      1  0.4414050000000  0.4706740000000  0.4658910000000 1.0
C      1  0.5004300000000  0.5964730000000  0.5323270000000 1.0
C      1  0.4631360000000  0.4706460000000  0.4438440000000 1.0
C      1  0.5901530000000  0.4577190000000  0.4679820000000 1.0
C      1  0.4390790000000  0.5134010000000  0.4291560000000 1.0
C      1  0.5289810000000  0.4276410000000  0.5062670000000 1.0
C      1  0.4148390000000  0.5456490000000  0.4895940000000 1.0
C      1  0.4971610000000  0.4695630000000  0.5773310000000 1.0
C      1  0.4991860000000  0.5942380000000  0.4651580000000 1.0
C      1  0.5021920000000  0.4196600000000  0.4637810000000 1.0
C      1  0.5777360000000  0.4425870000000  0.5007520000000 1.0
C      1  0.4945920000000  0.5489040000000  0.4815860000000 1.0
C      1  0.4726830000000  0.4554540000000  0.5719020000000 1.0
C      1  0.5519800000000  0.4349710000000  0.5428000000000 1.0
C      1  0.5594680000000  0.4797480000000  0.5263710000000 1.0
C      1  0.5491130000000  0.4719910000000  0.4758030000000 1.0
C      1  0.5690280000000  0.4520510000000  0.5273680000000 1.0
C      1  0.5391940000000  0.5523580000000  0.5305080000000 1.0
C      1  0.4614490000000  0.5719450000000  0.5500070000000 1.0
C      1  0.4437430000000  0.5601120000000  0.5113140000000 1.0
C      1  0.5709030000000  0.4432490000000  0.4487830000000 1.0
C      1  0.5234230000000  0.4555450000000  0.5750770000000 1.0
C      1  0.4390560000000  0.4960370000000  0.5861920000000 1.0
C      1  0.4547400000000  0.5701500000000  0.4612980000000 1.0
C      1  0.4130370000000  0.4877790000000  0.5427610000000 1.0
C      1  0.4884370000000  0.5415530000000  0.5111200000000 1.0
C      1  0.5862380000000  0.4852470000000  0.4560660000000 1.0
C      1  0.4363900000000  0.4460880000000  0.4801670000000 1.0
C      1  0.4798770000000  0.5749460000000  0.4763950000000 1.0
C      1  0.6054480000000  0.5130250000000  0.4947610000000 1.0
C      1  0.5273320000000  0.4505150000000  0.4267490000000 1.0
C      1  0.4293880000000  0.5376700000000  0.5534300000000 1.0
C      1  0.4118390000000  0.5181100000000  0.5372970000000 1.0
C      1  0.4390110000000  0.4279880000000  0.5237840000000 1.0
C      1  0.5091940000000  0.4683620000000  0.5352690000000 1.0
C      1  0.4512440000000  0.5204360000000  0.5370230000000 1.0
C      1  0.4295770000000  0.5161510000000  0.4558770000000 1.0
C      1  0.5642990000000  0.5300260000000  0.4938850000000 1.0
C      1  0.5286360000000  0.4792810000000  0.4944090000000 1.0
C      1  0.4879180000000  0.4126610000000  0.5149250000000 1.0
C      1  0.4213950000000  0.4915440000000  0.4685120000000 1.0
C      1  0.4177350000000  0.4751630000000  0.5159900000000 1.0
C      1  0.5694850000000  0.4947240000000  0.5008280000000 1.0
C      1  0.5546560000000  0.4264460000000  0.4910370000000 1.0
C      1  0.5091410000000  0.5189280000000  0.5778880000000 1.0
C      1  0.4503160000000  0.5186340000000  0.4882180000000 1.0
C      1  0.4938620000000  0.4724830000000  0.4538190000000 1.0
C      1  0.4677260000000  0.4426800000000  0.4365150000000 1.0
C      1  0.5484340000000  0.5686310000000  0.4653740000000 1.0
END
