TITL C-951343-2256-773 2.77796738770013e-06 125000 -667.622788305693 0 0 108 (C1) n - 1
REM
REM in /home/bkarasulu/work/CARBON/AIRSS/Generating-Clusters/EDIP-Nigel-Params/with-SteepDescent/Only-C1/SD-CG/HFTN-CG
REM
REM
REM
REM
REM
REM ./C.cell (11c1c37f851c82e70ff6c80c92926a4b)
REM
REM compiler GCC version 9.2.1 20190827 (Red Hat 9.2.1-1)
REM options -cpp -mtune=generic -march=x86-64 -g -O0 -fpre-include=/usr/include/finclude/math-vector-fortran.h
REM seed 1709282584 -1390348 213663064 1542669293 1017997441 -1939461263 704356949 -1712402252 1587477272 -1482363281 -2128821063 -1234983705 1706027361 1947719502 -270852242 369102703 552543365 1507725811 592485473 1882142033 -828036786 1928813859 340310279 -1771535497 -215133193 1593968602 340152564 -1612214334 -1649489283 -2146482454 1659382714 -1430807791 -689648831
REM
CELL 1.54180   50.00000   50.00000   50.00000   90.00000   90.00000   90.00000
LATT -1
SFAC C  
C      1  0.4443640000000  0.4565890000000  0.4332910000000 1.0
C      1  0.4536790000000  0.5026030000000  0.4194390000000 1.0
C      1  0.5484850000000  0.4186580000000  0.4721280000000 1.0
C      1  0.4762700000000  0.5692500000000  0.4402290000000 1.0
C      1  0.4695640000000  0.5671660000000  0.5393740000000 1.0
C      1  0.5103290000000  0.4605500000000  0.4868300000000 1.0
C      1  0.5376160000000  0.4572540000000  0.5000150000000 1.0
C      1  0.5003740000000  0.5622080000000  0.5755660000000 1.0
C      1  0.4598370000000  0.4858850000000  0.5835530000000 1.0
C      1  0.5160350000000  0.4715980000000  0.5352370000000 1.0
C      1  0.4647040000000  0.5300450000000  0.5695000000000 1.0
C      1  0.4888770000000  0.5840850000000  0.5277900000000 1.0
C      1  0.4318570000000  0.5707310000000  0.4596550000000 1.0
C      1  0.4184730000000  0.4668340000000  0.4374510000000 1.0
C      1  0.5446650000000  0.4582250000000  0.4409370000000 1.0
C      1  0.4798620000000  0.4357510000000  0.4562200000000 1.0
C      1  0.5587890000000  0.5564960000000  0.5133510000000 1.0
C      1  0.4774710000000  0.4832720000000  0.4536620000000 1.0
C      1  0.5061020000000  0.4151740000000  0.5385310000000 1.0
C      1  0.4444300000000  0.4888170000000  0.5578690000000 1.0
C      1  0.4909210000000  0.4258200000000  0.5154540000000 1.0
C      1  0.5155800000000  0.5751040000000  0.5196740000000 1.0
C      1  0.4141720000000  0.5375580000000  0.4879380000000 1.0
C      1  0.5034780000000  0.4114180000000  0.4899290000000 1.0
C      1  0.5852090000000  0.4601320000000  0.4994050000000 1.0
C      1  0.4731970000000  0.5852350000000  0.4817060000000 1.0
C      1  0.4775450000000  0.4619540000000  0.5863980000000 1.0
C      1  0.5813720000000  0.5188520000000  0.5110860000000 1.0
C      1  0.5416030000000  0.5053040000000  0.4971300000000 1.0
C      1  0.5663970000000  0.5064020000000  0.4434940000000 1.0
C      1  0.5255510000000  0.5714650000000  0.5763050000000 1.0
C      1  0.5673800000000  0.4487040000000  0.5437890000000 1.0
C      1  0.4981460000000  0.5126680000000  0.4921300000000 1.0
C      1  0.5306130000000  0.4388970000000  0.4613070000000 1.0
C      1  0.5027120000000  0.4358280000000  0.5570680000000 1.0
C      1  0.5665880000000  0.5190500000000  0.5383930000000 1.0
C      1  0.4565390000000  0.5835500000000  0.4570670000000 1.0
C      1  0.4972740000000  0.5411170000000  0.4786220000000 1.0
C      1  0.4437320000000  0.4306050000000  0.4979830000000 1.0
C      1  0.5290330000000  0.5171760000000  0.5772970000000 1.0
C      1  0.4207970000000  0.4685740000000  0.5200930000000 1.0
C      1  0.5065830000000  0.4710120000000  0.5882500000000 1.0
C      1  0.5770850000000  0.5003050000000  0.5562190000000 1.0
C      1  0.4086010000000  0.4885730000000  0.4778160000000 1.0
C      1  0.5018220000000  0.4950680000000  0.5462670000000 1.0
C      1  0.4940860000000  0.5186880000000  0.5307160000000 1.0
C      1  0.4828890000000  0.5413030000000  0.4509330000000 1.0
C      1  0.4172640000000  0.5209300000000  0.5104220000000 1.0
C      1  0.5330810000000  0.4097420000000  0.4947030000000 1.0
C      1  0.4186960000000  0.4440260000000  0.5050370000000 1.0
C      1  0.4607840000000  0.4229590000000  0.5212940000000 1.0
C      1  0.5193130000000  0.5377110000000  0.5286580000000 1.0
C      1  0.4623420000000  0.4573550000000  0.4584710000000 1.0
C      1  0.5785790000000  0.5370120000000  0.4868290000000 1.0
C      1  0.4568940000000  0.5323310000000  0.4952980000000 1.0
C      1  0.4165730000000  0.4926660000000  0.5038360000000 1.0
C      1  0.5394840000000  0.4307840000000  0.5141510000000 1.0
C      1  0.5613840000000  0.4247150000000  0.5308030000000 1.0
C      1  0.4998600000000  0.5245550000000  0.4074130000000 1.0
C      1  0.4881740000000  0.4689020000000  0.4195920000000 1.0
C      1  0.4670980000000  0.4740430000000  0.5112470000000 1.0
C      1  0.5323710000000  0.4955790000000  0.4698960000000 1.0
C      1  0.5850450000000  0.5209180000000  0.4624610000000 1.0
C      1  0.5254410000000  0.5528860000000  0.4799730000000 1.0
C      1  0.4756880000000  0.4408870000000  0.5655670000000 1.0
C      1  0.5671860000000  0.4759040000000  0.4508160000000 1.0
C      1  0.5231790000000  0.5604970000000  0.4361670000000 1.0
C      1  0.5604390000000  0.4861850000000  0.5734790000000 1.0
C      1  0.4479440000000  0.5164410000000  0.5504780000000 1.0
C      1  0.4951120000000  0.4575060000000  0.5135240000000 1.0
C      1  0.4728430000000  0.5081730000000  0.5077420000000 1.0
C      1  0.5028580000000  0.5820860000000  0.4430530000000 1.0
C      1  0.4535210000000  0.4402830000000  0.5452280000000 1.0
C      1  0.5436950000000  0.4808400000000  0.5175460000000 1.0
C      1  0.4600340000000  0.4737100000000  0.4140110000000 1.0
C      1  0.5462700000000  0.4641800000000  0.5589320000000 1.0
C      1  0.5136390000000  0.5025340000000  0.3977870000000 1.0
C      1  0.4503940000000  0.5016180000000  0.4497180000000 1.0
C      1  0.5731810000000  0.4700840000000  0.5240860000000 1.0
C      1  0.5450020000000  0.5613910000000  0.5590310000000 1.0
C      1  0.5009200000000  0.5926120000000  0.4727140000000 1.0
C      1  0.4330330000000  0.5326330000000  0.5319500000000 1.0
C      1  0.5225730000000  0.4509500000000  0.5726640000000 1.0
C      1  0.4276030000000  0.5440410000000  0.4642130000000 1.0
C      1  0.4468250000000  0.5571320000000  0.5236320000000 1.0
C      1  0.5341990000000  0.4638010000000  0.4157320000000 1.0
C      1  0.5374780000000  0.5365880000000  0.5033690000000 1.0
C      1  0.5445590000000  0.5741890000000  0.5325260000000 1.0
C      1  0.5032820000000  0.4881710000000  0.4738660000000 1.0
C      1  0.4226940000000  0.4889130000000  0.4540120000000 1.0
C      1  0.4463680000000  0.4681420000000  0.5356120000000 1.0
C      1  0.4781080000000  0.5589160000000  0.4969930000000 1.0
C      1  0.4776910000000  0.5101570000000  0.5865890000000 1.0
C      1  0.5476780000000  0.5026570000000  0.5920040000000 1.0
C      1  0.5035840000000  0.4243600000000  0.4632220000000 1.0
C      1  0.5045150000000  0.4993530000000  0.5752100000000 1.0
C      1  0.5117050000000  0.4759190000000  0.4053200000000 1.0
C      1  0.4503270000000  0.4595260000000  0.4880880000000 1.0
C      1  0.4724840000000  0.5200840000000  0.4083070000000 1.0
C      1  0.4816990000000  0.5502920000000  0.5589190000000 1.0
C      1  0.4535160000000  0.5291710000000  0.4632020000000 1.0
C      1  0.5375660000000  0.5139770000000  0.4480900000000 1.0
C      1  0.5207880000000  0.5795050000000  0.4905600000000 1.0
C      1  0.5714890000000  0.4774030000000  0.4802640000000 1.0
C      1  0.5426270000000  0.5569440000000  0.4561990000000 1.0
C      1  0.5403180000000  0.5325780000000  0.5516790000000 1.0
C      1  0.5931850000000  0.4973350000000  0.4906190000000 1.0
C      1  0.5091310000000  0.5336650000000  0.4340910000000 1.0
END
