TITL C-950523-3027-297 -2.61121768926017e-06 125000 -814.73339019943 0 0 129 (C1) n - 1
REM
REM in /home/bkarasulu/work/CARBON/AIRSS/Generating-Clusters/EDIP-Nigel-Params/with-SteepDescent/Only-C1/SD-CG/HFTN-CG
REM
REM
REM
REM
REM
REM ./C.cell (11c1c37f851c82e70ff6c80c92926a4b)
REM
REM compiler GCC version 9.2.1 20190827 (Red Hat 9.2.1-1)
REM options -cpp -mtune=generic -march=x86-64 -g -O0 -fpre-include=/usr/include/finclude/math-vector-fortran.h
REM seed 1688966615 -6199190 -1092227669 1903517376 267828408 24653354 -393638434 1488110939 387600654 98949432 -1744622160 -2070342687 -623660557 -522408930 -1417986820 -1837958896 -651558741 -821444813 -1114910782 -1401062022 -472295545 447341858 -544855709 -1148972027 263314820 -1520922574 -1194309621 -981779673 -1761228561 2057918139 -1445383023 -895244865 -2102758301
REM
CELL 1.54180   50.00000   50.00000   50.00000   90.00000   90.00000   90.00000
LATT -1
SFAC C  
C      1  0.5333190000000  0.4519550000000  0.5489770000000 1.0
C      1  0.4244380000000  0.5148650000000  0.4761040000000 1.0
C      1  0.5075000000000  0.3978040000000  0.4839520000000 1.0
C      1  0.5583600000000  0.4373590000000  0.5344490000000 1.0
C      1  0.4652550000000  0.5771010000000  0.4679350000000 1.0
C      1  0.5473470000000  0.5466670000000  0.4556400000000 1.0
C      1  0.5810770000000  0.5320050000000  0.5226690000000 1.0
C      1  0.5340910000000  0.4607030000000  0.4874660000000 1.0
C      1  0.4522770000000  0.5376410000000  0.4403260000000 1.0
C      1  0.5870170000000  0.4695490000000  0.4426840000000 1.0
C      1  0.4196370000000  0.4544920000000  0.5011750000000 1.0
C      1  0.4833010000000  0.6126590000000  0.4943500000000 1.0
C      1  0.4459710000000  0.4668470000000  0.5126350000000 1.0
C      1  0.4941730000000  0.5467310000000  0.5301710000000 1.0
C      1  0.4666050000000  0.4626000000000  0.4930930000000 1.0
C      1  0.5235260000000  0.4886010000000  0.4331300000000 1.0
C      1  0.4758070000000  0.5939580000000  0.5143640000000 1.0
C      1  0.4570600000000  0.4784230000000  0.4709770000000 1.0
C      1  0.4457450000000  0.4457750000000  0.5369490000000 1.0
C      1  0.5625380000000  0.5509280000000  0.5065260000000 1.0
C      1  0.5411660000000  0.4627640000000  0.4327400000000 1.0
C      1  0.5330830000000  0.5135920000000  0.4912580000000 1.0
C      1  0.4826530000000  0.5176120000000  0.4914230000000 1.0
C      1  0.5315050000000  0.4253600000000  0.4528550000000 1.0
C      1  0.4480410000000  0.4203560000000  0.5209280000000 1.0
C      1  0.5204520000000  0.6054400000000  0.5283780000000 1.0
C      1  0.4924260000000  0.5095920000000  0.6017140000000 1.0
C      1  0.4727870000000  0.5566250000000  0.4475180000000 1.0
C      1  0.4885350000000  0.5963160000000  0.4720490000000 1.0
C      1  0.4918540000000  0.5860890000000  0.5616490000000 1.0
C      1  0.4480170000000  0.5560100000000  0.5528840000000 1.0
C      1  0.4906980000000  0.4790670000000  0.6016540000000 1.0
C      1  0.4994480000000  0.5440100000000  0.4465220000000 1.0
C      1  0.4097440000000  0.5209570000000  0.5021130000000 1.0
C      1  0.5897240000000  0.5291520000000  0.4707780000000 1.0
C      1  0.5687440000000  0.4678990000000  0.4207350000000 1.0
C      1  0.5576650000000  0.4998960000000  0.4483200000000 1.0
C      1  0.4359630000000  0.5624670000000  0.5027350000000 1.0
C      1  0.5222530000000  0.4093510000000  0.5096530000000 1.0
C      1  0.5364120000000  0.5980500000000  0.4842020000000 1.0
C      1  0.4656530000000  0.5690970000000  0.4992570000000 1.0
C      1  0.5374800000000  0.4814640000000  0.5360820000000 1.0
C      1  0.5213950000000  0.5621050000000  0.4555790000000 1.0
C      1  0.5709210000000  0.5500430000000  0.4761940000000 1.0
C      1  0.5235430000000  0.4363070000000  0.4261220000000 1.0
C      1  0.5156900000000  0.5032010000000  0.5320840000000 1.0
C      1  0.4932180000000  0.4375030000000  0.4259790000000 1.0
C      1  0.5120820000000  0.4447530000000  0.4958710000000 1.0
C      1  0.4982960000000  0.5174530000000  0.4650620000000 1.0
C      1  0.4270660000000  0.5383020000000  0.5175810000000 1.0
C      1  0.4777790000000  0.3976260000000  0.4881950000000 1.0
C      1  0.5417740000000  0.5982890000000  0.5115490000000 1.0
C      1  0.4085480000000  0.4791730000000  0.5353160000000 1.0
C      1  0.5766170000000  0.4932720000000  0.5533560000000 1.0
C      1  0.5373600000000  0.4593220000000  0.5784720000000 1.0
C      1  0.5492920000000  0.4455880000000  0.4665460000000 1.0
C      1  0.5494470000000  0.4734630000000  0.5095340000000 1.0
C      1  0.5149840000000  0.5461840000000  0.5724060000000 1.0
C      1  0.4363340000000  0.4201200000000  0.4692580000000 1.0
C      1  0.4431010000000  0.4806260000000  0.5915700000000 1.0
C      1  0.4271100000000  0.4427120000000  0.4517510000000 1.0
C      1  0.5427080000000  0.5565750000000  0.5699670000000 1.0
C      1  0.5531690000000  0.4846440000000  0.5718260000000 1.0
C      1  0.5747560000000  0.5222880000000  0.5507160000000 1.0
C      1  0.4423730000000  0.4967050000000  0.5184720000000 1.0
C      1  0.5017510000000  0.4963020000000  0.5052440000000 1.0
C      1  0.4607890000000  0.5136220000000  0.4256460000000 1.0
C      1  0.4419670000000  0.5082120000000  0.5875310000000 1.0
C      1  0.5526810000000  0.4195720000000  0.5108600000000 1.0
C      1  0.5210590000000  0.5329760000000  0.5305680000000 1.0
C      1  0.4838590000000  0.5455710000000  0.5032520000000 1.0
C      1  0.4825240000000  0.4592910000000  0.5366180000000 1.0
C      1  0.4524200000000  0.4665110000000  0.4145850000000 1.0
C      1  0.4413760000000  0.4929590000000  0.4199930000000 1.0
C      1  0.4644110000000  0.4101990000000  0.4638090000000 1.0
C      1  0.4753000000000  0.4148320000000  0.5119590000000 1.0
C      1  0.4530850000000  0.5051690000000  0.4879720000000 1.0
C      1  0.5129360000000  0.5164940000000  0.5801400000000 1.0
C      1  0.5870100000000  0.4759250000000  0.4704050000000 1.0
C      1  0.4294760000000  0.5637490000000  0.4740410000000 1.0
C      1  0.4972500000000  0.5907280000000  0.5344780000000 1.0
C      1  0.5002010000000  0.4170690000000  0.5282350000000 1.0
C      1  0.4869470000000  0.5133180000000  0.4112450000000 1.0
C      1  0.5865570000000  0.4523090000000  0.4899140000000 1.0
C      1  0.4150510000000  0.4522290000000  0.5404260000000 1.0
C      1  0.5587080000000  0.5771190000000  0.5225030000000 1.0
C      1  0.4272190000000  0.4665010000000  0.4700590000000 1.0
C      1  0.4167300000000  0.4938360000000  0.4333320000000 1.0
C      1  0.5052740000000  0.5353560000000  0.4187010000000 1.0
C      1  0.5148930000000  0.4657510000000  0.5943250000000 1.0
C      1  0.4279740000000  0.4250450000000  0.4985320000000 1.0
C      1  0.5349810000000  0.5389680000000  0.5057180000000 1.0
C      1  0.4373530000000  0.4458460000000  0.4258840000000 1.0
C      1  0.5043780000000  0.4407160000000  0.5449490000000 1.0
C      1  0.4266890000000  0.5189990000000  0.5661330000000 1.0
C      1  0.5323980000000  0.5350890000000  0.4112620000000 1.0
C      1  0.4128830000000  0.4912690000000  0.4607550000000 1.0
C      1  0.4711680000000  0.5341840000000  0.5466400000000 1.0
C      1  0.4246810000000  0.5400730000000  0.5471180000000 1.0
C      1  0.5679790000000  0.4292980000000  0.4846290000000 1.0
C      1  0.5578140000000  0.5318720000000  0.5732020000000 1.0
C      1  0.4841860000000  0.4322260000000  0.4549490000000 1.0
C      1  0.5965970000000  0.5032040000000  0.4810970000000 1.0
C      1  0.5373110000000  0.5188000000000  0.4616740000000 1.0
C      1  0.4687520000000  0.4731860000000  0.5824710000000 1.0
C      1  0.5011090000000  0.4869720000000  0.4112900000000 1.0
C      1  0.5554670000000  0.5409850000000  0.4265710000000 1.0
C      1  0.5898790000000  0.4822430000000  0.5293040000000 1.0
C      1  0.4291240000000  0.5392520000000  0.4587520000000 1.0
C      1  0.5749470000000  0.4588500000000  0.5173350000000 1.0
C      1  0.5155020000000  0.5851610000000  0.4712910000000 1.0
C      1  0.5083680000000  0.4253430000000  0.4707910000000 1.0
C      1  0.4606720000000  0.5048140000000  0.5416670000000 1.0
C      1  0.4660220000000  0.5235320000000  0.5950310000000 1.0
C      1  0.4778680000000  0.4837880000000  0.5550420000000 1.0
C      1  0.4914210000000  0.4660570000000  0.5070890000000 1.0
C      1  0.4817810000000  0.4712280000000  0.4523110000000 1.0
C      1  0.4676100000000  0.5490050000000  0.5787580000000 1.0
C      1  0.5048800000000  0.4892680000000  0.4563670000000 1.0
C      1  0.5726420000000  0.5168780000000  0.4276420000000 1.0
C      1  0.4815880000000  0.4655230000000  0.4219150000000 1.0
C      1  0.5565370000000  0.4980600000000  0.4992340000000 1.0
C      1  0.5421580000000  0.5092670000000  0.5850390000000 1.0
C      1  0.4013030000000  0.4983760000000  0.5170120000000 1.0
C      1  0.4931480000000  0.5640400000000  0.5785880000000 1.0
C      1  0.5534370000000  0.5732950000000  0.5499110000000 1.0
C      1  0.5666050000000  0.4947620000000  0.4100330000000 1.0
C      1  0.5841110000000  0.5050610000000  0.5087550000000 1.0
C      1  0.5022910000000  0.4997830000000  0.5569950000000 1.0
END
