TITL C-950530-3293-448 4.54321121064495e-08 125000 -82.2076955778863 0 0 16 (C1) n - 1
REM
REM in /home/bkarasulu/work/CARBON/AIRSS/Generating-Clusters/EDIP-Nigel-Params/with-SteepDescent/Only-C1/SD-CG/HFTN-CG
REM
REM
REM
REM
REM
REM ./C.cell (11c1c37f851c82e70ff6c80c92926a4b)
REM
REM compiler GCC version 9.2.1 20190827 (Red Hat 9.2.1-1)
REM options -cpp -mtune=generic -march=x86-64 -g -O0 -fpre-include=/usr/include/finclude/math-vector-fortran.h
REM seed -49235253 212413821 1464693249 837016451 768444885 740105398 -955125267 1564106651 -1535911336 1498084952 -953686285 -695989185 -1595740758 1280081849 1393504861 -1457969059 -807819715 1152472954 -504720768 -984020308 1064133838 -1889044172 -391069025 1269257025 630055967 -1156274484 302083017 -983743173 107652370 -739579073 -11992257 577987556 834201397
REM
CELL 1.54180   50.00000   50.00000   50.00000   90.00000   90.00000   90.00000
LATT -1
SFAC C  
C      1  0.5291480000000  0.4962510000000  0.4794090000000 1.0
C      1  0.4736010000000  0.5096030000000  0.4733480000000 1.0
C      1  0.5372890000000  0.5377200000000  0.5197200000000 1.0
C      1  0.5466040000000  0.5130360000000  0.4923540000000 1.0
C      1  0.4707960000000  0.4488880000000  0.5190400000000 1.0
C      1  0.4741170000000  0.4741640000000  0.5122690000000 1.0
C      1  0.4883790000000  0.4920270000000  0.5293580000000 1.0
C      1  0.4897670000000  0.5194290000000  0.5210360000000 1.0
C      1  0.4942500000000  0.4850930000000  0.5542150000000 1.0
C      1  0.4502750000000  0.5129030000000  0.4612120000000 1.0
C      1  0.4828590000000  0.4825240000000  0.4765440000000 1.0
C      1  0.4788010000000  0.5245090000000  0.4961030000000 1.0
C      1  0.5107830000000  0.4769570000000  0.4721670000000 1.0
C      1  0.5183860000000  0.4516030000000  0.4717200000000 1.0
C      1  0.5114520000000  0.5346920000000  0.5286930000000 1.0
C      1  0.5434920000000  0.5406040000000  0.4928110000000 1.0
END
