TITL C-951334-9093-232 -2.30389805889009e-07 125000 -802.581059687078 0 0 129 (C1) n - 1
REM
REM in /home/bkarasulu/work/CARBON/AIRSS/Generating-Clusters/EDIP-Nigel-Params/with-SteepDescent/Only-C1/SD-CG/HFTN-CG
REM
REM
REM
REM
REM
REM ./C.cell (11c1c37f851c82e70ff6c80c92926a4b)
REM
REM compiler GCC version 9.2.1 20190827 (Red Hat 9.2.1-1)
REM options -cpp -mtune=generic -march=x86-64 -g -O0 -fpre-include=/usr/include/finclude/math-vector-fortran.h
REM seed 238037592 -258409244 2020893955 1563099729 992153734 1828158838 279588904 -946976917 42198107 -564492720 -1164679140 287791936 1297094463 -1810855117 -209176538 -1157099844 -1885745721 88130611 -302660773 631584255 -1764398623 725405072 -311495093 361936135 540749025 1307102374 -1055667588 1664009596 1531679818 -1564566505 -719664121 -2134894160 -296358380
REM
CELL 1.54180   50.00000   50.00000   50.00000   90.00000   90.00000   90.00000
LATT -1
SFAC C  
C      1  0.5943260000000  0.5245120000000  0.5342480000000 1.0
C      1  0.4086630000000  0.5557080000000  0.5041740000000 1.0
C      1  0.5204320000000  0.4654280000000  0.4257600000000 1.0
C      1  0.4264010000000  0.4942890000000  0.4899710000000 1.0
C      1  0.5177150000000  0.5552410000000  0.3941180000000 1.0
C      1  0.5697090000000  0.5404230000000  0.5366430000000 1.0
C      1  0.4947460000000  0.5685410000000  0.4583740000000 1.0
C      1  0.5085680000000  0.4616750000000  0.5206820000000 1.0
C      1  0.4316570000000  0.5264930000000  0.4522110000000 1.0
C      1  0.4602690000000  0.5572960000000  0.4289800000000 1.0
C      1  0.4904450000000  0.5815810000000  0.5534360000000 1.0
C      1  0.5071480000000  0.5304910000000  0.4030780000000 1.0
C      1  0.4553760000000  0.4180840000000  0.5089270000000 1.0
C      1  0.4315060000000  0.5580170000000  0.5225390000000 1.0
C      1  0.5521040000000  0.4137950000000  0.5103510000000 1.0
C      1  0.5517150000000  0.5725530000000  0.5065250000000 1.0
C      1  0.5529750000000  0.5400190000000  0.5602050000000 1.0
C      1  0.5655440000000  0.4518810000000  0.5345680000000 1.0
C      1  0.4997790000000  0.4487500000000  0.4378430000000 1.0
C      1  0.4745380000000  0.4184760000000  0.4687200000000 1.0
C      1  0.5032890000000  0.4068240000000  0.5107800000000 1.0
C      1  0.4569310000000  0.4554510000000  0.5841930000000 1.0
C      1  0.5636890000000  0.4929320000000  0.4292420000000 1.0
C      1  0.5131040000000  0.4286900000000  0.5837060000000 1.0
C      1  0.4839730000000  0.4842430000000  0.5627690000000 1.0
C      1  0.4963620000000  0.4704530000000  0.4762470000000 1.0
C      1  0.4588050000000  0.5851090000000  0.4333440000000 1.0
C      1  0.4992120000000  0.5241010000000  0.4333360000000 1.0
C      1  0.4793900000000  0.5473480000000  0.5797520000000 1.0
C      1  0.4306220000000  0.4655850000000  0.5825710000000 1.0
C      1  0.4110820000000  0.4881710000000  0.5425140000000 1.0
C      1  0.5277870000000  0.4058610000000  0.4939910000000 1.0
C      1  0.4846080000000  0.5210930000000  0.5878460000000 1.0
C      1  0.3879310000000  0.5165790000000  0.4853210000000 1.0
C      1  0.4761140000000  0.4776510000000  0.5908170000000 1.0
C      1  0.4585670000000  0.4168850000000  0.5530420000000 1.0
C      1  0.5942830000000  0.5103450000000  0.4787900000000 1.0
C      1  0.4744120000000  0.5023320000000  0.5143340000000 1.0
C      1  0.4153870000000  0.4313210000000  0.4859360000000 1.0
C      1  0.5019920000000  0.4111980000000  0.5655890000000 1.0
C      1  0.5104010000000  0.5371530000000  0.5033520000000 1.0
C      1  0.4519900000000  0.5112810000000  0.4722600000000 1.0
C      1  0.5874150000000  0.4548810000000  0.4619840000000 1.0
C      1  0.5477460000000  0.4694190000000  0.4364690000000 1.0
C      1  0.4089880000000  0.4487180000000  0.5085700000000 1.0
C      1  0.5372490000000  0.5615640000000  0.4130160000000 1.0
C      1  0.5364520000000  0.4741210000000  0.5829790000000 1.0
C      1  0.4383730000000  0.4676470000000  0.4922480000000 1.0
C      1  0.4814420000000  0.5938560000000  0.4476240000000 1.0
C      1  0.5515150000000  0.4890390000000  0.5153900000000 1.0
C      1  0.5346170000000  0.4660800000000  0.5059560000000 1.0
C      1  0.4014570000000  0.4956170000000  0.4729510000000 1.0
C      1  0.4877540000000  0.4935450000000  0.4358400000000 1.0
C      1  0.4529920000000  0.5187490000000  0.5033820000000 1.0
C      1  0.5762470000000  0.4773950000000  0.5440820000000 1.0
C      1  0.5032080000000  0.5189470000000  0.4795470000000 1.0
C      1  0.4606880000000  0.4802350000000  0.4274680000000 1.0
C      1  0.5267270000000  0.4727210000000  0.4756370000000 1.0
C      1  0.5009700000000  0.4587670000000  0.5496290000000 1.0
C      1  0.5508180000000  0.5121400000000  0.4105820000000 1.0
C      1  0.5126880000000  0.4082600000000  0.5393130000000 1.0
C      1  0.5452460000000  0.5111290000000  0.5600680000000 1.0
C      1  0.5337240000000  0.5831090000000  0.4855940000000 1.0
C      1  0.5697500000000  0.4406790000000  0.5080220000000 1.0
C      1  0.5347150000000  0.5070060000000  0.5324440000000 1.0
C      1  0.5267020000000  0.4216280000000  0.4696710000000 1.0
C      1  0.5296300000000  0.5568350000000  0.5544290000000 1.0
C      1  0.4520400000000  0.4021500000000  0.5315130000000 1.0
C      1  0.5405200000000  0.5307030000000  0.5131650000000 1.0
C      1  0.4279240000000  0.5362630000000  0.5437690000000 1.0
C      1  0.5202520000000  0.5221400000000  0.4565780000000 1.0
C      1  0.4287150000000  0.4887680000000  0.5667020000000 1.0
C      1  0.5454520000000  0.5778370000000  0.4593890000000 1.0
C      1  0.5015170000000  0.4251390000000  0.4552820000000 1.0
C      1  0.5415770000000  0.4122770000000  0.5382560000000 1.0
C      1  0.4348060000000  0.4544300000000  0.4629300000000 1.0
C      1  0.5243210000000  0.5071730000000  0.3977540000000 1.0
C      1  0.5647150000000  0.4886010000000  0.5688100000000 1.0
C      1  0.4675890000000  0.5027660000000  0.6019190000000 1.0
C      1  0.5765150000000  0.5110000000000  0.4516570000000 1.0
C      1  0.6114340000000  0.5376880000000  0.5163100000000 1.0
C      1  0.4657820000000  0.4441790000000  0.5570070000000 1.0
C      1  0.4812090000000  0.5454510000000  0.4447650000000 1.0
C      1  0.4162200000000  0.5140930000000  0.5273010000000 1.0
C      1  0.5410770000000  0.5014040000000  0.4653110000000 1.0
C      1  0.4839210000000  0.4971700000000  0.4676370000000 1.0
C      1  0.5713450000000  0.5529900000000  0.4909490000000 1.0
C      1  0.4904010000000  0.5889700000000  0.5052650000000 1.0
C      1  0.5482770000000  0.4370150000000  0.5520170000000 1.0
C      1  0.5314140000000  0.5712090000000  0.5291120000000 1.0
C      1  0.5844920000000  0.4598170000000  0.4893900000000 1.0
C      1  0.5063610000000  0.5694620000000  0.4881680000000 1.0
C      1  0.4550810000000  0.4968550000000  0.5534600000000 1.0
C      1  0.4873970000000  0.4564030000000  0.5013990000000 1.0
C      1  0.4618790000000  0.5785660000000  0.5525270000000 1.0
C      1  0.5439320000000  0.4450590000000  0.4742400000000 1.0
C      1  0.4626620000000  0.5927550000000  0.5095010000000 1.0
C      1  0.5968640000000  0.5375390000000  0.4920920000000 1.0
C      1  0.5251250000000  0.4498400000000  0.5675700000000 1.0
C      1  0.4391220000000  0.4153130000000  0.4860830000000 1.0
C      1  0.4449400000000  0.5848840000000  0.5301080000000 1.0
C      1  0.4373460000000  0.5420290000000  0.4297290000000 1.0
C      1  0.5105730000000  0.4835860000000  0.4066780000000 1.0
C      1  0.4640230000000  0.4724440000000  0.5108860000000 1.0
C      1  0.4512220000000  0.4643100000000  0.5372960000000 1.0
C      1  0.4815100000000  0.4250040000000  0.4985980000000 1.0
C      1  0.4165080000000  0.5013750000000  0.4477280000000 1.0
C      1  0.4566640000000  0.5466210000000  0.5111030000000 1.0
C      1  0.5569270000000  0.5112310000000  0.4907990000000 1.0
C      1  0.5062110000000  0.5865120000000  0.5293340000000 1.0
C      1  0.5298530000000  0.5791380000000  0.4349910000000 1.0
C      1  0.5656510000000  0.5581020000000  0.4632690000000 1.0
C      1  0.4367420000000  0.4795040000000  0.4454110000000 1.0
C      1  0.5729390000000  0.5392920000000  0.4426570000000 1.0
C      1  0.4992020000000  0.5092700000000  0.5646960000000 1.0
C      1  0.5931310000000  0.4950180000000  0.5269920000000 1.0
C      1  0.4733640000000  0.5446960000000  0.5370280000000 1.0
C      1  0.5032490000000  0.5612750000000  0.5692890000000 1.0
C      1  0.5921740000000  0.4871190000000  0.4983560000000 1.0
C      1  0.4572590000000  0.4381510000000  0.4526890000000 1.0
C      1  0.5067810000000  0.5964410000000  0.4335590000000 1.0
C      1  0.4937440000000  0.5224240000000  0.5295160000000 1.0
C      1  0.5565060000000  0.5399060000000  0.4185940000000 1.0
C      1  0.4716110000000  0.4524920000000  0.4314190000000 1.0
C      1  0.3995810000000  0.5289730000000  0.5075480000000 1.0
C      1  0.5242380000000  0.5030160000000  0.5788040000000 1.0
C      1  0.4211110000000  0.4613070000000  0.5324450000000 1.0
C      1  0.5619040000000  0.4497880000000  0.4523400000000 1.0
C      1  0.4544400000000  0.5291210000000  0.5563270000000 1.0
END
