TITL C-950532-2784-588 -1.80533087461431e-06 125000 -263.43977414911 0 0 43 (C1) n - 1
REM
REM in /home/bkarasulu/work/CARBON/AIRSS/Generating-Clusters/EDIP-Nigel-Params/with-SteepDescent/Only-C1/SD-CG/HFTN-CG
REM
REM
REM
REM
REM
REM ./C.cell (11c1c37f851c82e70ff6c80c92926a4b)
REM
REM compiler GCC version 9.2.1 20190827 (Red Hat 9.2.1-1)
REM options -cpp -mtune=generic -march=x86-64 -g -O0 -fpre-include=/usr/include/finclude/math-vector-fortran.h
REM seed 942429704 616948021 125357137 1153273516 -108320332 -1825770555 1152588953 -742534028 -2101846457 2113471428 -1807902217 -785341050 284514712 2039129865 356105782 -751189496 748636884 -492649411 163784706 342254165 -1871038835 -1339480863 -369945481 1354625400 -867106493 -1981650118 828729019 -498351898 -523169107 -1579630962 377115619 -810753339 763115260
REM
CELL 1.54180   50.00000   50.00000   50.00000   90.00000   90.00000   90.00000
LATT -1
SFAC C  
C      1  0.4409570000000  0.4682040000000  0.5060540000000 1.0
C      1  0.5294220000000  0.4962740000000  0.4329470000000 1.0
C      1  0.5839190000000  0.4929250000000  0.5064290000000 1.0
C      1  0.5125830000000  0.5123570000000  0.4169990000000 1.0
C      1  0.5313320000000  0.4849670000000  0.5587070000000 1.0
C      1  0.4298580000000  0.4974020000000  0.4668080000000 1.0
C      1  0.5042860000000  0.4799090000000  0.5621970000000 1.0
C      1  0.5044720000000  0.4851190000000  0.4743070000000 1.0
C      1  0.4726630000000  0.5475140000000  0.4688750000000 1.0
C      1  0.5202430000000  0.5416720000000  0.4804250000000 1.0
C      1  0.4757370000000  0.4877030000000  0.4768720000000 1.0
C      1  0.5620760000000  0.5167910000000  0.4846980000000 1.0
C      1  0.5037720000000  0.5325520000000  0.4343390000000 1.0
C      1  0.4490360000000  0.5398890000000  0.4833000000000 1.0
C      1  0.4369770000000  0.5395350000000  0.5320540000000 1.0
C      1  0.4551350000000  0.5365970000000  0.5111840000000 1.0
C      1  0.5557350000000  0.4550820000000  0.5168260000000 1.0
C      1  0.5453450000000  0.4979430000000  0.5384430000000 1.0
C      1  0.5231510000000  0.5420740000000  0.4525780000000 1.0
C      1  0.4449350000000  0.5240000000000  0.5524200000000 1.0
C      1  0.5282510000000  0.5158920000000  0.5226830000000 1.0
C      1  0.4925380000000  0.4436410000000  0.5333220000000 1.0
C      1  0.4875060000000  0.5005720000000  0.5501920000000 1.0
C      1  0.4568210000000  0.5069670000000  0.4644510000000 1.0
C      1  0.4932370000000  0.5424260000000  0.4885750000000 1.0
C      1  0.4838610000000  0.5369910000000  0.5150790000000 1.0
C      1  0.4766010000000  0.5331540000000  0.4441290000000 1.0
C      1  0.4962760000000  0.4533900000000  0.5582100000000 1.0
C      1  0.4912670000000  0.4553980000000  0.5081950000000 1.0
C      1  0.5007850000000  0.5206940000000  0.5326940000000 1.0
C      1  0.5266540000000  0.5017440000000  0.4630170000000 1.0
C      1  0.5422980000000  0.4612310000000  0.4927620000000 1.0
C      1  0.5138900000000  0.4670550000000  0.4942040000000 1.0
C      1  0.5856410000000  0.5198720000000  0.5007590000000 1.0
C      1  0.5568170000000  0.4797960000000  0.4741750000000 1.0
C      1  0.4685550000000  0.4708800000000  0.4989800000000 1.0
C      1  0.5505740000000  0.4787270000000  0.4449890000000 1.0
C      1  0.4349280000000  0.4649260000000  0.5330050000000 1.0
C      1  0.4245130000000  0.4825930000000  0.4888280000000 1.0
C      1  0.5380400000000  0.5270700000000  0.4974980000000 1.0
C      1  0.5657370000000  0.4805220000000  0.5250410000000 1.0
C      1  0.4590990000000  0.5008140000000  0.5576540000000 1.0
C      1  0.4444770000000  0.4771380000000  0.5550990000000 1.0
END
