TITL C-951336-9012-288 -8.86312307475747e-07 125000 -1181.8594515183 0 0 189 (C1) n - 1
REM
REM in /home/bkarasulu/work/CARBON/AIRSS/Generating-Clusters/EDIP-Nigel-Params/with-SteepDescent/Only-C1/SD-CG/HFTN-CG
REM
REM
REM
REM
REM
REM ./C.cell (11c1c37f851c82e70ff6c80c92926a4b)
REM
REM compiler GCC version 9.2.1 20190827 (Red Hat 9.2.1-1)
REM options -cpp -mtune=generic -march=x86-64 -g -O0 -fpre-include=/usr/include/finclude/math-vector-fortran.h
REM seed 433904596 -1441601442 2079319917 1462642225 1532849373 -704930602 -1352350464 1855621428 497444602 -1982583009 -1556306213 -1629250084 775629574 1708799926 -1347883728 -130048898 1775765980 -315857629 -140697615 1960186071 -2144758410 -1553929273 -2122180320 607141452 -1432493171 257833820 741602232 -2138721795 1492354388 -1171594850 1881921943 1651642319 -1431694794
REM
CELL 1.54180   50.00000   50.00000   50.00000   90.00000   90.00000   90.00000
LATT -1
SFAC C  
C      1  0.4268170000000  0.5676420000000  0.4604860000000 1.0
C      1  0.4902540000000  0.5453020000000  0.3861010000000 1.0
C      1  0.5282000000000  0.4544420000000  0.3950250000000 1.0
C      1  0.5557030000000  0.4187770000000  0.5507690000000 1.0
C      1  0.4144780000000  0.4662360000000  0.4310270000000 1.0
C      1  0.5127240000000  0.5723170000000  0.4423690000000 1.0
C      1  0.5470330000000  0.6034790000000  0.4634390000000 1.0
C      1  0.5656120000000  0.5042260000000  0.4485810000000 1.0
C      1  0.4683620000000  0.5399970000000  0.4630390000000 1.0
C      1  0.5728120000000  0.4297870000000  0.5040920000000 1.0
C      1  0.3988300000000  0.4989000000000  0.4718850000000 1.0
C      1  0.4870850000000  0.5133340000000  0.5437130000000 1.0
C      1  0.5161000000000  0.4885600000000  0.4766800000000 1.0
C      1  0.4426640000000  0.4765470000000  0.4276170000000 1.0
C      1  0.6016870000000  0.4859650000000  0.4772000000000 1.0
C      1  0.4614400000000  0.4501240000000  0.5416370000000 1.0
C      1  0.4026970000000  0.5421370000000  0.4947800000000 1.0
C      1  0.4441700000000  0.5392340000000  0.5267340000000 1.0
C      1  0.4339980000000  0.4118560000000  0.5523060000000 1.0
C      1  0.5347810000000  0.4824550000000  0.5736010000000 1.0
C      1  0.5311790000000  0.4346370000000  0.6046600000000 1.0
C      1  0.5344720000000  0.5254580000000  0.5392740000000 1.0
C      1  0.5387880000000  0.5086290000000  0.4360470000000 1.0
C      1  0.4480040000000  0.4645040000000  0.5017350000000 1.0
C      1  0.5096360000000  0.5645510000000  0.4734490000000 1.0
C      1  0.4996270000000  0.5989950000000  0.4401680000000 1.0
C      1  0.5359170000000  0.5569080000000  0.4881840000000 1.0
C      1  0.5180170000000  0.3861810000000  0.5018810000000 1.0
C      1  0.5674880000000  0.4825970000000  0.6015300000000 1.0
C      1  0.6119430000000  0.5145420000000  0.4699930000000 1.0
C      1  0.4241350000000  0.4988920000000  0.4869760000000 1.0
C      1  0.4421340000000  0.4899040000000  0.5376770000000 1.0
C      1  0.5843350000000  0.5847890000000  0.4826610000000 1.0
C      1  0.4976320000000  0.6027440000000  0.5352530000000 1.0
C      1  0.5046020000000  0.5134600000000  0.5822350000000 1.0
C      1  0.4146850000000  0.4407540000000  0.5165360000000 1.0
C      1  0.5174710000000  0.6071450000000  0.5142150000000 1.0
C      1  0.5448400000000  0.5120370000000  0.5150130000000 1.0
C      1  0.5768470000000  0.5062970000000  0.5556960000000 1.0
C      1  0.4610610000000  0.4182120000000  0.5067340000000 1.0
C      1  0.4277280000000  0.4775000000000  0.5666670000000 1.0
C      1  0.4994950000000  0.5219840000000  0.3736840000000 1.0
C      1  0.4564330000000  0.5650930000000  0.4165630000000 1.0
C      1  0.5526660000000  0.4062770000000  0.4655620000000 1.0
C      1  0.5046440000000  0.4047430000000  0.4501670000000 1.0
C      1  0.4308520000000  0.5471720000000  0.5811180000000 1.0
C      1  0.4497760000000  0.5186540000000  0.4006340000000 1.0
C      1  0.4895800000000  0.4511240000000  0.4992430000000 1.0
C      1  0.4945810000000  0.5386950000000  0.4777810000000 1.0
C      1  0.3821590000000  0.5083910000000  0.5376060000000 1.0
C      1  0.5310960000000  0.4032660000000  0.5512560000000 1.0
C      1  0.3907880000000  0.5310410000000  0.5526530000000 1.0
C      1  0.5939230000000  0.4778920000000  0.4273810000000 1.0
C      1  0.4766370000000  0.5283880000000  0.5782720000000 1.0
C      1  0.5691060000000  0.4649500000000  0.4170240000000 1.0
C      1  0.5109350000000  0.4427750000000  0.4628510000000 1.0
C      1  0.4092280000000  0.5735460000000  0.5250630000000 1.0
C      1  0.4156120000000  0.5280660000000  0.5190560000000 1.0
C      1  0.5386430000000  0.4920640000000  0.6007450000000 1.0
C      1  0.4540270000000  0.5866580000000  0.5199260000000 1.0
C      1  0.5771870000000  0.4468970000000  0.4588040000000 1.0
C      1  0.4827080000000  0.3994070000000  0.5638130000000 1.0
C      1  0.5434940000000  0.5043070000000  0.3924670000000 1.0
C      1  0.5639180000000  0.4692820000000  0.5288290000000 1.0
C      1  0.5590530000000  0.5248330000000  0.4070340000000 1.0
C      1  0.5258990000000  0.4074810000000  0.4820300000000 1.0
C      1  0.5665370000000  0.5191300000000  0.4750220000000 1.0
C      1  0.5914450000000  0.5385470000000  0.5095550000000 1.0
C      1  0.4651800000000  0.4559070000000  0.4353770000000 1.0
C      1  0.4922290000000  0.5083130000000  0.4381700000000 1.0
C      1  0.4851190000000  0.4611880000000  0.5267150000000 1.0
C      1  0.5121260000000  0.4934990000000  0.6144790000000 1.0
C      1  0.4577920000000  0.3942190000000  0.4669200000000 1.0
C      1  0.4475690000000  0.5553020000000  0.4776200000000 1.0
C      1  0.5722040000000  0.4893810000000  0.4842250000000 1.0
C      1  0.4827330000000  0.4512400000000  0.4125930000000 1.0
C      1  0.4663380000000  0.5427890000000  0.4025540000000 1.0
C      1  0.5116000000000  0.5608370000000  0.3950800000000 1.0
C      1  0.4690940000000  0.4945890000000  0.4776070000000 1.0
C      1  0.4724120000000  0.5953950000000  0.4536150000000 1.0
C      1  0.4547560000000  0.5178530000000  0.5474590000000 1.0
C      1  0.4424740000000  0.4289650000000  0.5292730000000 1.0
C      1  0.4093530000000  0.5705140000000  0.4946540000000 1.0
C      1  0.4518030000000  0.4884380000000  0.4010140000000 1.0
C      1  0.6103030000000  0.5239930000000  0.5270080000000 1.0
C      1  0.4403820000000  0.5070300000000  0.6031860000000 1.0
C      1  0.4558670000000  0.3995810000000  0.5642490000000 1.0
C      1  0.5826870000000  0.4827040000000  0.5754920000000 1.0
C      1  0.5423820000000  0.5285730000000  0.4885940000000 1.0
C      1  0.4476000000000  0.4656310000000  0.5847830000000 1.0
C      1  0.4704460000000  0.6064400000000  0.5304490000000 1.0
C      1  0.5575330000000  0.4667460000000  0.4700160000000 1.0
C      1  0.5522290000000  0.5483640000000  0.4234290000000 1.0
C      1  0.5914780000000  0.5351320000000  0.4797870000000 1.0
C      1  0.5108800000000  0.4423000000000  0.4140360000000 1.0
C      1  0.5033520000000  0.6107740000000  0.4888560000000 1.0
C      1  0.4813960000000  0.5954000000000  0.5789660000000 1.0
C      1  0.5140000000000  0.5138690000000  0.4582710000000 1.0
C      1  0.5144100000000  0.5091200000000  0.3941690000000 1.0
C      1  0.4672600000000  0.5117160000000  0.4540240000000 1.0
C      1  0.4777900000000  0.5425720000000  0.5067380000000 1.0
C      1  0.5427730000000  0.5644800000000  0.5160420000000 1.0
C      1  0.5029600000000  0.5936570000000  0.5617920000000 1.0
C      1  0.4670370000000  0.4508440000000  0.5704370000000 1.0
C      1  0.5520070000000  0.5269390000000  0.5617090000000 1.0
C      1  0.5694420000000  0.4976340000000  0.5269730000000 1.0
C      1  0.4445760000000  0.4815950000000  0.4801800000000 1.0
C      1  0.4165030000000  0.4291890000000  0.5665690000000 1.0
C      1  0.4603040000000  0.4846580000000  0.6023510000000 1.0
C      1  0.4368690000000  0.5684140000000  0.5356940000000 1.0
C      1  0.5624640000000  0.6021810000000  0.4878980000000 1.0
C      1  0.5757200000000  0.4219580000000  0.4764800000000 1.0
C      1  0.5115710000000  0.4634740000000  0.5388620000000 1.0
C      1  0.5476930000000  0.6032750000000  0.5144510000000 1.0
C      1  0.5655070000000  0.4402810000000  0.4325870000000 1.0
C      1  0.4158570000000  0.5261760000000  0.5672640000000 1.0
C      1  0.5335550000000  0.4642850000000  0.5179730000000 1.0
C      1  0.4109590000000  0.5439500000000  0.4472440000000 1.0
C      1  0.5196880000000  0.5693550000000  0.5638610000000 1.0
C      1  0.5617350000000  0.5953650000000  0.5388850000000 1.0
C      1  0.5362950000000  0.5565060000000  0.5965230000000 1.0
C      1  0.5193760000000  0.4375080000000  0.4946960000000 1.0
C      1  0.3966250000000  0.5290120000000  0.4692670000000 1.0
C      1  0.5089080000000  0.4333740000000  0.5877120000000 1.0
C      1  0.4324350000000  0.4062020000000  0.4667310000000 1.0
C      1  0.5199350000000  0.4177360000000  0.4284060000000 1.0
C      1  0.3983370000000  0.4586190000000  0.5335140000000 1.0
C      1  0.4198600000000  0.4983930000000  0.5159910000000 1.0
C      1  0.4030960000000  0.4392850000000  0.4893920000000 1.0
C      1  0.5988490000000  0.4383090000000  0.5387340000000 1.0
C      1  0.5871350000000  0.5619970000000  0.4656550000000 1.0
C      1  0.4074890000000  0.4558480000000  0.5611470000000 1.0
C      1  0.4114490000000  0.4406250000000  0.4413020000000 1.0
C      1  0.5309410000000  0.5317640000000  0.5830460000000 1.0
C      1  0.5076740000000  0.4115110000000  0.5674010000000 1.0
C      1  0.4547880000000  0.4387840000000  0.4858190000000 1.0
C      1  0.5773370000000  0.4151430000000  0.5306920000000 1.0
C      1  0.5215890000000  0.5517560000000  0.5361730000000 1.0
C      1  0.5184560000000  0.6117550000000  0.4622490000000 1.0
C      1  0.4257810000000  0.5252750000000  0.4298100000000 1.0
C      1  0.4167290000000  0.4289220000000  0.4659490000000 1.0
C      1  0.5290070000000  0.4799580000000  0.4283340000000 1.0
C      1  0.3819300000000  0.4572060000000  0.4853550000000 1.0
C      1  0.4661970000000  0.3914140000000  0.4954730000000 1.0
C      1  0.4796310000000  0.4765570000000  0.3985290000000 1.0
C      1  0.3927910000000  0.4866720000000  0.5209670000000 1.0
C      1  0.4527970000000  0.5334850000000  0.5966200000000 1.0
C      1  0.5674680000000  0.5790360000000  0.5616880000000 1.0
C      1  0.5707240000000  0.5652170000000  0.4405510000000 1.0
C      1  0.3811290000000  0.4842720000000  0.4923790000000 1.0
C      1  0.5014010000000  0.4917540000000  0.4146720000000 1.0
C      1  0.4763770000000  0.4112560000000  0.4508650000000 1.0
C      1  0.6164980000000  0.4971420000000  0.5202430000000 1.0
C      1  0.5266410000000  0.3884340000000  0.5282090000000 1.0
C      1  0.5506760000000  0.4730530000000  0.3950770000000 1.0
C      1  0.4939230000000  0.5398920000000  0.5304660000000 1.0
C      1  0.5877910000000  0.4552520000000  0.5150750000000 1.0
C      1  0.6148220000000  0.5177290000000  0.4426520000000 1.0
C      1  0.4894420000000  0.4783760000000  0.6043650000000 1.0
C      1  0.4656260000000  0.5710230000000  0.4977530000000 1.0
C      1  0.6017340000000  0.4651050000000  0.4542320000000 1.0
C      1  0.4913250000000  0.3795790000000  0.4990040000000 1.0
C      1  0.6093350000000  0.4754980000000  0.5038340000000 1.0
C      1  0.5292870000000  0.4683460000000  0.4584620000000 1.0
C      1  0.5492510000000  0.4508030000000  0.5901590000000 1.0
C      1  0.4556600000000  0.5887660000000  0.5786540000000 1.0
C      1  0.4006470000000  0.4853070000000  0.4461880000000 1.0
C      1  0.5913110000000  0.5069310000000  0.4313810000000 1.0
C      1  0.4863070000000  0.5866320000000  0.4808120000000 1.0
C      1  0.5711550000000  0.5544700000000  0.5239580000000 1.0
C      1  0.5996270000000  0.5272920000000  0.5542770000000 1.0
C      1  0.4750490000000  0.4398130000000  0.4592360000000 1.0
C      1  0.5479920000000  0.4168100000000  0.4373650000000 1.0
C      1  0.3906530000000  0.5557020000000  0.5378100000000 1.0
C      1  0.4499050000000  0.5792300000000  0.4404090000000 1.0
C      1  0.4717720000000  0.4878360000000  0.5210200000000 1.0
C      1  0.5082690000000  0.4798280000000  0.5628720000000 1.0
C      1  0.4415680000000  0.5035170000000  0.4416150000000 1.0
C      1  0.5601450000000  0.5915270000000  0.4416030000000 1.0
C      1  0.4185430000000  0.5016080000000  0.5825060000000 1.0
C      1  0.4903950000000  0.4766630000000  0.4821000000000 1.0
C      1  0.4938080000000  0.4595680000000  0.5814040000000 1.0
C      1  0.5280540000000  0.4898490000000  0.5045680000000 1.0
C      1  0.4390740000000  0.5707600000000  0.5658430000000 1.0
C      1  0.5449210000000  0.5796350000000  0.5804590000000 1.0
C      1  0.5830300000000  0.4554340000000  0.5595000000000 1.0
C      1  0.5738750000000  0.5506680000000  0.5531310000000 1.0
C      1  0.5653830000000  0.4361540000000  0.5716390000000 1.0
C      1  0.5275610000000  0.5638150000000  0.4180160000000 1.0
END
