TITL C-951334-9093-218 -1.57292289921224e-06 125000 -618.145199004437 0 0 102 (C1) n - 1
REM
REM in /home/bkarasulu/work/CARBON/AIRSS/Generating-Clusters/EDIP-Nigel-Params/with-SteepDescent/Only-C1/SD-CG/HFTN-CG
REM
REM
REM
REM
REM
REM ./C.cell (11c1c37f851c82e70ff6c80c92926a4b)
REM
REM compiler GCC version 9.2.1 20190827 (Red Hat 9.2.1-1)
REM options -cpp -mtune=generic -march=x86-64 -g -O0 -fpre-include=/usr/include/finclude/math-vector-fortran.h
REM seed 1795133690 1414601336 354116655 1327702116 -2122993989 1850269827 1982842919 817668771 828337385 105483559 1270457567 -1795419948 188434590 -1902889320 -1764629507 781014064 -1027942991 1834419343 -1763909678 1452177865 -1419713308 -48310774 -522104799 -499399888 462879501 -732256717 1206091541 347650639 331467313 756751139 -339179273 -148507809 146562749
REM
CELL 1.54180   50.00000   50.00000   50.00000   90.00000   90.00000   90.00000
LATT -1
SFAC C  
C      1  0.5767310000000  0.5384690000000  0.5249540000000 1.0
C      1  0.4586590000000  0.5014220000000  0.5794510000000 1.0
C      1  0.5201440000000  0.5720650000000  0.4797490000000 1.0
C      1  0.5279300000000  0.4760780000000  0.5772590000000 1.0
C      1  0.5226230000000  0.5319800000000  0.4287800000000 1.0
C      1  0.4616060000000  0.4469990000000  0.5001910000000 1.0
C      1  0.5216110000000  0.5854220000000  0.5075710000000 1.0
C      1  0.4550450000000  0.5069950000000  0.4379730000000 1.0
C      1  0.5175580000000  0.4884100000000  0.5281300000000 1.0
C      1  0.4682500000000  0.5355130000000  0.5529140000000 1.0
C      1  0.5172830000000  0.5885120000000  0.4568460000000 1.0
C      1  0.5637610000000  0.4468110000000  0.5236080000000 1.0
C      1  0.4435620000000  0.4795760000000  0.4384700000000 1.0
C      1  0.5381110000000  0.4867030000000  0.4392360000000 1.0
C      1  0.5696930000000  0.4915380000000  0.5516940000000 1.0
C      1  0.6017240000000  0.5041660000000  0.4984580000000 1.0
C      1  0.4834460000000  0.4888650000000  0.5771800000000 1.0
C      1  0.5588040000000  0.5184730000000  0.5420520000000 1.0
C      1  0.4627630000000  0.4549920000000  0.4374030000000 1.0
C      1  0.5766480000000  0.4732880000000  0.5283080000000 1.0
C      1  0.5809490000000  0.4839280000000  0.4998370000000 1.0
C      1  0.5434330000000  0.5767110000000  0.5266580000000 1.0
C      1  0.5281990000000  0.5340700000000  0.4782080000000 1.0
C      1  0.4926970000000  0.4980800000000  0.5408220000000 1.0
C      1  0.5103180000000  0.5444250000000  0.5288630000000 1.0
C      1  0.4176210000000  0.4924130000000  0.4787200000000 1.0
C      1  0.5572920000000  0.4452260000000  0.4931380000000 1.0
C      1  0.4363480000000  0.4461910000000  0.5184230000000 1.0
C      1  0.5361510000000  0.4371660000000  0.5317250000000 1.0
C      1  0.5156400000000  0.4505200000000  0.5688710000000 1.0
C      1  0.4448550000000  0.5509530000000  0.5496240000000 1.0
C      1  0.5138700000000  0.5251430000000  0.5686240000000 1.0
C      1  0.4656460000000  0.4844280000000  0.5337570000000 1.0
C      1  0.5261250000000  0.4601230000000  0.4904040000000 1.0
C      1  0.4626180000000  0.5911980000000  0.4842180000000 1.0
C      1  0.5236360000000  0.5034330000000  0.4191030000000 1.0
C      1  0.5242120000000  0.4179610000000  0.4664480000000 1.0
C      1  0.5730630000000  0.4573330000000  0.4525640000000 1.0
C      1  0.5009650000000  0.4494830000000  0.4385650000000 1.0
C      1  0.4828570000000  0.5042010000000  0.4360820000000 1.0
C      1  0.4263020000000  0.5440170000000  0.4474150000000 1.0
C      1  0.4771590000000  0.4823310000000  0.4671820000000 1.0
C      1  0.4964180000000  0.4923980000000  0.4139610000000 1.0
C      1  0.4388610000000  0.5493350000000  0.5225110000000 1.0
C      1  0.4916620000000  0.5453540000000  0.5701320000000 1.0
C      1  0.5485840000000  0.4590300000000  0.4392370000000 1.0
C      1  0.4651430000000  0.4240600000000  0.4796170000000 1.0
C      1  0.4288200000000  0.4491160000000  0.4674560000000 1.0
C      1  0.4382590000000  0.5512070000000  0.4721990000000 1.0
C      1  0.4658430000000  0.5646520000000  0.4711680000000 1.0
C      1  0.5904750000000  0.5301910000000  0.4993650000000 1.0
C      1  0.4936060000000  0.4634390000000  0.4152290000000 1.0
C      1  0.4466260000000  0.4968030000000  0.5542040000000 1.0
C      1  0.5477610000000  0.5426090000000  0.4365310000000 1.0
C      1  0.5548650000000  0.4968590000000  0.4973860000000 1.0
C      1  0.5031290000000  0.4109840000000  0.5073370000000 1.0
C      1  0.5772620000000  0.5403390000000  0.4760310000000 1.0
C      1  0.4606050000000  0.5933780000000  0.5129320000000 1.0
C      1  0.5338950000000  0.4312190000000  0.5602090000000 1.0
C      1  0.5469460000000  0.4169200000000  0.4868570000000 1.0
C      1  0.5315640000000  0.5351460000000  0.5089990000000 1.0
C      1  0.5322490000000  0.4124670000000  0.5129180000000 1.0
C      1  0.4490310000000  0.5351410000000  0.4322300000000 1.0
C      1  0.4421180000000  0.4333410000000  0.5429650000000 1.0
C      1  0.5273340000000  0.4382010000000  0.4424540000000 1.0
C      1  0.4557100000000  0.4722500000000  0.4840640000000 1.0
C      1  0.4788140000000  0.5226830000000  0.4986980000000 1.0
C      1  0.4572040000000  0.4543820000000  0.5563090000000 1.0
C      1  0.4208490000000  0.5289010000000  0.5108800000000 1.0
C      1  0.4724670000000  0.5530980000000  0.4360970000000 1.0
C      1  0.4212330000000  0.4744690000000  0.4573000000000 1.0
C      1  0.5417240000000  0.5054340000000  0.4729450000000 1.0
C      1  0.5097510000000  0.4986560000000  0.5808930000000 1.0
C      1  0.5111190000000  0.5774960000000  0.4331000000000 1.0
C      1  0.4978290000000  0.5698540000000  0.5174430000000 1.0
C      1  0.5400720000000  0.5079590000000  0.5198910000000 1.0
C      1  0.4865710000000  0.4492030000000  0.5186790000000 1.0
C      1  0.4868770000000  0.4434600000000  0.5625100000000 1.0
C      1  0.5803260000000  0.4593000000000  0.4792900000000 1.0
C      1  0.5552980000000  0.4804880000000  0.5730580000000 1.0
C      1  0.4153840000000  0.5389810000000  0.4845660000000 1.0
C      1  0.4856710000000  0.5846690000000  0.5405770000000 1.0
C      1  0.4895270000000  0.4050860000000  0.4796160000000 1.0
C      1  0.5550900000000  0.5542360000000  0.5115750000000 1.0
C      1  0.4885300000000  0.5511090000000  0.4870050000000 1.0
C      1  0.5022840000000  0.5722750000000  0.5618560000000 1.0
C      1  0.4866230000000  0.5254140000000  0.5298230000000 1.0
C      1  0.4938150000000  0.4999300000000  0.4830820000000 1.0
C      1  0.4208090000000  0.4720520000000  0.5246300000000 1.0
C      1  0.5319870000000  0.5646720000000  0.5534010000000 1.0
C      1  0.5523630000000  0.5469830000000  0.4639660000000 1.0
C      1  0.5159520000000  0.4602310000000  0.5188430000000 1.0
C      1  0.4389060000000  0.5749860000000  0.5096190000000 1.0
C      1  0.4504420000000  0.4339710000000  0.4557810000000 1.0
C      1  0.4859510000000  0.4269150000000  0.5379140000000 1.0
C      1  0.5193660000000  0.4854560000000  0.4735900000000 1.0
C      1  0.4261040000000  0.4772830000000  0.5527430000000 1.0
C      1  0.5061130000000  0.4397460000000  0.4806470000000 1.0
C      1  0.5399280000000  0.5355240000000  0.5605910000000 1.0
C      1  0.5006260000000  0.5525120000000  0.4261420000000 1.0
C      1  0.4259220000000  0.4982480000000  0.5059670000000 1.0
C      1  0.4558010000000  0.4942930000000  0.5055020000000 1.0
END
