TITL C-950534-5965-314 6.22652795791018e-07 125000 -603.350949286784 0 0 98 (C1) n - 1
REM
REM in /home/bkarasulu/work/CARBON/AIRSS/Generating-Clusters/EDIP-Nigel-Params/with-SteepDescent/Only-C1/SD-CG/HFTN-CG
REM
REM
REM
REM
REM
REM ./C.cell (11c1c37f851c82e70ff6c80c92926a4b)
REM
REM compiler GCC version 9.2.1 20190827 (Red Hat 9.2.1-1)
REM options -cpp -mtune=generic -march=x86-64 -g -O0 -fpre-include=/usr/include/finclude/math-vector-fortran.h
REM seed -839116525 507031969 116096898 1934908679 1690042972 -718755866 1868488911 1229854564 -213286991 1040402342 1833918376 -388483290 -1713687745 1387755751 533387245 736509001 1685387826 642908812 -1145275383 -1261252058 1180654190 -546527848 -102605976 1908618707 -2002623224 -161640320 2075638074 1276588763 1167960382 -722033908 1559928058 231853785 -339823915
REM
CELL 1.54180   50.00000   50.00000   50.00000   90.00000   90.00000   90.00000
LATT -1
SFAC C  
C      1  0.5711900000000  0.5053260000000  0.5281250000000 1.0
C      1  0.5178220000000  0.4456350000000  0.5521510000000 1.0
C      1  0.5678660000000  0.5514620000000  0.5039970000000 1.0
C      1  0.5528570000000  0.5396590000000  0.4207820000000 1.0
C      1  0.5458890000000  0.5870880000000  0.5292320000000 1.0
C      1  0.4517930000000  0.4784630000000  0.4669220000000 1.0
C      1  0.4270480000000  0.5763170000000  0.4712850000000 1.0
C      1  0.4616800000000  0.4305350000000  0.4759960000000 1.0
C      1  0.4708160000000  0.4803700000000  0.5398620000000 1.0
C      1  0.5574610000000  0.4864460000000  0.4458150000000 1.0
C      1  0.5034950000000  0.4335070000000  0.4506000000000 1.0
C      1  0.4865360000000  0.4133390000000  0.5216830000000 1.0
C      1  0.4977050000000  0.4590250000000  0.5037550000000 1.0
C      1  0.4683860000000  0.5007310000000  0.4800710000000 1.0
C      1  0.5174390000000  0.5315470000000  0.4722800000000 1.0
C      1  0.4716120000000  0.4665860000000  0.4427130000000 1.0
C      1  0.4803790000000  0.4913000000000  0.6157890000000 1.0
C      1  0.5319860000000  0.5779160000000  0.4837880000000 1.0
C      1  0.5687280000000  0.4860690000000  0.5514150000000 1.0
C      1  0.5296930000000  0.5295580000000  0.5270100000000 1.0
C      1  0.4371080000000  0.5575160000000  0.5161440000000 1.0
C      1  0.4978680000000  0.5023140000000  0.4400050000000 1.0
C      1  0.5530380000000  0.4524080000000  0.4484980000000 1.0
C      1  0.4495700000000  0.4286750000000  0.5551910000000 1.0
C      1  0.5518840000000  0.5651530000000  0.5702770000000 1.0
C      1  0.5453750000000  0.4747420000000  0.5799450000000 1.0
C      1  0.4690160000000  0.4570900000000  0.5162090000000 1.0
C      1  0.5196900000000  0.4684670000000  0.4167680000000 1.0
C      1  0.5089410000000  0.5277110000000  0.4054230000000 1.0
C      1  0.5519100000000  0.4438160000000  0.4769500000000 1.0
C      1  0.4482080000000  0.5320820000000  0.4416040000000 1.0
C      1  0.5203730000000  0.5054160000000  0.5135130000000 1.0
C      1  0.5590060000000  0.5335180000000  0.5288070000000 1.0
C      1  0.4249050000000  0.4490920000000  0.5327580000000 1.0
C      1  0.4871510000000  0.4987150000000  0.4132000000000 1.0
C      1  0.4276130000000  0.5334640000000  0.5275150000000 1.0
C      1  0.4866250000000  0.5717170000000  0.5757750000000 1.0
C      1  0.5346160000000  0.5802830000000  0.5541060000000 1.0
C      1  0.5624590000000  0.5098800000000  0.4771540000000 1.0
C      1  0.5377100000000  0.4923000000000  0.4234280000000 1.0
C      1  0.5466590000000  0.4498780000000  0.5651480000000 1.0
C      1  0.5059380000000  0.4938490000000  0.6053880000000 1.0
C      1  0.5640570000000  0.5471290000000  0.5538720000000 1.0
C      1  0.4284660000000  0.4678150000000  0.5546080000000 1.0
C      1  0.5259810000000  0.4469640000000  0.4356130000000 1.0
C      1  0.5637650000000  0.5400210000000  0.4766880000000 1.0
C      1  0.4740160000000  0.4377590000000  0.4492550000000 1.0
C      1  0.5321450000000  0.4814420000000  0.4660930000000 1.0
C      1  0.4930550000000  0.4835530000000  0.4846770000000 1.0
C      1  0.5304520000000  0.5077570000000  0.4838330000000 1.0
C      1  0.5780120000000  0.4976430000000  0.5000340000000 1.0
C      1  0.5548190000000  0.5785930000000  0.5036530000000 1.0
C      1  0.4657270000000  0.4315280000000  0.5313090000000 1.0
C      1  0.4492590000000  0.5827310000000  0.4530370000000 1.0
C      1  0.5365980000000  0.5189590000000  0.4102650000000 1.0
C      1  0.4814040000000  0.5817450000000  0.4992590000000 1.0
C      1  0.5141040000000  0.4178630000000  0.5366450000000 1.0
C      1  0.5348470000000  0.5552600000000  0.4358960000000 1.0
C      1  0.4647590000000  0.5509760000000  0.4822340000000 1.0
C      1  0.5703460000000  0.4540320000000  0.4969930000000 1.0
C      1  0.4851700000000  0.4186900000000  0.4912470000000 1.0
C      1  0.5141380000000  0.5513960000000  0.5198660000000 1.0
C      1  0.4717570000000  0.4917370000000  0.5894250000000 1.0
C      1  0.5533140000000  0.4535730000000  0.5213670000000 1.0
C      1  0.4633860000000  0.5096370000000  0.5073120000000 1.0
C      1  0.4306440000000  0.5108710000000  0.4389710000000 1.0
C      1  0.4353740000000  0.5542030000000  0.4873910000000 1.0
C      1  0.4264990000000  0.4905680000000  0.4572290000000 1.0
C      1  0.5017070000000  0.4776040000000  0.4564600000000 1.0
C      1  0.4101090000000  0.4965740000000  0.4785790000000 1.0
C      1  0.5683400000000  0.4569740000000  0.5466220000000 1.0
C      1  0.5901550000000  0.4732500000000  0.4940790000000 1.0
C      1  0.4734750000000  0.5723250000000  0.5501060000000 1.0
C      1  0.4875310000000  0.5025030000000  0.5240850000000 1.0
C      1  0.4692710000000  0.5281730000000  0.4626400000000 1.0
C      1  0.5003270000000  0.4549430000000  0.5752790000000 1.0
C      1  0.4975450000000  0.5291810000000  0.4509350000000 1.0
C      1  0.5115060000000  0.4655630000000  0.5302720000000 1.0
C      1  0.5346730000000  0.4805690000000  0.5236850000000 1.0
C      1  0.4227210000000  0.4593600000000  0.5054020000000 1.0
C      1  0.5261830000000  0.4356970000000  0.4909860000000 1.0
C      1  0.4642930000000  0.5686320000000  0.5221330000000 1.0
C      1  0.4161220000000  0.4886790000000  0.5046270000000 1.0
C      1  0.5068150000000  0.5471310000000  0.4278860000000 1.0
C      1  0.5104200000000  0.5752670000000  0.5050100000000 1.0
C      1  0.4361420000000  0.5063610000000  0.5205850000000 1.0
C      1  0.4738740000000  0.4689810000000  0.5703600000000 1.0
C      1  0.4435440000000  0.4918550000000  0.5452560000000 1.0
C      1  0.5182810000000  0.4729560000000  0.5902530000000 1.0
C      1  0.5374910000000  0.5523660000000  0.4665870000000 1.0
C      1  0.4912440000000  0.4706700000000  0.4098940000000 1.0
C      1  0.5049410000000  0.5768020000000  0.5550060000000 1.0
C      1  0.5358110000000  0.4243540000000  0.5172200000000 1.0
C      1  0.4491500000000  0.4559250000000  0.4898420000000 1.0
C      1  0.5094960000000  0.4182720000000  0.4748140000000 1.0
C      1  0.4383940000000  0.5591500000000  0.4383130000000 1.0
C      1  0.4477680000000  0.4524400000000  0.5716770000000 1.0
C      1  0.4745360000000  0.5760330000000  0.4675560000000 1.0
END
