TITL C-951341-1326-187 -2.07036907122942e-06 125000 -542.229486425966 0 0 88 (C1) n - 1
REM
REM in /home/bkarasulu/work/CARBON/AIRSS/Generating-Clusters/EDIP-Nigel-Params/with-SteepDescent/Only-C1/SD-CG/HFTN-CG
REM
REM
REM
REM
REM
REM ./C.cell (11c1c37f851c82e70ff6c80c92926a4b)
REM
REM compiler GCC version 9.2.1 20190827 (Red Hat 9.2.1-1)
REM options -cpp -mtune=generic -march=x86-64 -g -O0 -fpre-include=/usr/include/finclude/math-vector-fortran.h
REM seed -1293121296 -1365386400 -409629770 -1635392959 1677146909 -1001728565 767221478 465008390 -868964578 -1580440581 1564567971 447991073 -1890115705 183942721 -1703601463 971922534 1131997340 601144018 -1892135795 313596553 -1011107602 539127247 -486688198 311310000 773106489 1197305220 -508508705 -164723312 287381805 -539258799 1566376462 1554762161 -454269746
REM
CELL 1.54180   50.00000   50.00000   50.00000   90.00000   90.00000   90.00000
LATT -1
SFAC C  
C      1  0.5559680000000  0.5106630000000  0.5181460000000 1.0
C      1  0.5164000000000  0.4005790000000  0.4819130000000 1.0
C      1  0.5429210000000  0.5820270000000  0.5219580000000 1.0
C      1  0.5080240000000  0.4724210000000  0.5549090000000 1.0
C      1  0.4412710000000  0.4963710000000  0.5569440000000 1.0
C      1  0.5563700000000  0.4742620000000  0.4677450000000 1.0
C      1  0.4575580000000  0.4885900000000  0.4258010000000 1.0
C      1  0.4255560000000  0.5013780000000  0.4990010000000 1.0
C      1  0.4576090000000  0.5344550000000  0.4185680000000 1.0
C      1  0.5678590000000  0.5020870000000  0.4702370000000 1.0
C      1  0.5303250000000  0.4689410000000  0.5132970000000 1.0
C      1  0.4328890000000  0.4674260000000  0.5536170000000 1.0
C      1  0.5297480000000  0.4249180000000  0.4825760000000 1.0
C      1  0.5216230000000  0.4334600000000  0.5251320000000 1.0
C      1  0.4832360000000  0.5889650000000  0.4975490000000 1.0
C      1  0.5585740000000  0.4988970000000  0.5703890000000 1.0
C      1  0.4594520000000  0.4514230000000  0.5530010000000 1.0
C      1  0.5216550000000  0.5864880000000  0.5393730000000 1.0
C      1  0.5048810000000  0.4793360000000  0.4120290000000 1.0
C      1  0.5459590000000  0.5251700000000  0.5644040000000 1.0
C      1  0.4423710000000  0.4689220000000  0.4377220000000 1.0
C      1  0.4744750000000  0.5718010000000  0.4524600000000 1.0
C      1  0.4214590000000  0.4959410000000  0.4699660000000 1.0
C      1  0.4769280000000  0.4231390000000  0.4653340000000 1.0
C      1  0.5591250000000  0.5585660000000  0.5296160000000 1.0
C      1  0.5783670000000  0.5100590000000  0.4971030000000 1.0
C      1  0.5348780000000  0.5842320000000  0.4935570000000 1.0
C      1  0.4304010000000  0.4686390000000  0.4627160000000 1.0
C      1  0.4704340000000  0.4454120000000  0.5248390000000 1.0
C      1  0.4746760000000  0.4703640000000  0.4835610000000 1.0
C      1  0.4472230000000  0.5589650000000  0.4902240000000 1.0
C      1  0.5200180000000  0.5008040000000  0.4802510000000 1.0
C      1  0.5141200000000  0.5084680000000  0.4519800000000 1.0
C      1  0.4888760000000  0.4490700000000  0.4668280000000 1.0
C      1  0.5401780000000  0.5613050000000  0.4766330000000 1.0
C      1  0.4764910000000  0.5066180000000  0.4865160000000 1.0
C      1  0.5182460000000  0.4475480000000  0.4677650000000 1.0
C      1  0.5127190000000  0.5361880000000  0.5263180000000 1.0
C      1  0.4888990000000  0.3995370000000  0.4771510000000 1.0
C      1  0.5795380000000  0.4732000000000  0.5076140000000 1.0
C      1  0.5213810000000  0.4899640000000  0.5751090000000 1.0
C      1  0.4782510000000  0.5746900000000  0.5224600000000 1.0
C      1  0.4490510000000  0.4297230000000  0.4989040000000 1.0
C      1  0.5095640000000  0.5960540000000  0.4907020000000 1.0
C      1  0.5296620000000  0.4733450000000  0.4827570000000 1.0
C      1  0.5506910000000  0.4515660000000  0.5606770000000 1.0
C      1  0.4640700000000  0.5791020000000  0.4775640000000 1.0
C      1  0.5223460000000  0.4871280000000  0.4320820000000 1.0
C      1  0.4919340000000  0.5503640000000  0.4587140000000 1.0
C      1  0.4036460000000  0.4895760000000  0.5186390000000 1.0
C      1  0.5052410000000  0.4837800000000  0.5237150000000 1.0
C      1  0.4798950000000  0.4694380000000  0.5654380000000 1.0
C      1  0.5304510000000  0.4444750000000  0.4408220000000 1.0
C      1  0.5018140000000  0.5655790000000  0.5381340000000 1.0
C      1  0.5432840000000  0.5327360000000  0.5347530000000 1.0
C      1  0.5210660000000  0.5554200000000  0.4551660000000 1.0
C      1  0.5849340000000  0.5401040000000  0.4929660000000 1.0
C      1  0.4321310000000  0.5206350000000  0.5451470000000 1.0
C      1  0.5831650000000  0.5561750000000  0.5156380000000 1.0
C      1  0.5613890000000  0.4761960000000  0.5526730000000 1.0
C      1  0.5197350000000  0.5193450000000  0.5778730000000 1.0
C      1  0.4521330000000  0.5165220000000  0.5023250000000 1.0
C      1  0.4953220000000  0.5323100000000  0.5666110000000 1.0
C      1  0.4693590000000  0.4966730000000  0.5625280000000 1.0
C      1  0.5564060000000  0.4818700000000  0.5240640000000 1.0
C      1  0.5446550000000  0.4688260000000  0.4393740000000 1.0
C      1  0.4785040000000  0.4812290000000  0.4096930000000 1.0
C      1  0.4550690000000  0.5571290000000  0.5191990000000 1.0
C      1  0.4729950000000  0.4088930000000  0.5017510000000 1.0
C      1  0.5607310000000  0.5264740000000  0.4543100000000 1.0
C      1  0.4463780000000  0.4584300000000  0.4868910000000 1.0
C      1  0.4157600000000  0.4643490000000  0.5290660000000 1.0
C      1  0.5031280000000  0.5096890000000  0.5046230000000 1.0
C      1  0.4835810000000  0.5167850000000  0.5436970000000 1.0
C      1  0.4325010000000  0.5419760000000  0.4727820000000 1.0
C      1  0.4939490000000  0.5604070000000  0.5654350000000 1.0
C      1  0.4826340000000  0.4687600000000  0.5121440000000 1.0
C      1  0.5669410000000  0.5498550000000  0.4711490000000 1.0
C      1  0.5323690000000  0.5306260000000  0.4448000000000 1.0
C      1  0.4330120000000  0.5193610000000  0.4557810000000 1.0
C      1  0.4835840000000  0.5204980000000  0.4571650000000 1.0
C      1  0.5693230000000  0.4538730000000  0.4884690000000 1.0
C      1  0.5511250000000  0.4330050000000  0.4998400000000 1.0
C      1  0.4577800000000  0.5156860000000  0.4383150000000 1.0
C      1  0.5246270000000  0.4472470000000  0.5516890000000 1.0
C      1  0.4559690000000  0.5284810000000  0.5295940000000 1.0
C      1  0.4922690000000  0.4234950000000  0.5233430000000 1.0
C      1  0.4388940000000  0.4755220000000  0.5106880000000 1.0
END
