TITL C-950530-3293-569 1.41198142005436e-06 125000 -314.393007879726 0 0 52 (C1) n - 1
REM
REM in /home/bkarasulu/work/CARBON/AIRSS/Generating-Clusters/EDIP-Nigel-Params/with-SteepDescent/Only-C1/SD-CG/HFTN-CG
REM
REM
REM
REM
REM
REM ./C.cell (11c1c37f851c82e70ff6c80c92926a4b)
REM
REM compiler GCC version 9.2.1 20190827 (Red Hat 9.2.1-1)
REM options -cpp -mtune=generic -march=x86-64 -g -O0 -fpre-include=/usr/include/finclude/math-vector-fortran.h
REM seed 1398372668 478441444 -331526567 1037027837 -1877724387 1614806983 1011315438 -1891150140 -1351513981 1578030428 417174125 -143468819 617000285 -460673743 1124978400 -167685252 -1116233580 525487764 -636404773 -854542058 50802143 -1798699249 -413621681 1777588419 330578492 263908260 -1302595602 160884607 -242252629 -112327679 1051964103 1292472414 -195058260
REM
CELL 1.54180   50.00000   50.00000   50.00000   90.00000   90.00000   90.00000
LATT -1
SFAC C  
C      1  0.4859150000000  0.4267120000000  0.5112030000000 1.0
C      1  0.4264720000000  0.5143140000000  0.5192460000000 1.0
C      1  0.5557450000000  0.4970180000000  0.5157600000000 1.0
C      1  0.5184390000000  0.4743730000000  0.4401980000000 1.0
C      1  0.4762520000000  0.4966820000000  0.4945050000000 1.0
C      1  0.4342710000000  0.4714640000000  0.4772960000000 1.0
C      1  0.5258070000000  0.4925220000000  0.5532590000000 1.0
C      1  0.4978740000000  0.4668960000000  0.4618910000000 1.0
C      1  0.4366040000000  0.5385940000000  0.5136240000000 1.0
C      1  0.5659150000000  0.5266910000000  0.4791590000000 1.0
C      1  0.5294480000000  0.5623600000000  0.5283620000000 1.0
C      1  0.4769970000000  0.5131860000000  0.5204950000000 1.0
C      1  0.5519920000000  0.5009610000000  0.4877300000000 1.0
C      1  0.4719200000000  0.4747830000000  0.4467740000000 1.0
C      1  0.4737170000000  0.5161920000000  0.4699210000000 1.0
C      1  0.4621910000000  0.5469960000000  0.5527190000000 1.0
C      1  0.4929680000000  0.4384270000000  0.4698400000000 1.0
C      1  0.4990700000000  0.4839990000000  0.5544640000000 1.0
C      1  0.4770340000000  0.5032650000000  0.5489760000000 1.0
C      1  0.5250830000000  0.5513790000000  0.5021730000000 1.0
C      1  0.5105010000000  0.4255610000000  0.4937060000000 1.0
C      1  0.4697840000000  0.4411990000000  0.4908720000000 1.0
C      1  0.4517450000000  0.4865290000000  0.5544950000000 1.0
C      1  0.4983730000000  0.5573360000000  0.4917110000000 1.0
C      1  0.4453310000000  0.4695740000000  0.4530490000000 1.0
C      1  0.5049480000000  0.5371050000000  0.5690680000000 1.0
C      1  0.5348770000000  0.4842670000000  0.5284290000000 1.0
C      1  0.5298570000000  0.5367410000000  0.5572530000000 1.0
C      1  0.4558900000000  0.4686410000000  0.4961920000000 1.0
C      1  0.4415700000000  0.4650090000000  0.5231380000000 1.0
C      1  0.4779170000000  0.5028580000000  0.4431780000000 1.0
C      1  0.5521280000000  0.4520210000000  0.4864430000000 1.0
C      1  0.5366170000000  0.5556000000000  0.4551530000000 1.0
C      1  0.5454730000000  0.4747810000000  0.4475740000000 1.0
C      1  0.5203460000000  0.5202880000000  0.4545430000000 1.0
C      1  0.5471390000000  0.5565310000000  0.5487030000000 1.0
C      1  0.4873630000000  0.5410210000000  0.4718130000000 1.0
C      1  0.4789340000000  0.5283660000000  0.5650680000000 1.0
C      1  0.5715900000000  0.5252860000000  0.4511710000000 1.0
C      1  0.5037130000000  0.4842970000000  0.4884280000000 1.0
C      1  0.5469680000000  0.5509540000000  0.4820000000000 1.0
C      1  0.5151710000000  0.4680680000000  0.5133630000000 1.0
C      1  0.5305400000000  0.4449390000000  0.5028820000000 1.0
C      1  0.5234190000000  0.5061680000000  0.4815250000000 1.0
C      1  0.5465660000000  0.5329320000000  0.4400530000000 1.0
C      1  0.5583500000000  0.4753160000000  0.4722950000000 1.0
C      1  0.4912920000000  0.4596840000000  0.5403650000000 1.0
C      1  0.4634680000000  0.5404570000000  0.5242010000000 1.0
C      1  0.4283180000000  0.4910500000000  0.5341840000000 1.0
C      1  0.4788370000000  0.5608600000000  0.5110380000000 1.0
C      1  0.5069760000000  0.5020430000000  0.4351140000000 1.0
C      1  0.4622840000000  0.4577060000000  0.5453970000000 1.0
END
