TITL C-951346-9544-362 7.93023622793654e-07 125000 -359.075482151478 0 0 60 (C1) n - 1
REM
REM in /home/bkarasulu/work/CARBON/AIRSS/Generating-Clusters/EDIP-Nigel-Params/with-SteepDescent/Only-C1/SD-CG/HFTN-CG
REM
REM
REM
REM
REM
REM ./C.cell (11c1c37f851c82e70ff6c80c92926a4b)
REM
REM compiler GCC version 9.2.1 20190827 (Red Hat 9.2.1-1)
REM options -cpp -mtune=generic -march=x86-64 -g -O0 -fpre-include=/usr/include/finclude/math-vector-fortran.h
REM seed 768276017 1085115730 312428797 103878680 382357847 669829929 968792801 -1261275433 1128764825 -1053290280 885824756 1754794501 -1415481546 574130636 -1944703536 454401187 1261732261 -743084875 -700310988 1702517192 1731944397 2128039889 -1892125088 -786281449 1015972946 1899784485 447694903 -1262675269 -1516447524 -1205968829 -1217831415 911990248 -1360398425
REM
CELL 1.54180   50.00000   50.00000   50.00000   90.00000   90.00000   90.00000
LATT -1
SFAC C  
C      1  0.4572430000000  0.4963960000000  0.4334280000000 1.0
C      1  0.4705900000000  0.4781860000000  0.5745660000000 1.0
C      1  0.5288110000000  0.5225050000000  0.4789740000000 1.0
C      1  0.4771790000000  0.5548290000000  0.4841250000000 1.0
C      1  0.5156170000000  0.4396920000000  0.4526100000000 1.0
C      1  0.4488510000000  0.5242590000000  0.4694750000000 1.0
C      1  0.4388530000000  0.5149080000000  0.4443520000000 1.0
C      1  0.4490110000000  0.4764230000000  0.5292430000000 1.0
C      1  0.4455230000000  0.4465100000000  0.5319900000000 1.0
C      1  0.5530490000000  0.5331420000000  0.5371820000000 1.0
C      1  0.4531750000000  0.4691000000000  0.4403520000000 1.0
C      1  0.4585950000000  0.4827140000000  0.4861830000000 1.0
C      1  0.4992410000000  0.5122220000000  0.4942540000000 1.0
C      1  0.5546850000000  0.5495310000000  0.5119880000000 1.0
C      1  0.5295630000000  0.5869820000000  0.4708700000000 1.0
C      1  0.4994120000000  0.4857840000000  0.5140860000000 1.0
C      1  0.5544590000000  0.5039290000000  0.4821820000000 1.0
C      1  0.5013840000000  0.4548220000000  0.4322270000000 1.0
C      1  0.5363680000000  0.4880140000000  0.5539190000000 1.0
C      1  0.5263330000000  0.5309590000000  0.4493920000000 1.0
C      1  0.5141330000000  0.4864190000000  0.5924210000000 1.0
C      1  0.4895860000000  0.5292450000000  0.5625300000000 1.0
C      1  0.4839360000000  0.5036540000000  0.4457260000000 1.0
C      1  0.4303120000000  0.5200800000000  0.4926140000000 1.0
C      1  0.4627020000000  0.4308430000000  0.5090580000000 1.0
C      1  0.4898300000000  0.5546840000000  0.4585340000000 1.0
C      1  0.5785910000000  0.5198010000000  0.4783630000000 1.0
C      1  0.5375320000000  0.5454810000000  0.5569730000000 1.0
C      1  0.4355820000000  0.5374300000000  0.5142880000000 1.0
C      1  0.4909730000000  0.4269950000000  0.5349190000000 1.0
C      1  0.5280740000000  0.5459510000000  0.4980940000000 1.0
C      1  0.5113570000000  0.4723250000000  0.5489770000000 1.0
C      1  0.5353920000000  0.4984620000000  0.5801450000000 1.0
C      1  0.4618000000000  0.5298680000000  0.5224050000000 1.0
C      1  0.5446760000000  0.4653990000000  0.5053160000000 1.0
C      1  0.5167450000000  0.4592880000000  0.5068700000000 1.0
C      1  0.4331850000000  0.4917230000000  0.4995580000000 1.0
C      1  0.5447940000000  0.5052580000000  0.5318380000000 1.0
C      1  0.5430310000000  0.4514490000000  0.4571010000000 1.0
C      1  0.5490990000000  0.4809020000000  0.4609930000000 1.0
C      1  0.4539570000000  0.4602880000000  0.4674550000000 1.0
C      1  0.5543820000000  0.4911670000000  0.5086540000000 1.0
C      1  0.5121750000000  0.5431820000000  0.5653100000000 1.0
C      1  0.4741040000000  0.5066100000000  0.4746870000000 1.0
C      1  0.4726190000000  0.4737960000000  0.5100380000000 1.0
C      1  0.5011500000000  0.4434740000000  0.4787150000000 1.0
C      1  0.5132420000000  0.4453090000000  0.5336290000000 1.0
C      1  0.5036870000000  0.4812650000000  0.4425140000000 1.0
C      1  0.5399140000000  0.5544550000000  0.4424120000000 1.0
C      1  0.4977480000000  0.5315750000000  0.4418550000000 1.0
C      1  0.4576030000000  0.4919890000000  0.5541310000000 1.0
C      1  0.5437130000000  0.5802770000000  0.4489650000000 1.0
C      1  0.4672330000000  0.5192030000000  0.5491960000000 1.0
C      1  0.4851790000000  0.5368800000000  0.5055980000000 1.0
C      1  0.4664210000000  0.4334550000000  0.5477980000000 1.0
C      1  0.5756000000000  0.5408340000000  0.4951680000000 1.0
C      1  0.5200710000000  0.4813700000000  0.4652620000000 1.0
C      1  0.5130770000000  0.5689190000000  0.4855420000000 1.0
C      1  0.4713030000000  0.4382300000000  0.4795580000000 1.0
C      1  0.4975490000000  0.4715580000000  0.5753950000000 1.0
END
