TITL C-950536-5891-649 -0.000454398925554022 125000 -1110.96586366938 0 0 178 (C1) n - 1
REM
REM in /home/bkarasulu/work/CARBON/AIRSS/Generating-Clusters/EDIP-Nigel-Params/with-SteepDescent/Only-C1/SD-CG/HFTN-CG
REM
REM
REM
REM
REM
REM ./C.cell (11c1c37f851c82e70ff6c80c92926a4b)
REM
REM compiler GCC version 9.2.1 20190827 (Red Hat 9.2.1-1)
REM options -cpp -mtune=generic -march=x86-64 -g -O0 -fpre-include=/usr/include/finclude/math-vector-fortran.h
REM seed -1843369745 1190849286 2104368055 36247659 -669684450 -78167820 -392754857 -310993066 -1456016518 1160871923 -1167642566 -116894311 -1281490057 1621994816 -1434813007 -44944094 1930490450 -221104779 878828862 -1699417894 -196808774 -1534170629 -189907103 1608022435 -8697107 -57253733 2112909389 -780294348 -1960970107 -1529455431 -213706808 1636985807 -1400917278
REM
CELL 1.54180   50.00000   50.00000   50.00000   90.00000   90.00000   90.00000
LATT -1
SFAC C  
C      1  0.4775340000000  0.5105500000000  0.5583240000000 1.0
C      1  0.4413220000000  0.5059540000000  0.5917540000000 1.0
C      1  0.4299570000000  0.4258940000000  0.4981990000000 1.0
C      1  0.4956320000000  0.5358000000000  0.3908750000000 1.0
C      1  0.4995340000000  0.5365380000000  0.6066510000000 1.0
C      1  0.4007680000000  0.4671990000000  0.5180480000000 1.0
C      1  0.4815960000000  0.5905750000000  0.4359840000000 1.0
C      1  0.4457260000000  0.5137980000000  0.4515690000000 1.0
C      1  0.4393830000000  0.5950520000000  0.5105470000000 1.0
C      1  0.4806640000000  0.5981870000000  0.4875800000000 1.0
C      1  0.4370650000000  0.5334030000000  0.5908150000000 1.0
C      1  0.4875500000000  0.4719630000000  0.4439400000000 1.0
C      1  0.5391490000000  0.4257530000000  0.5868620000000 1.0
C      1  0.5228750000000  0.6028730000000  0.4620490000000 1.0
C      1  0.4669780000000  0.5966980000000  0.5133260000000 1.0
C      1  0.4901210000000  0.5426290000000  0.5121160000000 1.0
C      1  0.5287300000000  0.5174040000000  0.3972330000000 1.0
C      1  0.5945750000000  0.5421920000000  0.5563150000000 1.0
C      1  0.4365810000000  0.4570840000000  0.4697180000000 1.0
C      1  0.4883110000000  0.5615680000000  0.3983240000000 1.0
C      1  0.4804440000000  0.4184700000000  0.4475430000000 1.0
C      1  0.5415550000000  0.4537320000000  0.4010360000000 1.0
C      1  0.5858610000000  0.4532940000000  0.4468570000000 1.0
C      1  0.5137230000000  0.4629700000000  0.6032240000000 1.0
C      1  0.4514930000000  0.4512230000000  0.5687030000000 1.0
C      1  0.5547470000000  0.5311070000000  0.4303810000000 1.0
C      1  0.4433360000000  0.4961360000000  0.4013270000000 1.0
C      1  0.5114780000000  0.4393200000000  0.4761720000000 1.0
C      1  0.5557410000000  0.5033640000000  0.3961990000000 1.0
C      1  0.4881300000000  0.5001090000000  0.4543040000000 1.0
C      1  0.4293230000000  0.4677320000000  0.5600730000000 1.0
C      1  0.5170050000000  0.4688190000000  0.4065130000000 1.0
C      1  0.5376050000000  0.5127640000000  0.5122220000000 1.0
C      1  0.4886020000000  0.3795380000000  0.4783260000000 1.0
C      1  0.4814670000000  0.5463080000000  0.4404430000000 1.0
C      1  0.4339580000000  0.5235010000000  0.4079100000000 1.0
C      1  0.5992230000000  0.4570540000000  0.5405470000000 1.0
C      1  0.4342250000000  0.4324670000000  0.5269780000000 1.0
C      1  0.5266330000000  0.5384060000000  0.6139470000000 1.0
C      1  0.4722520000000  0.5557870000000  0.4674130000000 1.0
C      1  0.4690630000000  0.4961830000000  0.5876420000000 1.0
C      1  0.5656950000000  0.4296720000000  0.5306510000000 1.0
C      1  0.4609430000000  0.5363730000000  0.5490420000000 1.0
C      1  0.4383020000000  0.5315730000000  0.5260890000000 1.0
C      1  0.4851040000000  0.4573180000000  0.5487320000000 1.0
C      1  0.4965920000000  0.4335650000000  0.5649760000000 1.0
C      1  0.5681960000000  0.4200150000000  0.4733530000000 1.0
C      1  0.3984750000000  0.4697340000000  0.4450830000000 1.0
C      1  0.5157220000000  0.4681830000000  0.4358760000000 1.0
C      1  0.5482800000000  0.4005790000000  0.4764630000000 1.0
C      1  0.5482420000000  0.4923320000000  0.4747120000000 1.0
C      1  0.5912220000000  0.5493120000000  0.5053480000000 1.0
C      1  0.4368740000000  0.4966250000000  0.4942060000000 1.0
C      1  0.6005620000000  0.5096780000000  0.4718370000000 1.0
C      1  0.4467960000000  0.4789090000000  0.5154650000000 1.0
C      1  0.5528450000000  0.5346870000000  0.5475100000000 1.0
C      1  0.4683620000000  0.4652690000000  0.5885050000000 1.0
C      1  0.4283560000000  0.5634530000000  0.4436740000000 1.0
C      1  0.4482500000000  0.5368490000000  0.4731970000000 1.0
C      1  0.4890820000000  0.4216800000000  0.4185610000000 1.0
C      1  0.5598110000000  0.4681320000000  0.5946980000000 1.0
C      1  0.5562920000000  0.4636130000000  0.5146880000000 1.0
C      1  0.4127740000000  0.5563980000000  0.5001280000000 1.0
C      1  0.4813380000000  0.5849270000000  0.5374220000000 1.0
C      1  0.4371310000000  0.5831410000000  0.4638320000000 1.0
C      1  0.6076030000000  0.4639470000000  0.4922170000000 1.0
C      1  0.4991610000000  0.3994500000000  0.4618210000000 1.0
C      1  0.4687990000000  0.5761650000000  0.4125850000000 1.0
C      1  0.5347390000000  0.4220110000000  0.4353760000000 1.0
C      1  0.5234850000000  0.5785970000000  0.5024530000000 1.0
C      1  0.5271350000000  0.4323630000000  0.5613670000000 1.0
C      1  0.4232190000000  0.5623860000000  0.5537010000000 1.0
C      1  0.4252870000000  0.5810300000000  0.4909500000000 1.0
C      1  0.4650440000000  0.5707390000000  0.5819920000000 1.0
C      1  0.5861650000000  0.5159890000000  0.5711730000000 1.0
C      1  0.5392570000000  0.4489240000000  0.6026420000000 1.0
C      1  0.5050380000000  0.4785060000000  0.5364430000000 1.0
C      1  0.5927680000000  0.5318250000000  0.5284880000000 1.0
C      1  0.5143650000000  0.6009300000000  0.5464710000000 1.0
C      1  0.4046030000000  0.5351780000000  0.4798190000000 1.0
C      1  0.5281430000000  0.4961780000000  0.5688220000000 1.0
C      1  0.5444950000000  0.4942830000000  0.5962100000000 1.0
C      1  0.5493250000000  0.5721540000000  0.4878310000000 1.0
C      1  0.4473500000000  0.5563960000000  0.4216890000000 1.0
C      1  0.4044680000000  0.4532830000000  0.4914560000000 1.0
C      1  0.6073210000000  0.4553430000000  0.4653780000000 1.0
C      1  0.5653590000000  0.5169560000000  0.5946900000000 1.0
C      1  0.4939620000000  0.4294330000000  0.5095000000000 1.0
C      1  0.5942900000000  0.5358840000000  0.4803950000000 1.0
C      1  0.5530550000000  0.5053010000000  0.5537960000000 1.0
C      1  0.4345140000000  0.4392570000000  0.4445090000000 1.0
C      1  0.4909560000000  0.5613350000000  0.5923700000000 1.0
C      1  0.5817480000000  0.4774780000000  0.4314370000000 1.0
C      1  0.4728170000000  0.3931920000000  0.4970060000000 1.0
C      1  0.4846980000000  0.4457190000000  0.4620280000000 1.0
C      1  0.4490750000000  0.4516500000000  0.4214830000000 1.0
C      1  0.5525030000000  0.4919870000000  0.5274370000000 1.0
C      1  0.5100270000000  0.6016350000000  0.4887480000000 1.0
C      1  0.4628700000000  0.4497950000000  0.4813200000000 1.0
C      1  0.5498050000000  0.5414390000000  0.5983200000000 1.0
C      1  0.4510810000000  0.5218890000000  0.4993190000000 1.0
C      1  0.5723450000000  0.5721490000000  0.5075200000000 1.0
C      1  0.4722550000000  0.4918320000000  0.3919750000000 1.0
C      1  0.4268500000000  0.4617420000000  0.5309610000000 1.0
C      1  0.5626090000000  0.4471050000000  0.4646640000000 1.0
C      1  0.5605960000000  0.4764550000000  0.4091730000000 1.0
C      1  0.4727290000000  0.4425700000000  0.4065920000000 1.0
C      1  0.5320260000000  0.4465540000000  0.4524310000000 1.0
C      1  0.4809370000000  0.5159370000000  0.5053660000000 1.0
C      1  0.5962100000000  0.4476900000000  0.5133130000000 1.0
C      1  0.3978770000000  0.4969890000000  0.5148790000000 1.0
C      1  0.4850140000000  0.5536170000000  0.5384320000000 1.0
C      1  0.4438220000000  0.4871620000000  0.4666890000000 1.0
C      1  0.5917380000000  0.4863580000000  0.5470400000000 1.0
C      1  0.4910620000000  0.4027820000000  0.5226660000000 1.0
C      1  0.3996390000000  0.5038110000000  0.4859790000000 1.0
C      1  0.4090490000000  0.5568560000000  0.5295800000000 1.0
C      1  0.4794460000000  0.4106710000000  0.5513440000000 1.0
C      1  0.4047560000000  0.5104310000000  0.5610640000000 1.0
C      1  0.5116910000000  0.5447180000000  0.5533200000000 1.0
C      1  0.5097570000000  0.5821830000000  0.5922330000000 1.0
C      1  0.5111050000000  0.5511410000000  0.4412840000000 1.0
C      1  0.5933420000000  0.4995710000000  0.4460180000000 1.0
C      1  0.5648320000000  0.4702010000000  0.4858290000000 1.0
C      1  0.5177300000000  0.4246200000000  0.4120930000000 1.0
C      1  0.4672140000000  0.5855930000000  0.4629880000000 1.0
C      1  0.5003660000000  0.5584130000000  0.4902590000000 1.0
C      1  0.5197780000000  0.4904380000000  0.4860000000000 1.0
C      1  0.5606990000000  0.5510620000000  0.4493280000000 1.0
C      1  0.4759290000000  0.4462420000000  0.5235070000000 1.0
C      1  0.5281840000000  0.3994110000000  0.4540250000000 1.0
C      1  0.5795040000000  0.4410880000000  0.5546270000000 1.0
C      1  0.4714110000000  0.5941910000000  0.5654080000000 1.0
C      1  0.5123190000000  0.5839270000000  0.4389660000000 1.0
C      1  0.4045140000000  0.4936830000000  0.4320300000000 1.0
C      1  0.4914410000000  0.4484420000000  0.5916720000000 1.0
C      1  0.5733770000000  0.5666150000000  0.5596720000000 1.0
C      1  0.5313640000000  0.4125460000000  0.4966130000000 1.0
C      1  0.5347820000000  0.4612830000000  0.5534370000000 1.0
C      1  0.4452970000000  0.5515920000000  0.5701310000000 1.0
C      1  0.4503990000000  0.4131430000000  0.4535880000000 1.0
C      1  0.3964180000000  0.4753590000000  0.4729540000000 1.0
C      1  0.5543430000000  0.5185320000000  0.4879630000000 1.0
C      1  0.5116120000000  0.4896480000000  0.6148350000000 1.0
C      1  0.5298660000000  0.4481620000000  0.5129150000000 1.0
C      1  0.5497590000000  0.5914750000000  0.4644500000000 1.0
C      1  0.4515610000000  0.4235630000000  0.5523700000000 1.0
C      1  0.5315880000000  0.5825420000000  0.5318520000000 1.0
C      1  0.5284910000000  0.5359990000000  0.4204120000000 1.0
C      1  0.4884020000000  0.4647230000000  0.3934020000000 1.0
C      1  0.4136330000000  0.5130620000000  0.5342560000000 1.0
C      1  0.4859840000000  0.5132550000000  0.4066360000000 1.0
C      1  0.4704550000000  0.4660980000000  0.5041560000000 1.0
C      1  0.4552060000000  0.4793800000000  0.4246850000000 1.0
C      1  0.5159180000000  0.5404780000000  0.4702540000000 1.0
C      1  0.5007080000000  0.5113770000000  0.4782210000000 1.0
C      1  0.4238300000000  0.4935260000000  0.5725340000000 1.0
C      1  0.4746750000000  0.5179720000000  0.4353230000000 1.0
C      1  0.5094080000000  0.4701960000000  0.5070400000000 1.0
C      1  0.4208000000000  0.5177220000000  0.4341430000000 1.0
C      1  0.5460650000000  0.5442140000000  0.4747150000000 1.0
C      1  0.5617630000000  0.5800850000000  0.5342880000000 1.0
C      1  0.5004170000000  0.6010540000000  0.5731130000000 1.0
C      1  0.4489650000000  0.4079600000000  0.4836310000000 1.0
C      1  0.5224780000000  0.3984380000000  0.5214700000000 1.0
C      1  0.5965680000000  0.4912950000000  0.4950760000000 1.0
C      1  0.4902010000000  0.5078250000000  0.6069600000000 1.0
C      1  0.5054750000000  0.5184180000000  0.5667720000000 1.0
C      1  0.5447750000000  0.5545460000000  0.5722360000000 1.0
C      1  0.5732140000000  0.5219830000000  0.4102990000000 1.0
C      1  0.4102030000000  0.5410250000000  0.4508970000000 1.0
C      1  0.5399050000000  0.4149160000000  0.5400000000000 1.0
C      1  0.4831230000000  0.4981690000000  0.5316360000000 1.0
C      1  0.5506330000000  0.5764700000000  0.4400820000000 1.0
C      1  0.5987230000000  0.5034880000000  0.5233400000000 1.0
C      1  0.4061530000000  0.4429630000000  0.4382960000000 1.0
C      1  0.5312210000000  0.5384270000000  0.5279160000000 1.0
C      1  0.5637740000000  0.4648010000000  0.5648950000000 1.0
END
