TITL C-950527-2551-645 -1.58198577435772e-06 125000 -1109.80208710512 0 0 177 (C1) n - 1
REM
REM in /home/bkarasulu/work/CARBON/AIRSS/Generating-Clusters/EDIP-Nigel-Params/with-SteepDescent/Only-C1/SD-CG/HFTN-CG
REM
REM
REM
REM
REM
REM ./C.cell (11c1c37f851c82e70ff6c80c92926a4b)
REM
REM compiler GCC version 9.2.1 20190827 (Red Hat 9.2.1-1)
REM options -cpp -mtune=generic -march=x86-64 -g -O0 -fpre-include=/usr/include/finclude/math-vector-fortran.h
REM seed 444523359 1009821918 -571119389 1004506961 134094065 -244443326 2116511386 2105857474 -1191707965 -2111762870 1692291532 95861469 -1224754152 2063601286 570054941 288468760 1343655796 753726049 -1655708120 -233892200 1490152991 1838688505 -1471180128 1970288360 -243891684 -2052680433 497652218 1936749580 -705201868 -22418158 1806751566 403805500 -789114324
REM
CELL 1.54180   50.00000   50.00000   50.00000   90.00000   90.00000   90.00000
LATT -1
SFAC C  
C      1  0.5466500000000  0.5390850000000  0.4952610000000 1.0
C      1  0.5190080000000  0.5568680000000  0.5909400000000 1.0
C      1  0.5359580000000  0.4821290000000  0.4493890000000 1.0
C      1  0.4534920000000  0.5014920000000  0.5778570000000 1.0
C      1  0.5192390000000  0.4616840000000  0.4632430000000 1.0
C      1  0.4743070000000  0.5309140000000  0.4928150000000 1.0
C      1  0.5579740000000  0.5683540000000  0.4414550000000 1.0
C      1  0.3911390000000  0.5117830000000  0.4914750000000 1.0
C      1  0.5022520000000  0.5779960000000  0.4314180000000 1.0
C      1  0.5292750000000  0.4426640000000  0.4838360000000 1.0
C      1  0.5593660000000  0.4462140000000  0.4841820000000 1.0
C      1  0.4431190000000  0.4668160000000  0.5480560000000 1.0
C      1  0.5553590000000  0.4205460000000  0.5629350000000 1.0
C      1  0.4158340000000  0.4581150000000  0.5591700000000 1.0
C      1  0.4514660000000  0.5708640000000  0.5307590000000 1.0
C      1  0.5180500000000  0.5045710000000  0.4411830000000 1.0
C      1  0.4521740000000  0.5301250000000  0.5844280000000 1.0
C      1  0.5243780000000  0.4063140000000  0.4509910000000 1.0
C      1  0.4290980000000  0.4355490000000  0.4495990000000 1.0
C      1  0.5487180000000  0.4180880000000  0.4402770000000 1.0
C      1  0.4843840000000  0.5173620000000  0.4163950000000 1.0
C      1  0.4523070000000  0.4003850000000  0.5145280000000 1.0
C      1  0.4812590000000  0.3861210000000  0.4475790000000 1.0
C      1  0.4434940000000  0.5581730000000  0.4563820000000 1.0
C      1  0.5466740000000  0.5848450000000  0.5425780000000 1.0
C      1  0.4304000000000  0.5327620000000  0.4649110000000 1.0
C      1  0.5176930000000  0.4151950000000  0.4786280000000 1.0
C      1  0.4966710000000  0.6261900000000  0.5110110000000 1.0
C      1  0.4807450000000  0.5989230000000  0.4339970000000 1.0
C      1  0.4271300000000  0.5288460000000  0.5087930000000 1.0
C      1  0.6031740000000  0.5186010000000  0.5015560000000 1.0
C      1  0.4912970000000  0.4991410000000  0.4561170000000 1.0
C      1  0.5293350000000  0.4347160000000  0.5636130000000 1.0
C      1  0.3773830000000  0.5190170000000  0.5184320000000 1.0
C      1  0.5473970000000  0.5054890000000  0.5989510000000 1.0
C      1  0.5770890000000  0.4411200000000  0.5573240000000 1.0
C      1  0.5305280000000  0.4976360000000  0.5650060000000 1.0
C      1  0.3874930000000  0.5417560000000  0.5354170000000 1.0
C      1  0.4042410000000  0.5338670000000  0.4780240000000 1.0
C      1  0.4026460000000  0.4542070000000  0.5341640000000 1.0
C      1  0.3888790000000  0.5666860000000  0.5228790000000 1.0
C      1  0.4096010000000  0.5746890000000  0.5077320000000 1.0
C      1  0.5378140000000  0.5731940000000  0.4214760000000 1.0
C      1  0.4309310000000  0.5460410000000  0.5702130000000 1.0
C      1  0.6003790000000  0.4767950000000  0.4756390000000 1.0
C      1  0.4733550000000  0.5029590000000  0.5333030000000 1.0
C      1  0.5396690000000  0.6072160000000  0.4593550000000 1.0
C      1  0.4582390000000  0.4490560000000  0.5677840000000 1.0
C      1  0.4502340000000  0.4229930000000  0.5574550000000 1.0
C      1  0.5209980000000  0.5349490000000  0.4779370000000 1.0
C      1  0.4672130000000  0.3846370000000  0.4703750000000 1.0
C      1  0.5970300000000  0.5315510000000  0.5265920000000 1.0
C      1  0.5844140000000  0.4902900000000  0.4553980000000 1.0
C      1  0.5283860000000  0.3982990000000  0.5007220000000 1.0
C      1  0.4186420000000  0.4347510000000  0.5186710000000 1.0
C      1  0.5451670000000  0.5680870000000  0.5075490000000 1.0
C      1  0.6082140000000  0.4517920000000  0.4660780000000 1.0
C      1  0.5038670000000  0.5774440000000  0.5754710000000 1.0
C      1  0.5610590000000  0.5308390000000  0.5897400000000 1.0
C      1  0.4994480000000  0.5809230000000  0.5275730000000 1.0
C      1  0.4977970000000  0.4310880000000  0.5164400000000 1.0
C      1  0.5108210000000  0.5617110000000  0.4784820000000 1.0
C      1  0.5144690000000  0.6165540000000  0.4686000000000 1.0
C      1  0.4086730000000  0.5282980000000  0.5538430000000 1.0
C      1  0.4813940000000  0.5583950000000  0.5676470000000 1.0
C      1  0.4988480000000  0.5624730000000  0.4055820000000 1.0
C      1  0.5532550000000  0.4074960000000  0.5149180000000 1.0
C      1  0.4072610000000  0.4801370000000  0.5777710000000 1.0
C      1  0.4336860000000  0.4846540000000  0.5933450000000 1.0
C      1  0.5509380000000  0.3984540000000  0.5430030000000 1.0
C      1  0.4909440000000  0.4708270000000  0.4029740000000 1.0
C      1  0.5496110000000  0.5245400000000  0.4049690000000 1.0
C      1  0.5850500000000  0.5601470000000  0.5594240000000 1.0
C      1  0.4094770000000  0.4324360000000  0.4904230000000 1.0
C      1  0.4407250000000  0.5731130000000  0.5599700000000 1.0
C      1  0.5512330000000  0.4291060000000  0.3974030000000 1.0
C      1  0.5178620000000  0.5096530000000  0.6058720000000 1.0
C      1  0.5718080000000  0.4703150000000  0.5665280000000 1.0
C      1  0.4194000000000  0.4829240000000  0.4127530000000 1.0
C      1  0.4618450000000  0.5038470000000  0.4311740000000 1.0
C      1  0.4932040000000  0.4714020000000  0.4658500000000 1.0
C      1  0.5211430000000  0.4498290000000  0.5127610000000 1.0
C      1  0.5981010000000  0.4726120000000  0.5275220000000 1.0
C      1  0.5789520000000  0.4718910000000  0.4312370000000 1.0
C      1  0.4239160000000  0.4168970000000  0.4715890000000 1.0
C      1  0.5712490000000  0.5245860000000  0.4252920000000 1.0
C      1  0.4375510000000  0.4885650000000  0.4839810000000 1.0
C      1  0.4543450000000  0.5576920000000  0.4196440000000 1.0
C      1  0.4646810000000  0.5810050000000  0.5752390000000 1.0
C      1  0.4669260000000  0.5630040000000  0.4746200000000 1.0
C      1  0.5910570000000  0.5157300000000  0.5504210000000 1.0
C      1  0.4373940000000  0.4148980000000  0.5330430000000 1.0
C      1  0.5145620000000  0.4928840000000  0.5068820000000 1.0
C      1  0.4406580000000  0.4812880000000  0.4541030000000 1.0
C      1  0.4571020000000  0.4704460000000  0.4973860000000 1.0
C      1  0.4790460000000  0.5575120000000  0.5362270000000 1.0
C      1  0.5293430000000  0.4573260000000  0.5424680000000 1.0
C      1  0.4768480000000  0.5442970000000  0.4070300000000 1.0
C      1  0.3977500000000  0.4571380000000  0.4787830000000 1.0
C      1  0.4821480000000  0.4819960000000  0.5844820000000 1.0
C      1  0.5170380000000  0.5814980000000  0.5017890000000 1.0
C      1  0.4454110000000  0.5183730000000  0.4871110000000 1.0
C      1  0.4367070000000  0.4224790000000  0.4248060000000 1.0
C      1  0.5029380000000  0.4977800000000  0.4017350000000 1.0
C      1  0.4555130000000  0.5843940000000  0.4302870000000 1.0
C      1  0.4143960000000  0.4807570000000  0.4400470000000 1.0
C      1  0.4515370000000  0.4601730000000  0.5939280000000 1.0
C      1  0.4593550000000  0.5960780000000  0.5148720000000 1.0
C      1  0.5944080000000  0.4868750000000  0.5534670000000 1.0
C      1  0.5962280000000  0.5329670000000  0.4757470000000 1.0
C      1  0.4718990000000  0.4543570000000  0.4768830000000 1.0
C      1  0.5190220000000  0.5221970000000  0.5259950000000 1.0
C      1  0.5500010000000  0.4802920000000  0.5468590000000 1.0
C      1  0.5865010000000  0.5330900000000  0.5733480000000 1.0
C      1  0.5409500000000  0.5463760000000  0.5740150000000 1.0
C      1  0.5481900000000  0.4735130000000  0.4221570000000 1.0
C      1  0.4836520000000  0.5294980000000  0.5225150000000 1.0
C      1  0.5004590000000  0.4015330000000  0.4342920000000 1.0
C      1  0.3919970000000  0.5038670000000  0.5643140000000 1.0
C      1  0.5245160000000  0.3878340000000  0.5465170000000 1.0
C      1  0.4807060000000  0.4516230000000  0.5298870000000 1.0
C      1  0.3803020000000  0.4957810000000  0.5367280000000 1.0
C      1  0.4525270000000  0.4543150000000  0.5213580000000 1.0
C      1  0.5106380000000  0.3987280000000  0.5242760000000 1.0
C      1  0.4041770000000  0.4825760000000  0.5240550000000 1.0
C      1  0.5469080000000  0.4813060000000  0.4957600000000 1.0
C      1  0.5992620000000  0.5164440000000  0.4488650000000 1.0
C      1  0.4066960000000  0.4841740000000  0.4928400000000 1.0
C      1  0.4853150000000  0.4259420000000  0.4881180000000 1.0
C      1  0.4896160000000  0.4229920000000  0.4172360000000 1.0
C      1  0.5609060000000  0.4935090000000  0.5188600000000 1.0
C      1  0.4312540000000  0.5578480000000  0.5136990000000 1.0
C      1  0.5341910000000  0.4983920000000  0.4056230000000 1.0
C      1  0.5674510000000  0.4321090000000  0.4581060000000 1.0
C      1  0.4742910000000  0.5390860000000  0.6006440000000 1.0
C      1  0.5561380000000  0.4940770000000  0.4687910000000 1.0
C      1  0.4470130000000  0.4876490000000  0.4106810000000 1.0
C      1  0.5800670000000  0.5815890000000  0.4840180000000 1.0
C      1  0.4616420000000  0.4217900000000  0.4138180000000 1.0
C      1  0.5694950000000  0.4314600000000  0.5079520000000 1.0
C      1  0.5274020000000  0.4655470000000  0.5954810000000 1.0
C      1  0.5848800000000  0.4455850000000  0.5291020000000 1.0
C      1  0.4987670000000  0.5137450000000  0.4833980000000 1.0
C      1  0.5054100000000  0.4835220000000  0.6044630000000 1.0
C      1  0.5025620000000  0.5337170000000  0.5976230000000 1.0
C      1  0.5568510000000  0.5391960000000  0.4466870000000 1.0
C      1  0.5167510000000  0.6120850000000  0.4969800000000 1.0
C      1  0.5988670000000  0.5617330000000  0.4766730000000 1.0
C      1  0.4931160000000  0.4806050000000  0.5314420000000 1.0
C      1  0.5579570000000  0.5860390000000  0.4640650000000 1.0
C      1  0.5576320000000  0.5687850000000  0.5632880000000 1.0
C      1  0.5286990000000  0.5304160000000  0.4501960000000 1.0
C      1  0.5209630000000  0.4391540000000  0.5899830000000 1.0
C      1  0.5962450000000  0.4896120000000  0.5025160000000 1.0
C      1  0.5044770000000  0.4806550000000  0.5601900000000 1.0
C      1  0.4652260000000  0.5911640000000  0.4859330000000 1.0
C      1  0.5556960000000  0.4762940000000  0.5934280000000 1.0
C      1  0.4046880000000  0.4548950000000  0.4495480000000 1.0
C      1  0.5476120000000  0.5203500000000  0.5170190000000 1.0
C      1  0.4520670000000  0.4537220000000  0.4547660000000 1.0
C      1  0.4241160000000  0.5102090000000  0.5343000000000 1.0
C      1  0.4857830000000  0.6096650000000  0.4611810000000 1.0
C      1  0.5177280000000  0.5854960000000  0.5497890000000 1.0
C      1  0.5352270000000  0.4480580000000  0.4106900000000 1.0
C      1  0.5341690000000  0.5500590000000  0.4034450000000 1.0
C      1  0.4634990000000  0.4693100000000  0.3979500000000 1.0
C      1  0.5056820000000  0.4462040000000  0.4077100000000 1.0
C      1  0.5733280000000  0.5809440000000  0.5143110000000 1.0
C      1  0.4663270000000  0.4034400000000  0.4906350000000 1.0
C      1  0.5664160000000  0.5312920000000  0.4740690000000 1.0
C      1  0.5917950000000  0.5605190000000  0.5301130000000 1.0
C      1  0.5263370000000  0.5250040000000  0.5553180000000 1.0
C      1  0.4838730000000  0.6065360000000  0.5263310000000 1.0
C      1  0.5576590000000  0.4098850000000  0.4150400000000 1.0
C      1  0.4486870000000  0.4971770000000  0.5481190000000 1.0
C      1  0.4920440000000  0.5625520000000  0.4568120000000 1.0
C      1  0.5893420000000  0.4466340000000  0.4451090000000 1.0
END
