TITL C-950524-1808-231 -7.11841210975452e-07 125000 -170.658272348113 0 0 29 (C1) n - 1
REM
REM in /home/bkarasulu/work/CARBON/AIRSS/Generating-Clusters/EDIP-Nigel-Params/with-SteepDescent/Only-C1/SD-CG/HFTN-CG
REM
REM
REM
REM
REM
REM ./C.cell (11c1c37f851c82e70ff6c80c92926a4b)
REM
REM compiler GCC version 9.2.1 20190827 (Red Hat 9.2.1-1)
REM options -cpp -mtune=generic -march=x86-64 -g -O0 -fpre-include=/usr/include/finclude/math-vector-fortran.h
REM seed -1855299559 802867252 -141369261 -1339341183 -709817643 635956944 1116778132 732714168 -1946747215 656127668 864346393 -32436934 217998518 1260006946 283542211 -1125994350 936905857 2082675236 -1252481893 1495692335 460745723 -320180883 -1115406533 449283436 484251222 66819096 1722647439 -1792640515 -621840060 -496526463 -799895732 1772740897 -1052524303
REM
CELL 1.54180   50.00000   50.00000   50.00000   90.00000   90.00000   90.00000
LATT -1
SFAC C  
C      1  0.4489620000000  0.5007100000000  0.4794560000000 1.0
C      1  0.5432650000000  0.4726930000000  0.4782870000000 1.0
C      1  0.5106360000000  0.5153670000000  0.5500380000000 1.0
C      1  0.5066730000000  0.4874650000000  0.5464710000000 1.0
C      1  0.5141440000000  0.5048290000000  0.4639470000000 1.0
C      1  0.5075060000000  0.5279880000000  0.4474250000000 1.0
C      1  0.5035570000000  0.5375660000000  0.5342210000000 1.0
C      1  0.4801620000000  0.4812490000000  0.5343840000000 1.0
C      1  0.4568050000000  0.5453680000000  0.5001310000000 1.0
C      1  0.5533370000000  0.4759970000000  0.5270950000000 1.0
C      1  0.4816650000000  0.5532670000000  0.5421800000000 1.0
C      1  0.4508410000000  0.5158370000000  0.5030960000000 1.0
C      1  0.5464970000000  0.5155820000000  0.5006500000000 1.0
C      1  0.4977040000000  0.5282760000000  0.5062080000000 1.0
C      1  0.4660950000000  0.4796950000000  0.4728790000000 1.0
C      1  0.5122400000000  0.4526170000000  0.5128580000000 1.0
C      1  0.4705230000000  0.5055640000000  0.5216360000000 1.0
C      1  0.4839790000000  0.5475620000000  0.4877160000000 1.0
C      1  0.4828300000000  0.4573500000000  0.5162000000000 1.0
C      1  0.5160450000000  0.4327230000000  0.4678880000000 1.0
C      1  0.5537160000000  0.4883650000000  0.5015260000000 1.0
C      1  0.5376630000000  0.4891650000000  0.4554140000000 1.0
C      1  0.5227560000000  0.4521200000000  0.4850170000000 1.0
C      1  0.4907820000000  0.4880900000000  0.4635280000000 1.0
C      1  0.4881710000000  0.5422150000000  0.4604310000000 1.0
C      1  0.5199280000000  0.5152340000000  0.4915380000000 1.0
C      1  0.4679130000000  0.4597690000000  0.4922980000000 1.0
C      1  0.4597310000000  0.5564170000000  0.5262450000000 1.0
C      1  0.5258740000000  0.4709210000000  0.5312380000000 1.0
END
