TITL C-950524-1808-268 4.82928058629926e-07 125000 -1090.49862473527 0 0 173 (C1) n - 1
REM
REM in /home/bkarasulu/work/CARBON/AIRSS/Generating-Clusters/EDIP-Nigel-Params/with-SteepDescent/Only-C1/SD-CG/HFTN-CG
REM
REM
REM
REM
REM
REM ./C.cell (11c1c37f851c82e70ff6c80c92926a4b)
REM
REM compiler GCC version 9.2.1 20190827 (Red Hat 9.2.1-1)
REM options -cpp -mtune=generic -march=x86-64 -g -O0 -fpre-include=/usr/include/finclude/math-vector-fortran.h
REM seed 166952297 -1186134372 -549343745 816098272 -1364800743 545139032 1326948368 1950377389 -94204281 -1199638245 1392673082 -594778559 -1868751664 982896233 1803350646 914103991 258438518 -738803246 -406061678 -161535302 82776577 1591573050 1702495035 -118995540 545047390 -2119485189 688576221 -718028678 -1289975185 -574973191 1094037778 1190815070 -1472806672
REM
CELL 1.54180   50.00000   50.00000   50.00000   90.00000   90.00000   90.00000
LATT -1
SFAC C  
C      1  0.5073420000000  0.4394580000000  0.3989370000000 1.0
C      1  0.4595560000000  0.5843050000000  0.5335870000000 1.0
C      1  0.5377410000000  0.6118300000000  0.5056900000000 1.0
C      1  0.5491580000000  0.4835410000000  0.4742830000000 1.0
C      1  0.4644680000000  0.5492400000000  0.4987600000000 1.0
C      1  0.5760130000000  0.5525540000000  0.5900020000000 1.0
C      1  0.5341940000000  0.4545410000000  0.4013850000000 1.0
C      1  0.5733100000000  0.5031030000000  0.4086780000000 1.0
C      1  0.5758100000000  0.4948810000000  0.4353000000000 1.0
C      1  0.4012260000000  0.5225740000000  0.5593180000000 1.0
C      1  0.4897090000000  0.6008300000000  0.4964680000000 1.0
C      1  0.5348700000000  0.5335300000000  0.4097230000000 1.0
C      1  0.4485590000000  0.5376670000000  0.4208020000000 1.0
C      1  0.4402420000000  0.4274410000000  0.4987180000000 1.0
C      1  0.5287280000000  0.3914180000000  0.4908650000000 1.0
C      1  0.5313570000000  0.4446710000000  0.5031750000000 1.0
C      1  0.5551900000000  0.4647060000000  0.5012690000000 1.0
C      1  0.5942590000000  0.4450230000000  0.5209220000000 1.0
C      1  0.4786150000000  0.5079390000000  0.5564750000000 1.0
C      1  0.4474380000000  0.6036000000000  0.4631510000000 1.0
C      1  0.3898430000000  0.4922450000000  0.4689630000000 1.0
C      1  0.4481990000000  0.5358490000000  0.4776380000000 1.0
C      1  0.5755790000000  0.4389490000000  0.5437880000000 1.0
C      1  0.5497490000000  0.3992590000000  0.5247030000000 1.0
C      1  0.5059160000000  0.5336270000000  0.4106640000000 1.0
C      1  0.5620810000000  0.5042640000000  0.5781360000000 1.0
C      1  0.4849900000000  0.4404730000000  0.5285540000000 1.0
C      1  0.5107750000000  0.4932130000000  0.5032780000000 1.0
C      1  0.4234610000000  0.4428220000000  0.5420030000000 1.0
C      1  0.5984710000000  0.4987270000000  0.4521930000000 1.0
C      1  0.5004910000000  0.5387970000000  0.5266660000000 1.0
C      1  0.3872170000000  0.4480320000000  0.4856460000000 1.0
C      1  0.4054740000000  0.5182530000000  0.5319360000000 1.0
C      1  0.6025510000000  0.5261610000000  0.4560680000000 1.0
C      1  0.4851000000000  0.5708540000000  0.5753050000000 1.0
C      1  0.5232310000000  0.3972580000000  0.5176020000000 1.0
C      1  0.4681510000000  0.5572040000000  0.4274490000000 1.0
C      1  0.5830910000000  0.5418410000000  0.4708210000000 1.0
C      1  0.4634690000000  0.4433630000000  0.5728230000000 1.0
C      1  0.5457780000000  0.5061580000000  0.4050140000000 1.0
C      1  0.4526300000000  0.4095620000000  0.4551120000000 1.0
C      1  0.5336780000000  0.5198080000000  0.4970640000000 1.0
C      1  0.5589030000000  0.5109410000000  0.5077270000000 1.0
C      1  0.3840160000000  0.4646870000000  0.4632840000000 1.0
C      1  0.5806150000000  0.4491560000000  0.4950800000000 1.0
C      1  0.4735830000000  0.3879890000000  0.5248600000000 1.0
C      1  0.4133160000000  0.5667070000000  0.5198330000000 1.0
C      1  0.5344930000000  0.4355650000000  0.4530840000000 1.0
C      1  0.4439220000000  0.4580100000000  0.4997070000000 1.0
C      1  0.5508280000000  0.5454230000000  0.6008680000000 1.0
C      1  0.4239770000000  0.5404310000000  0.4340480000000 1.0
C      1  0.4922850000000  0.5588770000000  0.4127190000000 1.0
C      1  0.5076980000000  0.5821830000000  0.4122060000000 1.0
C      1  0.4516110000000  0.5466360000000  0.5273140000000 1.0
C      1  0.4620130000000  0.5107030000000  0.4198850000000 1.0
C      1  0.5041260000000  0.5207750000000  0.5482500000000 1.0
C      1  0.4653270000000  0.4634130000000  0.4125590000000 1.0
C      1  0.4493240000000  0.4408830000000  0.4203040000000 1.0
C      1  0.4611170000000  0.4607210000000  0.5270220000000 1.0
C      1  0.5305380000000  0.4836970000000  0.3918370000000 1.0
C      1  0.5810470000000  0.5600210000000  0.5406760000000 1.0
C      1  0.4144450000000  0.4977100000000  0.4828800000000 1.0
C      1  0.4830530000000  0.5020350000000  0.4986140000000 1.0
C      1  0.4949770000000  0.5716860000000  0.4961640000000 1.0
C      1  0.4763250000000  0.4244470000000  0.5528210000000 1.0
C      1  0.5403250000000  0.5717630000000  0.5651340000000 1.0
C      1  0.4235120000000  0.4792340000000  0.4263340000000 1.0
C      1  0.5791870000000  0.4525530000000  0.4519140000000 1.0
C      1  0.6104610000000  0.4884120000000  0.5009210000000 1.0
C      1  0.4622800000000  0.5995950000000  0.5081600000000 1.0
C      1  0.5737740000000  0.5839190000000  0.4891950000000 1.0
C      1  0.5292180000000  0.5825130000000  0.5400130000000 1.0
C      1  0.4178330000000  0.5853690000000  0.4992730000000 1.0
C      1  0.5131900000000  0.4827720000000  0.6124390000000 1.0
C      1  0.6064610000000  0.5169570000000  0.5081610000000 1.0
C      1  0.5068210000000  0.5649470000000  0.4689270000000 1.0
C      1  0.4363720000000  0.4838500000000  0.5757990000000 1.0
C      1  0.5591850000000  0.4870890000000  0.5261490000000 1.0
C      1  0.5726350000000  0.4228830000000  0.4846130000000 1.0
C      1  0.5187350000000  0.4782760000000  0.4772270000000 1.0
C      1  0.4124570000000  0.4390950000000  0.4578610000000 1.0
C      1  0.5213860000000  0.4383520000000  0.5936780000000 1.0
C      1  0.4058630000000  0.5345240000000  0.4549460000000 1.0
C      1  0.4012050000000  0.4961780000000  0.4254240000000 1.0
C      1  0.5475780000000  0.5164210000000  0.6037650000000 1.0
C      1  0.4609910000000  0.4873390000000  0.5912780000000 1.0
C      1  0.5162760000000  0.5616470000000  0.5181500000000 1.0
C      1  0.5578240000000  0.4140200000000  0.5486170000000 1.0
C      1  0.4116950000000  0.5385320000000  0.5113830000000 1.0
C      1  0.4969300000000  0.4237700000000  0.4249830000000 1.0
C      1  0.5010320000000  0.4877650000000  0.3914000000000 1.0
C      1  0.4750340000000  0.4395190000000  0.4662170000000 1.0
C      1  0.5364980000000  0.5489960000000  0.5024590000000 1.0
C      1  0.4861520000000  0.4800840000000  0.5473910000000 1.0
C      1  0.3895380000000  0.5108040000000  0.4465000000000 1.0
C      1  0.4727490000000  0.3977850000000  0.4985620000000 1.0
C      1  0.5122020000000  0.5175110000000  0.4513130000000 1.0
C      1  0.5324600000000  0.4429510000000  0.5510520000000 1.0
C      1  0.4527520000000  0.5154870000000  0.5375600000000 1.0
C      1  0.5190750000000  0.4116120000000  0.4433770000000 1.0
C      1  0.5917850000000  0.5690060000000  0.4739890000000 1.0
C      1  0.4946430000000  0.5280520000000  0.6015490000000 1.0
C      1  0.3952720000000  0.4619960000000  0.5092600000000 1.0
C      1  0.5101020000000  0.3996410000000  0.4697640000000 1.0
C      1  0.5020460000000  0.5545550000000  0.5910860000000 1.0
C      1  0.5480830000000  0.5995370000000  0.4797610000000 1.0
C      1  0.5015680000000  0.3897170000000  0.5364150000000 1.0
C      1  0.5605530000000  0.4737700000000  0.5799850000000 1.0
C      1  0.5234480000000  0.5983150000000  0.4566360000000 1.0
C      1  0.5162140000000  0.4472500000000  0.4766120000000 1.0
C      1  0.4998960000000  0.4066100000000  0.5613620000000 1.0
C      1  0.5514800000000  0.5973590000000  0.5271960000000 1.0
C      1  0.5087290000000  0.6138700000000  0.5151630000000 1.0
C      1  0.5803100000000  0.4623620000000  0.5618220000000 1.0
C      1  0.4672950000000  0.5171920000000  0.5922740000000 1.0
C      1  0.5328880000000  0.4620280000000  0.4307510000000 1.0
C      1  0.5014470000000  0.4913190000000  0.4569780000000 1.0
C      1  0.5145570000000  0.4495130000000  0.5272830000000 1.0
C      1  0.5691510000000  0.5671560000000  0.5666100000000 1.0
C      1  0.5453370000000  0.5547210000000  0.4296370000000 1.0
C      1  0.4953260000000  0.6074170000000  0.4672800000000 1.0
C      1  0.4718520000000  0.6075780000000  0.4523260000000 1.0
C      1  0.4299290000000  0.4182290000000  0.4714710000000 1.0
C      1  0.4929130000000  0.4473850000000  0.4435360000000 1.0
C      1  0.5181210000000  0.5091250000000  0.6047530000000 1.0
C      1  0.5116540000000  0.4790830000000  0.5306440000000 1.0
C      1  0.5028530000000  0.4750030000000  0.4328860000000 1.0
C      1  0.4920160000000  0.5071260000000  0.4132360000000 1.0
C      1  0.6066330000000  0.4721170000000  0.5252750000000 1.0
C      1  0.5255520000000  0.4199230000000  0.5699380000000 1.0
C      1  0.4431490000000  0.5326900000000  0.5805970000000 1.0
C      1  0.4410020000000  0.5972560000000  0.4894830000000 1.0
C      1  0.4555990000000  0.4045900000000  0.5425470000000 1.0
C      1  0.4220100000000  0.4953500000000  0.5301840000000 1.0
C      1  0.5066370000000  0.6017960000000  0.5433750000000 1.0
C      1  0.4876560000000  0.4145580000000  0.4816760000000 1.0
C      1  0.5983260000000  0.4776050000000  0.4745340000000 1.0
C      1  0.4385410000000  0.4559020000000  0.5640210000000 1.0
C      1  0.4250450000000  0.5730720000000  0.5466960000000 1.0
C      1  0.5595880000000  0.4736400000000  0.4469770000000 1.0
C      1  0.5857410000000  0.4848680000000  0.5431350000000 1.0
C      1  0.4477020000000  0.4863020000000  0.4126490000000 1.0
C      1  0.4875320000000  0.4615110000000  0.3938320000000 1.0
C      1  0.5728740000000  0.5794590000000  0.5184560000000 1.0
C      1  0.5342290000000  0.4667710000000  0.5697910000000 1.0
C      1  0.4194720000000  0.5277580000000  0.4824870000000 1.0
C      1  0.4638960000000  0.4174640000000  0.4295560000000 1.0
C      1  0.4639660000000  0.4929100000000  0.5180990000000 1.0
C      1  0.5298680000000  0.5215180000000  0.5642980000000 1.0
C      1  0.4433370000000  0.5566680000000  0.5636600000000 1.0
C      1  0.5533230000000  0.5439740000000  0.4578420000000 1.0
C      1  0.4650600000000  0.5215670000000  0.4577470000000 1.0
C      1  0.5268300000000  0.5789260000000  0.4322230000000 1.0
C      1  0.5347950000000  0.4889780000000  0.5469770000000 1.0
C      1  0.4921520000000  0.5403260000000  0.4521780000000 1.0
C      1  0.5374740000000  0.5622360000000  0.4766260000000 1.0
C      1  0.4819760000000  0.5878190000000  0.5527630000000 1.0
C      1  0.4851300000000  0.5296290000000  0.5040530000000 1.0
C      1  0.4743150000000  0.4939630000000  0.4707240000000 1.0
C      1  0.4781610000000  0.4638790000000  0.5870460000000 1.0
C      1  0.5034370000000  0.4599720000000  0.6001880000000 1.0
C      1  0.5377290000000  0.5190130000000  0.4660020000000 1.0
C      1  0.3972870000000  0.4498510000000  0.5341740000000 1.0
C      1  0.4242640000000  0.4506060000000  0.4326230000000 1.0
C      1  0.5813660000000  0.5273710000000  0.4982790000000 1.0
C      1  0.4329070000000  0.4182440000000  0.5274450000000 1.0
C      1  0.4612150000000  0.4652600000000  0.4760160000000 1.0
C      1  0.5877970000000  0.5114350000000  0.5586820000000 1.0
C      1  0.5293640000000  0.5494280000000  0.5803180000000 1.0
C      1  0.5639200000000  0.4297800000000  0.4591060000000 1.0
C      1  0.4249770000000  0.5119280000000  0.5712290000000 1.0
C      1  0.5946490000000  0.5335030000000  0.5400100000000 1.0
C      1  0.4191130000000  0.4788790000000  0.5053670000000 1.0
END
