TITL C-951337-3020-402 7.37492190491238e-08 125000 -644.454678392425 0 0 107 (C1) n - 1
REM
REM in /home/bkarasulu/work/CARBON/AIRSS/Generating-Clusters/EDIP-Nigel-Params/with-SteepDescent/Only-C1/SD-CG/HFTN-CG
REM
REM
REM
REM
REM
REM ./C.cell (11c1c37f851c82e70ff6c80c92926a4b)
REM
REM compiler GCC version 9.2.1 20190827 (Red Hat 9.2.1-1)
REM options -cpp -mtune=generic -march=x86-64 -g -O0 -fpre-include=/usr/include/finclude/math-vector-fortran.h
REM seed -1400574686 1563418214 -1625029269 1186332588 -195618455 -1794613393 -1054862885 1705865292 2144709341 -1129449830 -1117289127 2143905289 -294739166 -2000199725 -1813244853 -1303725467 1280477615 700793278 -13191632 1698995188 441718683 728399701 586710379 -9102127 -1267750572 -1391270168 -1611391838 -2018059167 814089971 -1781641674 1396288760 2014990646 1023242120
REM
CELL 1.54180   50.00000   50.00000   50.00000   90.00000   90.00000   90.00000
LATT -1
SFAC C  
C      1  0.5014230000000  0.5303450000000  0.5545180000000 1.0
C      1  0.4929780000000  0.4616530000000  0.5851990000000 1.0
C      1  0.4704830000000  0.4977470000000  0.5884870000000 1.0
C      1  0.4455000000000  0.5200010000000  0.5204740000000 1.0
C      1  0.4509800000000  0.4957010000000  0.5660040000000 1.0
C      1  0.4767100000000  0.5461120000000  0.4392200000000 1.0
C      1  0.5018740000000  0.4806250000000  0.4172900000000 1.0
C      1  0.4556130000000  0.4672770000000  0.5590820000000 1.0
C      1  0.4261040000000  0.4632600000000  0.4711060000000 1.0
C      1  0.4745330000000  0.4458610000000  0.5012520000000 1.0
C      1  0.5618490000000  0.5513280000000  0.4806530000000 1.0
C      1  0.4497610000000  0.4453390000000  0.4648040000000 1.0
C      1  0.5044200000000  0.4911780000000  0.4862510000000 1.0
C      1  0.4624240000000  0.4034740000000  0.5249280000000 1.0
C      1  0.5109070000000  0.5460370000000  0.4750420000000 1.0
C      1  0.4852600000000  0.3961960000000  0.5078570000000 1.0
C      1  0.5813240000000  0.4777070000000  0.4471000000000 1.0
C      1  0.5702910000000  0.4438580000000  0.5226160000000 1.0
C      1  0.5827740000000  0.5300420000000  0.5169910000000 1.0
C      1  0.4231020000000  0.4979930000000  0.5188030000000 1.0
C      1  0.5473990000000  0.5119310000000  0.5542840000000 1.0
C      1  0.4850160000000  0.4599730000000  0.5575670000000 1.0
C      1  0.5271460000000  0.4243940000000  0.4554320000000 1.0
C      1  0.5465570000000  0.4338600000000  0.4359450000000 1.0
C      1  0.4512720000000  0.5175740000000  0.4212960000000 1.0
C      1  0.4942070000000  0.4860830000000  0.5981500000000 1.0
C      1  0.5602360000000  0.4569600000000  0.4501930000000 1.0
C      1  0.3929510000000  0.5282880000000  0.4943620000000 1.0
C      1  0.4459720000000  0.4217920000000  0.5097040000000 1.0
C      1  0.4533800000000  0.5695100000000  0.5143120000000 1.0
C      1  0.5374370000000  0.4434070000000  0.5753320000000 1.0
C      1  0.5316360000000  0.4821790000000  0.5410740000000 1.0
C      1  0.4862760000000  0.5342130000000  0.4652900000000 1.0
C      1  0.5339160000000  0.6019410000000  0.5305130000000 1.0
C      1  0.5876740000000  0.5517870000000  0.4722620000000 1.0
C      1  0.4189800000000  0.4906590000000  0.5502250000000 1.0
C      1  0.5438340000000  0.4946110000000  0.5817000000000 1.0
C      1  0.4959590000000  0.5068430000000  0.4584270000000 1.0
C      1  0.4833520000000  0.5537810000000  0.5575820000000 1.0
C      1  0.4882410000000  0.4324440000000  0.5465570000000 1.0
C      1  0.5790060000000  0.4861060000000  0.5290040000000 1.0
C      1  0.5295460000000  0.5365980000000  0.5528700000000 1.0
C      1  0.5118850000000  0.5061000000000  0.4303800000000 1.0
C      1  0.5490310000000  0.5139100000000  0.4852010000000 1.0
C      1  0.5611900000000  0.5479720000000  0.5105590000000 1.0
C      1  0.5175560000000  0.5321290000000  0.4150930000000 1.0
C      1  0.5388300000000  0.5283190000000  0.5103770000000 1.0
C      1  0.5493390000000  0.5974990000000  0.4953290000000 1.0
C      1  0.5802110000000  0.4533440000000  0.4970930000000 1.0
C      1  0.5207020000000  0.5710290000000  0.4351440000000 1.0
C      1  0.5865530000000  0.4827610000000  0.5012330000000 1.0
C      1  0.4262960000000  0.4938130000000  0.4799970000000 1.0
C      1  0.4903960000000  0.5084080000000  0.5370010000000 1.0
C      1  0.4556000000000  0.5513870000000  0.5630250000000 1.0
C      1  0.4090960000000  0.5496590000000  0.5064400000000 1.0
C      1  0.5461050000000  0.4732550000000  0.5154630000000 1.0
C      1  0.4876140000000  0.4632410000000  0.4792010000000 1.0
C      1  0.4508060000000  0.5635530000000  0.4418440000000 1.0
C      1  0.5281540000000  0.6122450000000  0.5053850000000 1.0
C      1  0.4705220000000  0.4903640000000  0.4569790000000 1.0
C      1  0.4680930000000  0.4426980000000  0.4427530000000 1.0
C      1  0.5803110000000  0.5052880000000  0.4550600000000 1.0
C      1  0.5207600000000  0.5712280000000  0.4640880000000 1.0
C      1  0.5389920000000  0.4979930000000  0.4370580000000 1.0
C      1  0.4931030000000  0.5146150000000  0.5063730000000 1.0
C      1  0.5128230000000  0.4621180000000  0.4382760000000 1.0
C      1  0.4305580000000  0.4625160000000  0.5439190000000 1.0
C      1  0.4997600000000  0.5550450000000  0.4214440000000 1.0
C      1  0.5349480000000  0.4862550000000  0.4864210000000 1.0
C      1  0.4507890000000  0.4223710000000  0.4818450000000 1.0
C      1  0.5132890000000  0.3976270000000  0.5122470000000 1.0
C      1  0.4640940000000  0.5221240000000  0.4956730000000 1.0
C      1  0.5013140000000  0.4809910000000  0.5419340000000 1.0
C      1  0.4622670000000  0.5121270000000  0.5438060000000 1.0
C      1  0.4338100000000  0.5484060000000  0.5243320000000 1.0
C      1  0.5121510000000  0.5379460000000  0.5027040000000 1.0
C      1  0.4754840000000  0.5855310000000  0.5216500000000 1.0
C      1  0.5217990000000  0.5791830000000  0.5424540000000 1.0
C      1  0.4302390000000  0.5525920000000  0.5529420000000 1.0
C      1  0.5802890000000  0.5091440000000  0.4863860000000 1.0
C      1  0.4927950000000  0.5774420000000  0.5433170000000 1.0
C      1  0.5194890000000  0.4977780000000  0.5955990000000 1.0
C      1  0.5364400000000  0.4745690000000  0.4540320000000 1.0
C      1  0.4948520000000  0.4453940000000  0.4550120000000 1.0
C      1  0.5422430000000  0.4257650000000  0.5552120000000 1.0
C      1  0.4525400000000  0.5050910000000  0.4744290000000 1.0
C      1  0.4395880000000  0.5660130000000  0.4690230000000 1.0
C      1  0.5563500000000  0.5197750000000  0.4422640000000 1.0
C      1  0.4551950000000  0.5803530000000  0.4885780000000 1.0
C      1  0.5621780000000  0.4448700000000  0.4763140000000 1.0
C      1  0.4691960000000  0.4124680000000  0.5510520000000 1.0
C      1  0.5436790000000  0.5419810000000  0.4257960000000 1.0
C      1  0.4393880000000  0.5419350000000  0.4262490000000 1.0
C      1  0.5445800000000  0.4689920000000  0.5656320000000 1.0
C      1  0.5367980000000  0.5629730000000  0.5599330000000 1.0
C      1  0.5514500000000  0.4238250000000  0.5288700000000 1.0
C      1  0.5424690000000  0.4242560000000  0.4800170000000 1.0
C      1  0.4056480000000  0.5141800000000  0.4721700000000 1.0
C      1  0.5339480000000  0.4170100000000  0.5069150000000 1.0
C      1  0.4605750000000  0.4922580000000  0.4287790000000 1.0
C      1  0.4313310000000  0.4678890000000  0.5147330000000 1.0
C      1  0.4272100000000  0.5403720000000  0.4808830000000 1.0
C      1  0.4955240000000  0.4316610000000  0.5182530000000 1.0
C      1  0.4150990000000  0.4540610000000  0.4958030000000 1.0
C      1  0.5757470000000  0.5124310000000  0.5399240000000 1.0
C      1  0.4749890000000  0.4776590000000  0.4099580000000 1.0
C      1  0.5476400000000  0.5775460000000  0.4743810000000 1.0
END
