TITL C-951341-1326-320 -4.25438452418393e-06 125000 -317.981703363179 0 0 53 (C1) n - 1
REM
REM in /home/bkarasulu/work/CARBON/AIRSS/Generating-Clusters/EDIP-Nigel-Params/with-SteepDescent/Only-C1/SD-CG/HFTN-CG
REM
REM
REM
REM
REM
REM ./C.cell (11c1c37f851c82e70ff6c80c92926a4b)
REM
REM compiler GCC version 9.2.1 20190827 (Red Hat 9.2.1-1)
REM options -cpp -mtune=generic -march=x86-64 -g -O0 -fpre-include=/usr/include/finclude/math-vector-fortran.h
REM seed -1997349050 -6797552 -1326231411 961429771 1769818298 1507929336 505592821 106840549 1236064607 -971860934 1909723213 -60547674 -1432451118 -765929217 -741979065 112758047 1129604114 345645593 -1772046997 1192287104 983941392 610377536 -1400727822 -839338771 1113769236 -1046715674 1111084466 -373862840 1562507003 -361375207 9945334 1916073658 -1139736969
REM
CELL 1.54180   50.00000   50.00000   50.00000   90.00000   90.00000   90.00000
LATT -1
SFAC C  
C      1  0.4450450000000  0.4771630000000  0.4740660000000 1.0
C      1  0.4396440000000  0.5147530000000  0.5447750000000 1.0
C      1  0.5020110000000  0.4788730000000  0.4793910000000 1.0
C      1  0.5494540000000  0.4846330000000  0.4392060000000 1.0
C      1  0.5313280000000  0.4769920000000  0.4723610000000 1.0
C      1  0.5301280000000  0.5058420000000  0.4407190000000 1.0
C      1  0.4702450000000  0.5680560000000  0.4774470000000 1.0
C      1  0.4835900000000  0.4565750000000  0.4711920000000 1.0
C      1  0.5068780000000  0.4265880000000  0.4582570000000 1.0
C      1  0.4877290000000  0.4274350000000  0.4795980000000 1.0
C      1  0.4371580000000  0.5262940000000  0.5174290000000 1.0
C      1  0.5221830000000  0.5613340000000  0.5321850000000 1.0
C      1  0.4601060000000  0.4632620000000  0.4542250000000 1.0
C      1  0.4907280000000  0.5172840000000  0.4603190000000 1.0
C      1  0.4617870000000  0.5238580000000  0.4535730000000 1.0
C      1  0.4993310000000  0.4694400000000  0.4334760000000 1.0
C      1  0.4636370000000  0.4607060000000  0.5465560000000 1.0
C      1  0.5203170000000  0.4712250000000  0.5757240000000 1.0
C      1  0.5602410000000  0.4861970000000  0.5125610000000 1.0
C      1  0.5087150000000  0.5123800000000  0.5082850000000 1.0
C      1  0.4972590000000  0.5256380000000  0.5534180000000 1.0
C      1  0.4838070000000  0.5012570000000  0.5621970000000 1.0
C      1  0.5616280000000  0.5324180000000  0.5291580000000 1.0
C      1  0.5025980000000  0.4969810000000  0.4388690000000 1.0
C      1  0.4615040000000  0.4911290000000  0.5444750000000 1.0
C      1  0.4686770000000  0.4429980000000  0.5089220000000 1.0
C      1  0.4973660000000  0.4844780000000  0.5798810000000 1.0
C      1  0.5126290000000  0.5376780000000  0.4527740000000 1.0
C      1  0.4791100000000  0.5432080000000  0.5390430000000 1.0
C      1  0.5594860000000  0.5254580000000  0.4818290000000 1.0
C      1  0.5461140000000  0.4669550000000  0.4962010000000 1.0
C      1  0.5435900000000  0.4567270000000  0.4421110000000 1.0
C      1  0.5161880000000  0.4484720000000  0.4420000000000 1.0
C      1  0.5109670000000  0.4635600000000  0.5263570000000 1.0
C      1  0.4593560000000  0.5512990000000  0.4591480000000 1.0
C      1  0.4854030000000  0.4473000000000  0.5333390000000 1.0
C      1  0.4462330000000  0.5075900000000  0.4737550000000 1.0
C      1  0.4877080000000  0.5270090000000  0.4923040000000 1.0
C      1  0.4982890000000  0.4855030000000  0.5079210000000 1.0
C      1  0.4925110000000  0.5571250000000  0.4923880000000 1.0
C      1  0.4946020000000  0.5634610000000  0.5226620000000 1.0
C      1  0.4534360000000  0.4678640000000  0.5017120000000 1.0
C      1  0.5460150000000  0.5542280000000  0.5178290000000 1.0
C      1  0.5664120000000  0.5139380000000  0.5071760000000 1.0
C      1  0.4518300000000  0.5420770000000  0.5491940000000 1.0
C      1  0.5181710000000  0.5554930000000  0.4752710000000 1.0
C      1  0.5417920000000  0.5017390000000  0.5422220000000 1.0
C      1  0.4681610000000  0.4902960000000  0.5137300000000 1.0
C      1  0.5201050000000  0.5226550000000  0.5337330000000 1.0
C      1  0.4585680000000  0.5155280000000  0.4998600000000 1.0
C      1  0.5277590000000  0.4756310000000  0.5490510000000 1.0
C      1  0.5300650000000  0.4485010000000  0.5103330000000 1.0
C      1  0.5424100000000  0.5469160000000  0.4897900000000 1.0
END
