TITL C-951338-5626-68 -3.45078890755532e-07 125000 -147.186305091662 0 0 26 (C1) n - 1
REM
REM in /home/bkarasulu/work/CARBON/AIRSS/Generating-Clusters/EDIP-Nigel-Params/with-SteepDescent/Only-C1/SD-CG/HFTN-CG
REM
REM
REM
REM
REM
REM ./C.cell (11c1c37f851c82e70ff6c80c92926a4b)
REM
REM compiler GCC version 9.2.1 20190827 (Red Hat 9.2.1-1)
REM options -cpp -mtune=generic -march=x86-64 -g -O0 -fpre-include=/usr/include/finclude/math-vector-fortran.h
REM seed 1121936543 -559664808 317591112 2029824643 1661585259 1589556270 121488533 -341141412 -516724548 -136554841 1553291547 -727309415 -1157374661 1166942431 51085802 -469498108 -970735202 1843240635 1561153338 -917113339 1552814314 -1949580460 1439046327 -1034675042 442518284 2102780518 2087020051 -382515603 282786811 520364167 -1115313537 -125707025 192664758
REM
CELL 1.54180   50.00000   50.00000   50.00000   90.00000   90.00000   90.00000
LATT -1
SFAC C  
C      1  0.4874260000000  0.4523260000000  0.4898110000000 1.0
C      1  0.5150610000000  0.4633180000000  0.4498570000000 1.0
C      1  0.5192340000000  0.5052050000000  0.4714440000000 1.0
C      1  0.5652940000000  0.5304840000000  0.5299830000000 1.0
C      1  0.5300190000000  0.4635370000000  0.5132930000000 1.0
C      1  0.5727300000000  0.5037310000000  0.5181440000000 1.0
C      1  0.5166220000000  0.5095050000000  0.4995160000000 1.0
C      1  0.4599750000000  0.4565120000000  0.4902610000000 1.0
C      1  0.5021140000000  0.4633080000000  0.5119960000000 1.0
C      1  0.5577380000000  0.5047410000000  0.5436760000000 1.0
C      1  0.4873820000000  0.4752330000000  0.5331820000000 1.0
C      1  0.4613280000000  0.4843540000000  0.5281060000000 1.0
C      1  0.4420590000000  0.5640290000000  0.5042080000000 1.0
C      1  0.5005440000000  0.4477600000000  0.4659700000000 1.0
C      1  0.4973240000000  0.5518130000000  0.5118850000000 1.0
C      1  0.4504690000000  0.5390460000000  0.5025000000000 1.0
C      1  0.5362570000000  0.4912730000000  0.5143800000000 1.0
C      1  0.5380900000000  0.4984180000000  0.4291490000000 1.0
C      1  0.4874170000000  0.5050110000000  0.5084340000000 1.0
C      1  0.4771590000000  0.5325000000000  0.5107550000000 1.0
C      1  0.5447660000000  0.5451270000000  0.5181800000000 1.0
C      1  0.4284470000000  0.4924150000000  0.4956660000000 1.0
C      1  0.4456860000000  0.4737620000000  0.5068100000000 1.0
C      1  0.4323060000000  0.5188820000000  0.4975620000000 1.0
C      1  0.5235580000000  0.4894650000000  0.4492960000000 1.0
C      1  0.5209940000000  0.5382440000000  0.5059350000000 1.0
END
