TITL C-951333-8791-413 2.54349881135217e-06 125000 -360.329791078534 0 0 61 (C1) n - 1
REM
REM in /home/bkarasulu/work/CARBON/AIRSS/Generating-Clusters/EDIP-Nigel-Params/with-SteepDescent/Only-C1/SD-CG/HFTN-CG
REM
REM
REM
REM
REM
REM ./C.cell (11c1c37f851c82e70ff6c80c92926a4b)
REM
REM compiler GCC version 9.2.1 20190827 (Red Hat 9.2.1-1)
REM options -cpp -mtune=generic -march=x86-64 -g -O0 -fpre-include=/usr/include/finclude/math-vector-fortran.h
REM seed 401910797 14249058 -1300235651 876940694 -798482474 219046447 -50955727 1675279258 648917470 -1700305696 -341125322 973964891 1111079170 1285321966 -319224421 747846644 879933266 -1332530996 1124312583 -750710701 -1439479050 -1528978111 1961027867 -181787184 -773872969 -216635203 -484111870 -1288016133 930435330 1185493187 -331638927 569185944 1902730359
REM
CELL 1.54180   50.00000   50.00000   50.00000   90.00000   90.00000   90.00000
LATT -1
SFAC C  
C      1  0.4546840000000  0.5194110000000  0.4987900000000 1.0
C      1  0.5966500000000  0.4981330000000  0.5051720000000 1.0
C      1  0.4285180000000  0.5213340000000  0.5251470000000 1.0
C      1  0.5609540000000  0.5103300000000  0.4671130000000 1.0
C      1  0.4931700000000  0.4849600000000  0.4904960000000 1.0
C      1  0.4339570000000  0.4658450000000  0.4786670000000 1.0
C      1  0.4487400000000  0.4997050000000  0.4302130000000 1.0
C      1  0.5276160000000  0.5364150000000  0.5032560000000 1.0
C      1  0.4549190000000  0.4515150000000  0.4901980000000 1.0
C      1  0.5390390000000  0.5010590000000  0.5874450000000 1.0
C      1  0.4660260000000  0.4505330000000  0.5390120000000 1.0
C      1  0.5065430000000  0.5806170000000  0.4944860000000 1.0
C      1  0.5612790000000  0.5383720000000  0.4747310000000 1.0
C      1  0.5386720000000  0.5558080000000  0.4646510000000 1.0
C      1  0.4899810000000  0.5158140000000  0.5314860000000 1.0
C      1  0.5378900000000  0.4737180000000  0.5451180000000 1.0
C      1  0.4470090000000  0.5122060000000  0.5887310000000 1.0
C      1  0.4191820000000  0.5044140000000  0.5031980000000 1.0
C      1  0.4872270000000  0.5803550000000  0.4611720000000 1.0
C      1  0.4799480000000  0.4878600000000  0.5638010000000 1.0
C      1  0.5167940000000  0.5088340000000  0.5727430000000 1.0
C      1  0.4596530000000  0.5461840000000  0.4853520000000 1.0
C      1  0.4932000000000  0.5592650000000  0.4421660000000 1.0
C      1  0.5634320000000  0.5251370000000  0.5259640000000 1.0
C      1  0.4422730000000  0.5092480000000  0.4576930000000 1.0
C      1  0.4668890000000  0.5447080000000  0.4354850000000 1.0
C      1  0.5395090000000  0.4615610000000  0.4879850000000 1.0
C      1  0.5603740000000  0.4525530000000  0.5077260000000 1.0
C      1  0.4934740000000  0.5028410000000  0.4357590000000 1.0
C      1  0.4588510000000  0.4724050000000  0.4271870000000 1.0
C      1  0.5187930000000  0.5155430000000  0.4415550000000 1.0
C      1  0.4830190000000  0.4574200000000  0.4809140000000 1.0
C      1  0.5101970000000  0.4347440000000  0.5197390000000 1.0
C      1  0.4716960000000  0.5177660000000  0.4229670000000 1.0
C      1  0.5651730000000  0.5465310000000  0.5041180000000 1.0
C      1  0.5209470000000  0.4826630000000  0.5011510000000 1.0
C      1  0.4525390000000  0.4447500000000  0.5167760000000 1.0
C      1  0.5270460000000  0.4392400000000  0.4754510000000 1.0
C      1  0.4272730000000  0.4929740000000  0.4774690000000 1.0
C      1  0.4836010000000  0.5641050000000  0.4852820000000 1.0
C      1  0.5331580000000  0.5672170000000  0.4932400000000 1.0
C      1  0.4487120000000  0.5382310000000  0.4592760000000 1.0
C      1  0.5157750000000  0.5120850000000  0.5441130000000 1.0
C      1  0.4528990000000  0.5191340000000  0.5412680000000 1.0
C      1  0.4781630000000  0.5037240000000  0.5079950000000 1.0
C      1  0.4562020000000  0.5028330000000  0.5646450000000 1.0
C      1  0.5407500000000  0.5000100000000  0.4502640000000 1.0
C      1  0.5539690000000  0.4272100000000  0.5183300000000 1.0
C      1  0.4871300000000  0.4663640000000  0.5472080000000 1.0
C      1  0.5344950000000  0.5304580000000  0.5318230000000 1.0
C      1  0.5632740000000  0.4734860000000  0.5290500000000 1.0
C      1  0.4355110000000  0.5182700000000  0.6107920000000 1.0
C      1  0.5158990000000  0.5422580000000  0.4517060000000 1.0
C      1  0.4837950000000  0.4548860000000  0.4513610000000 1.0
C      1  0.4879400000000  0.4745620000000  0.4304350000000 1.0
C      1  0.5125470000000  0.4637490000000  0.5304360000000 1.0
C      1  0.5306560000000  0.4161650000000  0.5260280000000 1.0
C      1  0.5726230000000  0.4986630000000  0.5166180000000 1.0
C      1  0.5032360000000  0.4363070000000  0.4905080000000 1.0
C      1  0.5392780000000  0.4771400000000  0.5738020000000 1.0
C      1  0.5272510000000  0.5103720000000  0.4847390000000 1.0
END
