TITL C-951335-1172-524 -1.0336760007702e-06 125000 -894.04094201485 0 0 145 (C1) n - 1
REM
REM in /home/bkarasulu/work/CARBON/AIRSS/Generating-Clusters/EDIP-Nigel-Params/with-SteepDescent/Only-C1/SD-CG/HFTN-CG
REM
REM
REM
REM
REM
REM ./C.cell (11c1c37f851c82e70ff6c80c92926a4b)
REM
REM compiler GCC version 9.2.1 20190827 (Red Hat 9.2.1-1)
REM options -cpp -mtune=generic -march=x86-64 -g -O0 -fpre-include=/usr/include/finclude/math-vector-fortran.h
REM seed 459720714 -113833855 1473484862 -993567359 -1459989705 985202596 -706573149 1561032004 1510656626 -858659961 -1907496920 1721359076 -1563477155 576697855 1597890869 -1603649849 -770535785 -1935012735 -750463142 -1368789700 -1209342962 76488016 1451823210 328037421 340703477 1338931800 8699817 -518046603 169146894 740291863 -596919254 107691748 -1488905994
REM
CELL 1.54180   50.00000   50.00000   50.00000   90.00000   90.00000   90.00000
LATT -1
SFAC C  
C      1  0.4572930000000  0.4429380000000  0.4795290000000 1.0
C      1  0.4602890000000  0.5289110000000  0.5754390000000 1.0
C      1  0.5280910000000  0.4054960000000  0.4868550000000 1.0
C      1  0.4897410000000  0.5041740000000  0.4289560000000 1.0
C      1  0.4656960000000  0.5490720000000  0.5142870000000 1.0
C      1  0.5099440000000  0.5059840000000  0.4889390000000 1.0
C      1  0.3929220000000  0.4801670000000  0.5022590000000 1.0
C      1  0.4483400000000  0.5536480000000  0.5852730000000 1.0
C      1  0.5700080000000  0.5295710000000  0.4123220000000 1.0
C      1  0.4196180000000  0.5616390000000  0.5298690000000 1.0
C      1  0.5240500000000  0.5160660000000  0.3992120000000 1.0
C      1  0.4740310000000  0.4776350000000  0.5608310000000 1.0
C      1  0.4684900000000  0.5926050000000  0.4844900000000 1.0
C      1  0.5756420000000  0.4669410000000  0.4328830000000 1.0
C      1  0.5429280000000  0.4355660000000  0.5304850000000 1.0
C      1  0.4136340000000  0.4661130000000  0.4861930000000 1.0
C      1  0.4871530000000  0.4100890000000  0.5213860000000 1.0
C      1  0.4738190000000  0.4867840000000  0.6043300000000 1.0
C      1  0.4705700000000  0.4568160000000  0.5399220000000 1.0
C      1  0.5317020000000  0.5620970000000  0.5040200000000 1.0
C      1  0.4747300000000  0.5654450000000  0.4298520000000 1.0
C      1  0.5121340000000  0.5038330000000  0.4504010000000 1.0
C      1  0.4979790000000  0.5537900000000  0.4184130000000 1.0
C      1  0.5211930000000  0.5335770000000  0.4542260000000 1.0
C      1  0.4862870000000  0.5879660000000  0.5073950000000 1.0
C      1  0.4902300000000  0.4176080000000  0.4675310000000 1.0
C      1  0.4560660000000  0.5208340000000  0.5239400000000 1.0
C      1  0.4882260000000  0.5920660000000  0.5365670000000 1.0
C      1  0.4573670000000  0.4102480000000  0.5291070000000 1.0
C      1  0.4895350000000  0.4426930000000  0.5839840000000 1.0
C      1  0.5032500000000  0.4835180000000  0.5685130000000 1.0
C      1  0.4114980000000  0.5340770000000  0.4578720000000 1.0
C      1  0.5193590000000  0.4566040000000  0.5365770000000 1.0
C      1  0.5400790000000  0.5993410000000  0.4890380000000 1.0
C      1  0.4030190000000  0.5059760000000  0.4633660000000 1.0
C      1  0.5261730000000  0.4586430000000  0.4650810000000 1.0
C      1  0.4439260000000  0.5209170000000  0.5508780000000 1.0
C      1  0.4617510000000  0.4924420000000  0.5105640000000 1.0
C      1  0.4974450000000  0.4485990000000  0.4619530000000 1.0
C      1  0.4481360000000  0.5738720000000  0.4741690000000 1.0
C      1  0.5822990000000  0.5063760000000  0.5601900000000 1.0
C      1  0.4181120000000  0.5342650000000  0.5424230000000 1.0
C      1  0.5327310000000  0.4829520000000  0.4458560000000 1.0
C      1  0.5294440000000  0.4670370000000  0.4941810000000 1.0
C      1  0.5022180000000  0.5482840000000  0.5184260000000 1.0
C      1  0.5474960000000  0.4227960000000  0.5016010000000 1.0
C      1  0.5438030000000  0.5468240000000  0.4781000000000 1.0
C      1  0.4222270000000  0.4658840000000  0.5672520000000 1.0
C      1  0.5114430000000  0.5205560000000  0.5906390000000 1.0
C      1  0.5359580000000  0.5790230000000  0.5599590000000 1.0
C      1  0.6104280000000  0.5345300000000  0.4956610000000 1.0
C      1  0.5369040000000  0.4366300000000  0.5760090000000 1.0
C      1  0.5323520000000  0.4100360000000  0.4566880000000 1.0
C      1  0.4325710000000  0.4220230000000  0.5145360000000 1.0
C      1  0.4980370000000  0.5458930000000  0.4692610000000 1.0
C      1  0.5541810000000  0.5601850000000  0.5239690000000 1.0
C      1  0.4764360000000  0.4647290000000  0.4742350000000 1.0
C      1  0.4399470000000  0.4479200000000  0.5790880000000 1.0
C      1  0.5929760000000  0.5225700000000  0.5163000000000 1.0
C      1  0.5027060000000  0.4099260000000  0.5472040000000 1.0
C      1  0.4361300000000  0.4987400000000  0.4079630000000 1.0
C      1  0.5426770000000  0.5717950000000  0.4485950000000 1.0
C      1  0.4482220000000  0.4678250000000  0.5232770000000 1.0
C      1  0.4644040000000  0.4066440000000  0.4559720000000 1.0
C      1  0.4421120000000  0.4929530000000  0.4870120000000 1.0
C      1  0.4516600000000  0.5456840000000  0.4863410000000 1.0
C      1  0.4632590000000  0.4215110000000  0.4307570000000 1.0
C      1  0.5007600000000  0.5323260000000  0.4937580000000 1.0
C      1  0.5838800000000  0.5442670000000  0.4316300000000 1.0
C      1  0.5747250000000  0.5094840000000  0.4655730000000 1.0
C      1  0.4938900000000  0.5629980000000  0.5742470000000 1.0
C      1  0.5719690000000  0.5010560000000  0.4149110000000 1.0
C      1  0.5400020000000  0.5282830000000  0.5840820000000 1.0
C      1  0.5915970000000  0.4929740000000  0.5165330000000 1.0
C      1  0.5655930000000  0.4358120000000  0.4807460000000 1.0
C      1  0.4015390000000  0.4897170000000  0.5288460000000 1.0
C      1  0.4952050000000  0.4393500000000  0.5539470000000 1.0
C      1  0.4969040000000  0.5250800000000  0.4082300000000 1.0
C      1  0.6003710000000  0.4714160000000  0.4867150000000 1.0
C      1  0.5503910000000  0.4799030000000  0.5848470000000 1.0
C      1  0.5822400000000  0.5380390000000  0.4585410000000 1.0
C      1  0.4502200000000  0.4756500000000  0.4162030000000 1.0
C      1  0.4303530000000  0.5417630000000  0.4364830000000 1.0
C      1  0.5882940000000  0.4822910000000  0.5436320000000 1.0
C      1  0.4663480000000  0.5729540000000  0.5752250000000 1.0
C      1  0.4219240000000  0.4216370000000  0.5417260000000 1.0
C      1  0.5274010000000  0.5866920000000  0.4675870000000 1.0
C      1  0.5294160000000  0.4830220000000  0.5525540000000 1.0
C      1  0.3876020000000  0.5045680000000  0.4877230000000 1.0
C      1  0.4922710000000  0.4263770000000  0.4240300000000 1.0
C      1  0.6018590000000  0.4968100000000  0.4738280000000 1.0
C      1  0.4447130000000  0.4398150000000  0.4519900000000 1.0
C      1  0.5331760000000  0.4165540000000  0.5517360000000 1.0
C      1  0.4054450000000  0.5525640000000  0.4783430000000 1.0
C      1  0.4481120000000  0.5708270000000  0.5272520000000 1.0
C      1  0.5003400000000  0.4547140000000  0.4184360000000 1.0
C      1  0.5293440000000  0.4616340000000  0.4129770000000 1.0
C      1  0.5473790000000  0.5566980000000  0.5769690000000 1.0
C      1  0.4455030000000  0.5188530000000  0.4253550000000 1.0
C      1  0.5152710000000  0.4539700000000  0.5906300000000 1.0
C      1  0.5357620000000  0.5131960000000  0.5386850000000 1.0
C      1  0.5103930000000  0.4058650000000  0.4372110000000 1.0
C      1  0.5541010000000  0.4479740000000  0.4289320000000 1.0
C      1  0.4809560000000  0.4776950000000  0.4155990000000 1.0
C      1  0.5040420000000  0.4907950000000  0.5983930000000 1.0
C      1  0.5540390000000  0.5030310000000  0.5126220000000 1.0
C      1  0.4403330000000  0.4696680000000  0.4442000000000 1.0
C      1  0.5545780000000  0.4718570000000  0.5105780000000 1.0
C      1  0.5011780000000  0.5754380000000  0.4742260000000 1.0
C      1  0.4660780000000  0.5118800000000  0.4454980000000 1.0
C      1  0.4580970000000  0.4861770000000  0.4620780000000 1.0
C      1  0.4938170000000  0.5334670000000  0.5692950000000 1.0
C      1  0.4930070000000  0.4891670000000  0.5070280000000 1.0
C      1  0.5981990000000  0.5519520000000  0.4772380000000 1.0
C      1  0.4136140000000  0.4779050000000  0.4569850000000 1.0
C      1  0.5564090000000  0.5389350000000  0.5447730000000 1.0
C      1  0.4489310000000  0.5657490000000  0.4436450000000 1.0
C      1  0.5461440000000  0.4368720000000  0.4565610000000 1.0
C      1  0.5266210000000  0.5523290000000  0.4306230000000 1.0
C      1  0.4375340000000  0.4487630000000  0.5011460000000 1.0
C      1  0.4701780000000  0.5375000000000  0.4622180000000 1.0
C      1  0.5076960000000  0.5282130000000  0.5407690000000 1.0
C      1  0.4244330000000  0.4752830000000  0.5408500000000 1.0
C      1  0.5418120000000  0.5365100000000  0.4102390000000 1.0
C      1  0.5627950000000  0.4920820000000  0.4417460000000 1.0
C      1  0.5579300000000  0.5058250000000  0.5765920000000 1.0
C      1  0.5066660000000  0.4642150000000  0.5108800000000 1.0
C      1  0.6231020000000  0.5135830000000  0.4817140000000 1.0
C      1  0.5734280000000  0.4625240000000  0.4895700000000 1.0
C      1  0.4590540000000  0.5090690000000  0.5962440000000 1.0
C      1  0.5369330000000  0.6008300000000  0.5162720000000 1.0
C      1  0.5314990000000  0.4886350000000  0.4021930000000 1.0
C      1  0.4614190000000  0.5871130000000  0.5488740000000 1.0
C      1  0.4071320000000  0.5190060000000  0.5178230000000 1.0
C      1  0.5582290000000  0.4559750000000  0.5717470000000 1.0
C      1  0.4993260000000  0.4054120000000  0.4943080000000 1.0
C      1  0.5476660000000  0.5146150000000  0.4845530000000 1.0
C      1  0.4416350000000  0.4240790000000  0.5621970000000 1.0
C      1  0.4666370000000  0.4621290000000  0.5860150000000 1.0
C      1  0.4303640000000  0.5205620000000  0.4947230000000 1.0
C      1  0.5852470000000  0.5307700000000  0.5436980000000 1.0
C      1  0.4067480000000  0.5603930000000  0.5044170000000 1.0
C      1  0.5700010000000  0.4589190000000  0.5450460000000 1.0
C      1  0.5515290000000  0.5862690000000  0.5357860000000 1.0
C      1  0.5075910000000  0.5757260000000  0.5525200000000 1.0
END
