TITL C-950530-3293-403 -1.2241157514744e-06 125000 -1194.36522697327 0 0 193 (C1) n - 1
REM
REM in /home/bkarasulu/work/CARBON/AIRSS/Generating-Clusters/EDIP-Nigel-Params/with-SteepDescent/Only-C1/SD-CG/HFTN-CG
REM
REM
REM
REM
REM
REM ./C.cell (11c1c37f851c82e70ff6c80c92926a4b)
REM
REM compiler GCC version 9.2.1 20190827 (Red Hat 9.2.1-1)
REM options -cpp -mtune=generic -march=x86-64 -g -O0 -fpre-include=/usr/include/finclude/math-vector-fortran.h
REM seed -2112138983 -281199300 975064534 -685738174 1913185238 260389375 -698565467 1112468606 -97464988 1545356362 1435991132 -1637124434 -1613676054 -76512373 52776746 1537442123 1611957931 656077769 985645824 1339313539 -592410068 -609452102 1139556460 932580992 -150033740 697638294 -1747941473 964093553 222302483 99989596 -1295418748 -199484465 -1731862540
REM
CELL 1.54180   50.00000   50.00000   50.00000   90.00000   90.00000   90.00000
LATT -1
SFAC C  
C      1  0.4153480000000  0.4480190000000  0.5407470000000 1.0
C      1  0.3842620000000  0.4951420000000  0.5255050000000 1.0
C      1  0.5252860000000  0.5084570000000  0.6127380000000 1.0
C      1  0.5198300000000  0.4991800000000  0.4851430000000 1.0
C      1  0.5086500000000  0.5814600000000  0.4288570000000 1.0
C      1  0.4811550000000  0.3894370000000  0.4456240000000 1.0
C      1  0.4340780000000  0.4685260000000  0.5306200000000 1.0
C      1  0.4719690000000  0.5115810000000  0.3922320000000 1.0
C      1  0.6178960000000  0.5003130000000  0.5346040000000 1.0
C      1  0.4715710000000  0.4217530000000  0.5472340000000 1.0
C      1  0.5180720000000  0.4118790000000  0.4270530000000 1.0
C      1  0.4652020000000  0.4405190000000  0.5702070000000 1.0
C      1  0.4659000000000  0.4472280000000  0.4302200000000 1.0
C      1  0.5307630000000  0.5920310000000  0.4469260000000 1.0
C      1  0.4902470000000  0.5759320000000  0.5530660000000 1.0
C      1  0.4330410000000  0.4701260000000  0.5004260000000 1.0
C      1  0.4242880000000  0.4332420000000  0.4619510000000 1.0
C      1  0.4462950000000  0.5048080000000  0.5376150000000 1.0
C      1  0.4906760000000  0.5181070000000  0.5531600000000 1.0
C      1  0.4259420000000  0.5331600000000  0.4191180000000 1.0
C      1  0.5774350000000  0.5750780000000  0.5469130000000 1.0
C      1  0.3996720000000  0.5205990000000  0.5213900000000 1.0
C      1  0.3956850000000  0.4800830000000  0.5483550000000 1.0
C      1  0.5130300000000  0.6062230000000  0.5302720000000 1.0
C      1  0.4423230000000  0.4813560000000  0.5877990000000 1.0
C      1  0.5031900000000  0.5155790000000  0.4012090000000 1.0
C      1  0.5420730000000  0.5463350000000  0.4812650000000 1.0
C      1  0.4945410000000  0.3805590000000  0.5367950000000 1.0
C      1  0.5420440000000  0.4790920000000  0.4869190000000 1.0
C      1  0.6160050000000  0.4979390000000  0.5054980000000 1.0
C      1  0.5366200000000  0.4475320000000  0.5918800000000 1.0
C      1  0.5037590000000  0.5010600000000  0.4270440000000 1.0
C      1  0.6009010000000  0.5137110000000  0.4669830000000 1.0
C      1  0.5899420000000  0.5613570000000  0.4751380000000 1.0
C      1  0.5179050000000  0.5601750000000  0.4655520000000 1.0
C      1  0.4764340000000  0.4241660000000  0.4763260000000 1.0
C      1  0.5367210000000  0.4738800000000  0.4154250000000 1.0
C      1  0.5698950000000  0.4673720000000  0.5712240000000 1.0
C      1  0.5537150000000  0.4794970000000  0.4596200000000 1.0
C      1  0.5820750000000  0.4296390000000  0.5033980000000 1.0
C      1  0.4512460000000  0.5542720000000  0.5378520000000 1.0
C      1  0.4603060000000  0.5758750000000  0.4288000000000 1.0
C      1  0.4179810000000  0.5855940000000  0.5023440000000 1.0
C      1  0.4592250000000  0.4650300000000  0.4556990000000 1.0
C      1  0.4304770000000  0.5441450000000  0.5831840000000 1.0
C      1  0.4480200000000  0.4090760000000  0.5347880000000 1.0
C      1  0.4823870000000  0.5323680000000  0.4682960000000 1.0
C      1  0.5331680000000  0.4641940000000  0.4431240000000 1.0
C      1  0.5522010000000  0.5442800000000  0.5273960000000 1.0
C      1  0.3844760000000  0.5440130000000  0.5285410000000 1.0
C      1  0.4740190000000  0.5047100000000  0.4645800000000 1.0
C      1  0.4587660000000  0.4503440000000  0.4840130000000 1.0
C      1  0.4079150000000  0.5842480000000  0.5284170000000 1.0
C      1  0.5924110000000  0.5382610000000  0.4547910000000 1.0
C      1  0.4640400000000  0.5800310000000  0.5413620000000 1.0
C      1  0.4725610000000  0.5539330000000  0.4854270000000 1.0
C      1  0.4204700000000  0.5185250000000  0.5438610000000 1.0
C      1  0.4502260000000  0.5980880000000  0.4691760000000 1.0
C      1  0.4933880000000  0.5517030000000  0.3899600000000 1.0
C      1  0.4422400000000  0.6020660000000  0.4982320000000 1.0
C      1  0.4641640000000  0.5084450000000  0.5601910000000 1.0
C      1  0.4683500000000  0.5409390000000  0.3983090000000 1.0
C      1  0.4028620000000  0.4667560000000  0.4318160000000 1.0
C      1  0.4782250000000  0.6064590000000  0.4617390000000 1.0
C      1  0.5126150000000  0.4434430000000  0.5747560000000 1.0
C      1  0.5399980000000  0.4507610000000  0.5356640000000 1.0
C      1  0.5593040000000  0.4730030000000  0.5430480000000 1.0
C      1  0.4042850000000  0.4670180000000  0.4877290000000 1.0
C      1  0.5387360000000  0.5942110000000  0.5236270000000 1.0
C      1  0.5952780000000  0.5184230000000  0.5431320000000 1.0
C      1  0.4619970000000  0.4055050000000  0.4579990000000 1.0
C      1  0.4982420000000  0.5700930000000  0.4857750000000 1.0
C      1  0.5264290000000  0.4223560000000  0.5349160000000 1.0
C      1  0.4813140000000  0.3838370000000  0.5121820000000 1.0
C      1  0.4016240000000  0.5613400000000  0.5427710000000 1.0
C      1  0.6098980000000  0.5224610000000  0.4926420000000 1.0
C      1  0.4651280000000  0.5967680000000  0.5167510000000 1.0
C      1  0.5489630000000  0.5076250000000  0.4492200000000 1.0
C      1  0.4095730000000  0.5008400000000  0.5653760000000 1.0
C      1  0.5735980000000  0.4317780000000  0.5571820000000 1.0
C      1  0.5199890000000  0.5135180000000  0.5124530000000 1.0
C      1  0.5019710000000  0.4372590000000  0.4198640000000 1.0
C      1  0.5022210000000  0.5405590000000  0.4485010000000 1.0
C      1  0.4891820000000  0.4701180000000  0.6035070000000 1.0
C      1  0.4992890000000  0.4364530000000  0.4584280000000 1.0
C      1  0.4465830000000  0.5320120000000  0.4422910000000 1.0
C      1  0.5043760000000  0.6002660000000  0.5566460000000 1.0
C      1  0.5548140000000  0.5762240000000  0.4469220000000 1.0
C      1  0.3887740000000  0.4937720000000  0.4941570000000 1.0
C      1  0.5745040000000  0.5535480000000  0.5672100000000 1.0
C      1  0.5656720000000  0.4707440000000  0.4112570000000 1.0
C      1  0.4914390000000  0.4010230000000  0.5561170000000 1.0
C      1  0.4589130000000  0.4644870000000  0.4055560000000 1.0
C      1  0.5972370000000  0.5360300000000  0.5683700000000 1.0
C      1  0.5167730000000  0.4679690000000  0.5314660000000 1.0
C      1  0.5963850000000  0.5559680000000  0.5030680000000 1.0
C      1  0.4233040000000  0.5152930000000  0.5912960000000 1.0
C      1  0.5181270000000  0.5137830000000  0.4488090000000 1.0
C      1  0.4160910000000  0.5555400000000  0.4435980000000 1.0
C      1  0.5324110000000  0.5446860000000  0.5567630000000 1.0
C      1  0.5185710000000  0.4555250000000  0.4015030000000 1.0
C      1  0.4539480000000  0.5551870000000  0.5944770000000 1.0
C      1  0.4772260000000  0.4676750000000  0.5035630000000 1.0
C      1  0.5467130000000  0.4029010000000  0.5238840000000 1.0
C      1  0.5065320000000  0.4695860000000  0.5579100000000 1.0
C      1  0.5056540000000  0.5530930000000  0.5998390000000 1.0
C      1  0.5274210000000  0.6045170000000  0.4749560000000 1.0
C      1  0.4988710000000  0.5994410000000  0.4829800000000 1.0
C      1  0.4758150000000  0.5147380000000  0.6024170000000 1.0
C      1  0.4455240000000  0.4972220000000  0.4940090000000 1.0
C      1  0.4039470000000  0.4205980000000  0.4814240000000 1.0
C      1  0.5004500000000  0.5482630000000  0.5623770000000 1.0
C      1  0.4254880000000  0.5597790000000  0.4888890000000 1.0
C      1  0.5723220000000  0.5012180000000  0.4982480000000 1.0
C      1  0.4994420000000  0.4971020000000  0.5986050000000 1.0
C      1  0.5649080000000  0.5079880000000  0.4182200000000 1.0
C      1  0.4914040000000  0.6092430000000  0.5101440000000 1.0
C      1  0.5370530000000  0.5125230000000  0.5648960000000 1.0
C      1  0.4369930000000  0.4915200000000  0.4503970000000 1.0
C      1  0.5464840000000  0.5198060000000  0.3962370000000 1.0
C      1  0.4485460000000  0.5028480000000  0.6059400000000 1.0
C      1  0.4982380000000  0.4661950000000  0.4530570000000 1.0
C      1  0.5387700000000  0.5472200000000  0.4066150000000 1.0
C      1  0.5086160000000  0.4982420000000  0.5690650000000 1.0
C      1  0.5308690000000  0.5378590000000  0.6009370000000 1.0
C      1  0.5310660000000  0.5412240000000  0.5081130000000 1.0
C      1  0.4785010000000  0.5430120000000  0.6005880000000 1.0
C      1  0.5265630000000  0.4528990000000  0.4909400000000 1.0
C      1  0.5710740000000  0.4194850000000  0.5292890000000 1.0
C      1  0.4489460000000  0.5657640000000  0.4702620000000 1.0
C      1  0.5485620000000  0.5945170000000  0.4946630000000 1.0
C      1  0.6020020000000  0.4497470000000  0.5032160000000 1.0
C      1  0.5716220000000  0.4457900000000  0.4248480000000 1.0
C      1  0.5576020000000  0.5206070000000  0.4751770000000 1.0
C      1  0.4559310000000  0.4940080000000  0.4119540000000 1.0
C      1  0.5159950000000  0.4160800000000  0.5613770000000 1.0
C      1  0.5433220000000  0.3923290000000  0.4958230000000 1.0
C      1  0.4934580000000  0.4073920000000  0.4979900000000 1.0
C      1  0.5599330000000  0.5076470000000  0.5857840000000 1.0
C      1  0.5523920000000  0.4368850000000  0.4469570000000 1.0
C      1  0.4158060000000  0.4911830000000  0.4301680000000 1.0
C      1  0.4613030000000  0.5142460000000  0.5137910000000 1.0
C      1  0.5890820000000  0.5077720000000  0.5784360000000 1.0
C      1  0.5613190000000  0.5710620000000  0.4757540000000 1.0
C      1  0.4996300000000  0.4261480000000  0.5205340000000 1.0
C      1  0.4257880000000  0.4249580000000  0.5260350000000 1.0
C      1  0.5776570000000  0.5350980000000  0.4295540000000 1.0
C      1  0.4460450000000  0.4248590000000  0.4422110000000 1.0
C      1  0.5759450000000  0.4172500000000  0.4790320000000 1.0
C      1  0.4762830000000  0.4999350000000  0.4348730000000 1.0
C      1  0.5038730000000  0.4704320000000  0.3821170000000 1.0
C      1  0.4929580000000  0.4846120000000  0.4783570000000 1.0
C      1  0.4873510000000  0.4453320000000  0.5898100000000 1.0
C      1  0.5259290000000  0.4309290000000  0.4714010000000 1.0
C      1  0.4033520000000  0.5176330000000  0.4777530000000 1.0
C      1  0.5830660000000  0.4753010000000  0.5249250000000 1.0
C      1  0.5123020000000  0.5583960000000  0.4097420000000 1.0
C      1  0.6071800000000  0.4756470000000  0.5445840000000 1.0
C      1  0.5033890000000  0.4536260000000  0.5101370000000 1.0
C      1  0.5240380000000  0.5028570000000  0.3843480000000 1.0
C      1  0.5677700000000  0.5171870000000  0.5265760000000 1.0
C      1  0.4542250000000  0.5431560000000  0.5099040000000 1.0
C      1  0.5525880000000  0.5896840000000  0.5502250000000 1.0
C      1  0.5538960000000  0.5583370000000  0.5909250000000 1.0
C      1  0.6062730000000  0.4749320000000  0.4886950000000 1.0
C      1  0.4770270000000  0.4636860000000  0.3843380000000 1.0
C      1  0.5667990000000  0.3917990000000  0.4803980000000 1.0
C      1  0.4321330000000  0.5122140000000  0.4723130000000 1.0
C      1  0.3904510000000  0.4423100000000  0.4971760000000 1.0
C      1  0.5974860000000  0.4787250000000  0.5722660000000 1.0
C      1  0.5087040000000  0.3938490000000  0.4492330000000 1.0
C      1  0.5574550000000  0.5549730000000  0.4270300000000 1.0
C      1  0.4702020000000  0.5472730000000  0.4286830000000 1.0
C      1  0.4323020000000  0.5823020000000  0.4389660000000 1.0
C      1  0.4095180000000  0.4580990000000  0.4584240000000 1.0
C      1  0.4042060000000  0.5471750000000  0.4718920000000 1.0
C      1  0.5466340000000  0.4166570000000  0.4267240000000 1.0
C      1  0.5917290000000  0.4852830000000  0.4649480000000 1.0
C      1  0.5390550000000  0.5785280000000  0.5740530000000 1.0
C      1  0.4919230000000  0.5139970000000  0.5236130000000 1.0
C      1  0.4089150000000  0.4102670000000  0.5083070000000 1.0
C      1  0.4625970000000  0.4640970000000  0.5400360000000 1.0
C      1  0.5360130000000  0.4709830000000  0.6088490000000 1.0
C      1  0.4260320000000  0.5467230000000  0.5532630000000 1.0
C      1  0.5188850000000  0.4019330000000  0.4805620000000 1.0
C      1  0.4825570000000  0.5931830000000  0.4354420000000 1.0
C      1  0.5611550000000  0.4324210000000  0.5838760000000 1.0
C      1  0.4655310000000  0.4803770000000  0.5692000000000 1.0
C      1  0.4542950000000  0.3879620000000  0.5175820000000 1.0
C      1  0.4200530000000  0.5074340000000  0.4079920000000 1.0
C      1  0.5574310000000  0.4885410000000  0.6071410000000 1.0
C      1  0.5729260000000  0.5662230000000  0.5186110000000 1.0
C      1  0.5455640000000  0.5005370000000  0.5386340000000 1.0
END
