TITL C-951341-1326-585 1.9143461053339e-06 125000 -397.762470289456 0 0 65 (C1) n - 1
REM
REM in /home/bkarasulu/work/CARBON/AIRSS/Generating-Clusters/EDIP-Nigel-Params/with-SteepDescent/Only-C1/SD-CG/HFTN-CG
REM
REM
REM
REM
REM
REM ./C.cell (11c1c37f851c82e70ff6c80c92926a4b)
REM
REM compiler GCC version 9.2.1 20190827 (Red Hat 9.2.1-1)
REM options -cpp -mtune=generic -march=x86-64 -g -O0 -fpre-include=/usr/include/finclude/math-vector-fortran.h
REM seed 947168793 -891990882 -1372795651 -1388747168 1499871877 -1683403787 -705739916 474650210 -751952102 -1807257391 -412152096 499267125 590819909 351386978 1049906773 575078978 -1008446640 1807841242 918551103 544181828 1166855588 -294049719 1893186445 -327235405 -855941578 1759781962 36453760 -550002473 677094924 -1782563308 2037998310 -26984820 -1142621136
REM
CELL 1.54180   50.00000   50.00000   50.00000   90.00000   90.00000   90.00000
LATT -1
SFAC C  
C      1  0.5154620000000  0.4795170000000  0.4827890000000 1.0
C      1  0.5208760000000  0.5374020000000  0.4410380000000 1.0
C      1  0.4659020000000  0.5071970000000  0.5615520000000 1.0
C      1  0.5312360000000  0.5649250000000  0.4815460000000 1.0
C      1  0.5401690000000  0.5592490000000  0.5287890000000 1.0
C      1  0.4866350000000  0.5667680000000  0.4638540000000 1.0
C      1  0.4254180000000  0.4637620000000  0.5049190000000 1.0
C      1  0.4451890000000  0.4690440000000  0.4484280000000 1.0
C      1  0.4214240000000  0.4917480000000  0.5060760000000 1.0
C      1  0.4984070000000  0.5435130000000  0.5540240000000 1.0
C      1  0.4689570000000  0.4893760000000  0.5057770000000 1.0
C      1  0.4913270000000  0.5453720000000  0.4426940000000 1.0
C      1  0.5602290000000  0.4899020000000  0.5399560000000 1.0
C      1  0.4527110000000  0.4622810000000  0.5156260000000 1.0
C      1  0.5225540000000  0.4626670000000  0.4424570000000 1.0
C      1  0.5680560000000  0.5044790000000  0.4641140000000 1.0
C      1  0.5477330000000  0.5200400000000  0.4757960000000 1.0
C      1  0.5318480000000  0.4864640000000  0.5065040000000 1.0
C      1  0.5159650000000  0.4889950000000  0.5603150000000 1.0
C      1  0.4474650000000  0.5562080000000  0.4943370000000 1.0
C      1  0.4978050000000  0.4213360000000  0.5084500000000 1.0
C      1  0.4334670000000  0.5333610000000  0.4836960000000 1.0
C      1  0.4865830000000  0.4865420000000  0.5707290000000 1.0
C      1  0.4719760000000  0.5203530000000  0.4407950000000 1.0
C      1  0.5411830000000  0.5454210000000  0.4619430000000 1.0
C      1  0.5431040000000  0.4672610000000  0.5474370000000 1.0
C      1  0.4262080000000  0.5026070000000  0.5315030000000 1.0
C      1  0.5570820000000  0.5417670000000  0.5426230000000 1.0
C      1  0.5095100000000  0.4894760000000  0.5285310000000 1.0
C      1  0.5258160000000  0.5106280000000  0.4331670000000 1.0
C      1  0.5112320000000  0.5586910000000  0.5334780000000 1.0
C      1  0.4639030000000  0.4499330000000  0.4494490000000 1.0
C      1  0.5190000000000  0.5082850000000  0.4741740000000 1.0
C      1  0.5027620000000  0.5569010000000  0.4868510000000 1.0
C      1  0.4927750000000  0.4617370000000  0.5307830000000 1.0
C      1  0.5476220000000  0.5689440000000  0.5039230000000 1.0
C      1  0.5302010000000  0.5127110000000  0.5700970000000 1.0
C      1  0.5656510000000  0.4679490000000  0.4931690000000 1.0
C      1  0.5313780000000  0.4328310000000  0.4792590000000 1.0
C      1  0.4919710000000  0.5660090000000  0.5129310000000 1.0
C      1  0.4883230000000  0.5100510000000  0.5173050000000 1.0
C      1  0.4781050000000  0.4615670000000  0.5573270000000 1.0
C      1  0.5082080000000  0.4370100000000  0.5289860000000 1.0
C      1  0.4825460000000  0.4363020000000  0.4651020000000 1.0
C      1  0.4652230000000  0.5544560000000  0.5180590000000 1.0
C      1  0.5696590000000  0.4897920000000  0.5127980000000 1.0
C      1  0.5353290000000  0.4474100000000  0.5268270000000 1.0
C      1  0.4786360000000  0.4387200000000  0.4954470000000 1.0
C      1  0.4965570000000  0.5256120000000  0.4877870000000 1.0
C      1  0.5143310000000  0.5348460000000  0.5751650000000 1.0
C      1  0.4339740000000  0.5050670000000  0.4838330000000 1.0
C      1  0.5092320000000  0.4883880000000  0.4360740000000 1.0
C      1  0.5678600000000  0.4765940000000  0.4647010000000 1.0
C      1  0.4821390000000  0.4949360000000  0.4339810000000 1.0
C      1  0.4696180000000  0.5270550000000  0.4701190000000 1.0
C      1  0.5465860000000  0.4457020000000  0.4996860000000 1.0
C      1  0.4763540000000  0.5277890000000  0.5406710000000 1.0
C      1  0.4343040000000  0.4907230000000  0.4599200000000 1.0
C      1  0.4600920000000  0.5678460000000  0.4721080000000 1.0
C      1  0.5529390000000  0.5158160000000  0.5525890000000 1.0
C      1  0.5504690000000  0.4645930000000  0.4462050000000 1.0
C      1  0.4416950000000  0.4920360000000  0.5527130000000 1.0
C      1  0.5117780000000  0.4415250000000  0.4602740000000 1.0
C      1  0.4880490000000  0.4700290000000  0.4924980000000 1.0
C      1  0.4512020000000  0.4644840000000  0.5462450000000 1.0
END
