TITL C-950523-3027-570 -4.62552271303193e-06 125000 -989.080729511396 0 0 158 (C1) n - 1
REM
REM in /home/bkarasulu/work/CARBON/AIRSS/Generating-Clusters/EDIP-Nigel-Params/with-SteepDescent/Only-C1/SD-CG/HFTN-CG
REM
REM
REM
REM
REM
REM ./C.cell (11c1c37f851c82e70ff6c80c92926a4b)
REM
REM compiler GCC version 9.2.1 20190827 (Red Hat 9.2.1-1)
REM options -cpp -mtune=generic -march=x86-64 -g -O0 -fpre-include=/usr/include/finclude/math-vector-fortran.h
REM seed -476656976 2035866325 1770460430 -1108866842 -846880487 264628151 1665513006 -1686455127 1377768114 1522234852 -1090671494 1125730558 545365530 1270938644 1361667106 -1654062204 1920746837 816123882 945431918 -687669428 -535306321 1627391291 -1723868817 -2097023623 432377587 1007406627 645715554 -393031293 -244807696 -2122898377 -340042566 1555570946 -1739535826
REM
CELL 1.54180   50.00000   50.00000   50.00000   90.00000   90.00000   90.00000
LATT -1
SFAC C  
C      1  0.5389980000000  0.5803230000000  0.5058780000000 1.0
C      1  0.5664220000000  0.5793590000000  0.5446470000000 1.0
C      1  0.5848520000000  0.5169920000000  0.5479950000000 1.0
C      1  0.4931680000000  0.6010720000000  0.4681520000000 1.0
C      1  0.5275100000000  0.5339840000000  0.6051130000000 1.0
C      1  0.5511080000000  0.5703100000000  0.4572820000000 1.0
C      1  0.5428110000000  0.5933730000000  0.5523490000000 1.0
C      1  0.5206460000000  0.5189390000000  0.4432210000000 1.0
C      1  0.4025940000000  0.4720610000000  0.4747150000000 1.0
C      1  0.4377070000000  0.5455070000000  0.4265420000000 1.0
C      1  0.4343660000000  0.5190170000000  0.5742880000000 1.0
C      1  0.5579610000000  0.4621550000000  0.4735910000000 1.0
C      1  0.5026310000000  0.3869900000000  0.4757520000000 1.0
C      1  0.4905390000000  0.4887380000000  0.6078170000000 1.0
C      1  0.5692470000000  0.5266790000000  0.5707790000000 1.0
C      1  0.6031590000000  0.5196510000000  0.4783480000000 1.0
C      1  0.4349520000000  0.4889830000000  0.5845500000000 1.0
C      1  0.5443550000000  0.4443140000000  0.4128670000000 1.0
C      1  0.5382410000000  0.5433350000000  0.5406100000000 1.0
C      1  0.4599190000000  0.5234930000000  0.5549800000000 1.0
C      1  0.5547800000000  0.4737550000000  0.5753800000000 1.0
C      1  0.5953320000000  0.4982000000000  0.4591350000000 1.0
C      1  0.4301600000000  0.5168640000000  0.4243970000000 1.0
C      1  0.5253020000000  0.3888300000000  0.4553670000000 1.0
C      1  0.4067370000000  0.5313660000000  0.5282740000000 1.0
C      1  0.5390410000000  0.5794450000000  0.4339610000000 1.0
C      1  0.4594840000000  0.5892420000000  0.4727630000000 1.0
C      1  0.5529350000000  0.5521380000000  0.5660350000000 1.0
C      1  0.5284200000000  0.6094260000000  0.5058070000000 1.0
C      1  0.5875940000000  0.5443740000000  0.4792630000000 1.0
C      1  0.4369490000000  0.4809210000000  0.4894300000000 1.0
C      1  0.5438450000000  0.4970180000000  0.4020710000000 1.0
C      1  0.4824810000000  0.3994790000000  0.4603150000000 1.0
C      1  0.4805020000000  0.5678510000000  0.5092630000000 1.0
C      1  0.5820990000000  0.5077630000000  0.4345310000000 1.0
C      1  0.5188970000000  0.5662100000000  0.4201870000000 1.0
C      1  0.4356840000000  0.5066970000000  0.5051860000000 1.0
C      1  0.4928530000000  0.4180750000000  0.5476160000000 1.0
C      1  0.4589610000000  0.4729580000000  0.5931100000000 1.0
C      1  0.5646430000000  0.4896490000000  0.4193780000000 1.0
C      1  0.5143450000000  0.5252560000000  0.5495300000000 1.0
C      1  0.4519310000000  0.5496090000000  0.5885280000000 1.0
C      1  0.5175090000000  0.4526820000000  0.4050480000000 1.0
C      1  0.5152010000000  0.4969660000000  0.4034630000000 1.0
C      1  0.5929720000000  0.4648350000000  0.4982810000000 1.0
C      1  0.5527930000000  0.5032990000000  0.5807280000000 1.0
C      1  0.5309730000000  0.5643240000000  0.4790200000000 1.0
C      1  0.4820280000000  0.4268340000000  0.5030100000000 1.0
C      1  0.4811050000000  0.5436910000000  0.5920230000000 1.0
C      1  0.4513950000000  0.4279980000000  0.5063450000000 1.0
C      1  0.4352190000000  0.5342810000000  0.4910260000000 1.0
C      1  0.5009180000000  0.4360350000000  0.3888190000000 1.0
C      1  0.4650970000000  0.4298500000000  0.4387670000000 1.0
C      1  0.4125040000000  0.4575090000000  0.5174430000000 1.0
C      1  0.4693040000000  0.5124310000000  0.4627690000000 1.0
C      1  0.5961450000000  0.4687600000000  0.4676870000000 1.0
C      1  0.4515800000000  0.4948320000000  0.4225830000000 1.0
C      1  0.4877090000000  0.4267880000000  0.4549390000000 1.0
C      1  0.5363020000000  0.5074230000000  0.6045500000000 1.0
C      1  0.5059170000000  0.5257890000000  0.3997070000000 1.0
C      1  0.3883220000000  0.5212310000000  0.4545540000000 1.0
C      1  0.5455940000000  0.4175730000000  0.4240070000000 1.0
C      1  0.5206020000000  0.4214160000000  0.5585270000000 1.0
C      1  0.5004890000000  0.5266620000000  0.5239380000000 1.0
C      1  0.5004590000000  0.5635440000000  0.5799900000000 1.0
C      1  0.4957910000000  0.4388490000000  0.5260130000000 1.0
C      1  0.4639320000000  0.5042200000000  0.5151660000000 1.0
C      1  0.5640210000000  0.4617570000000  0.4253740000000 1.0
C      1  0.4823830000000  0.5336490000000  0.4179580000000 1.0
C      1  0.5529070000000  0.5309140000000  0.5109650000000 1.0
C      1  0.4893170000000  0.3921190000000  0.5314260000000 1.0
C      1  0.5861900000000  0.4874520000000  0.5418550000000 1.0
C      1  0.5048160000000  0.4950200000000  0.4331640000000 1.0
C      1  0.4857590000000  0.4709170000000  0.4764290000000 1.0
C      1  0.4188730000000  0.4734750000000  0.5647000000000 1.0
C      1  0.4442960000000  0.4565670000000  0.5157380000000 1.0
C      1  0.5263230000000  0.5372300000000  0.4187100000000 1.0
C      1  0.5376140000000  0.4264010000000  0.5349240000000 1.0
C      1  0.5471400000000  0.4905170000000  0.4801730000000 1.0
C      1  0.5082370000000  0.4784490000000  0.5608260000000 1.0
C      1  0.4870660000000  0.5842940000000  0.5624920000000 1.0
C      1  0.5652780000000  0.4686290000000  0.5494150000000 1.0
C      1  0.5387050000000  0.5153000000000  0.4661100000000 1.0
C      1  0.4911780000000  0.4669610000000  0.5321070000000 1.0
C      1  0.4830620000000  0.5972520000000  0.5161460000000 1.0
C      1  0.4461420000000  0.5842330000000  0.4463030000000 1.0
C      1  0.5573700000000  0.4998500000000  0.5070550000000 1.0
C      1  0.5266800000000  0.4651690000000  0.5823300000000 1.0
C      1  0.5334750000000  0.4912510000000  0.5225620000000 1.0
C      1  0.5874770000000  0.4899070000000  0.5125820000000 1.0
C      1  0.4594290000000  0.5822260000000  0.5528180000000 1.0
C      1  0.4419530000000  0.4426370000000  0.4486660000000 1.0
C      1  0.4860510000000  0.5226530000000  0.5703060000000 1.0
C      1  0.4425760000000  0.4732320000000  0.4443470000000 1.0
C      1  0.4669350000000  0.4559560000000  0.5688880000000 1.0
C      1  0.4462190000000  0.5588000000000  0.5616760000000 1.0
C      1  0.5975600000000  0.5333830000000  0.5259250000000 1.0
C      1  0.5258120000000  0.6107950000000  0.5366800000000 1.0
C      1  0.5664160000000  0.4146180000000  0.4444370000000 1.0
C      1  0.4436270000000  0.4080210000000  0.5276230000000 1.0
C      1  0.4879190000000  0.4936950000000  0.5784510000000 1.0
C      1  0.5520090000000  0.3970710000000  0.4653830000000 1.0
C      1  0.4586490000000  0.4840150000000  0.4683050000000 1.0
C      1  0.5738810000000  0.5517170000000  0.4547740000000 1.0
C      1  0.4412030000000  0.4232250000000  0.5532040000000 1.0
C      1  0.5040800000000  0.3993100000000  0.5047130000000 1.0
C      1  0.4148870000000  0.4808960000000  0.4509100000000 1.0
C      1  0.5758260000000  0.4200790000000  0.4950410000000 1.0
C      1  0.4031400000000  0.4923440000000  0.5489150000000 1.0
C      1  0.4222990000000  0.4463340000000  0.5527500000000 1.0
C      1  0.5761520000000  0.4436730000000  0.5089200000000 1.0
C      1  0.4318410000000  0.4333230000000  0.4756310000000 1.0
C      1  0.4889050000000  0.4862550000000  0.5062920000000 1.0
C      1  0.4231450000000  0.5695740000000  0.4987530000000 1.0
C      1  0.4097650000000  0.5202460000000  0.5546340000000 1.0
C      1  0.4980480000000  0.6013230000000  0.5413970000000 1.0
C      1  0.6070470000000  0.5118440000000  0.5065480000000 1.0
C      1  0.4685710000000  0.4265050000000  0.5662940000000 1.0
C      1  0.3948440000000  0.5217100000000  0.5043950000000 1.0
C      1  0.4995530000000  0.6121700000000  0.4948060000000 1.0
C      1  0.4105020000000  0.5591650000000  0.4737650000000 1.0
C      1  0.5778950000000  0.5480300000000  0.5075730000000 1.0
C      1  0.5206190000000  0.4069070000000  0.4330510000000 1.0
C      1  0.5122360000000  0.5057950000000  0.5067450000000 1.0
C      1  0.4249490000000  0.5639490000000  0.4462670000000 1.0
C      1  0.5761220000000  0.4486200000000  0.4488420000000 1.0
C      1  0.5800710000000  0.5359450000000  0.4319280000000 1.0
C      1  0.5363530000000  0.4418190000000  0.4740200000000 1.0
C      1  0.5184920000000  0.4420500000000  0.4481200000000 1.0
C      1  0.5679620000000  0.5756270000000  0.5156200000000 1.0
C      1  0.4641930000000  0.5726570000000  0.4261400000000 1.0
C      1  0.4916610000000  0.5606610000000  0.4340050000000 1.0
C      1  0.4094320000000  0.5073030000000  0.4426580000000 1.0
C      1  0.4994000000000  0.5704580000000  0.4650340000000 1.0
C      1  0.5191430000000  0.4824320000000  0.6075560000000 1.0
C      1  0.5280680000000  0.4986300000000  0.5508140000000 1.0
C      1  0.5035480000000  0.5533800000000  0.5141390000000 1.0
C      1  0.4842340000000  0.4420380000000  0.4791180000000 1.0
C      1  0.5481100000000  0.4168910000000  0.4871400000000 1.0
C      1  0.4765250000000  0.5087500000000  0.4336280000000 1.0
C      1  0.4086360000000  0.4474580000000  0.4881070000000 1.0
C      1  0.5067900000000  0.4608030000000  0.3796000000000 1.0
C      1  0.4741460000000  0.5630040000000  0.4812660000000 1.0
C      1  0.3932810000000  0.5351340000000  0.4782500000000 1.0
C      1  0.5289380000000  0.5551130000000  0.5865110000000 1.0
C      1  0.5055920000000  0.4711400000000  0.4525730000000 1.0
C      1  0.4049630000000  0.4880730000000  0.5197230000000 1.0
C      1  0.4585070000000  0.4973280000000  0.5417090000000 1.0
C      1  0.5239620000000  0.5676910000000  0.5297160000000 1.0
C      1  0.5622260000000  0.4435250000000  0.5345910000000 1.0
C      1  0.5319320000000  0.4094530000000  0.5110910000000 1.0
C      1  0.5239180000000  0.4366540000000  0.5816230000000 1.0
C      1  0.4592130000000  0.5371620000000  0.4747890000000 1.0
C      1  0.4624790000000  0.4677730000000  0.5411030000000 1.0
C      1  0.5332270000000  0.5345200000000  0.4876900000000 1.0
C      1  0.4620990000000  0.3869710000000  0.5291780000000 1.0
C      1  0.4537630000000  0.6010950000000  0.5215260000000 1.0
C      1  0.4401360000000  0.5928360000000  0.4965610000000 1.0
END
