TITL C-950532-2784-402 -4.58438048695732e-06 125000 -846.076623978582 0 0 135 (C1) n - 1
REM
REM in /home/bkarasulu/work/CARBON/AIRSS/Generating-Clusters/EDIP-Nigel-Params/with-SteepDescent/Only-C1/SD-CG/HFTN-CG
REM
REM
REM
REM
REM
REM ./C.cell (11c1c37f851c82e70ff6c80c92926a4b)
REM
REM compiler GCC version 9.2.1 20190827 (Red Hat 9.2.1-1)
REM options -cpp -mtune=generic -march=x86-64 -g -O0 -fpre-include=/usr/include/finclude/math-vector-fortran.h
REM seed 1738998803 862073614 1054602490 -1093421551 998754912 -1018993904 -1798513205 -146497137 -735354835 -46387636 -654959419 252396064 -542124849 918102535 -60035580 477018211 95176050 -871476714 -1369640266 -1273430264 1029683545 -815682218 2014870049 -744007000 1629849650 33674265 -888901028 1427728542 -44808061 1686251817 -623040137 1723725750 1646339746
REM
CELL 1.54180   50.00000   50.00000   50.00000   90.00000   90.00000   90.00000
LATT -1
SFAC C  
C      1  0.5803900000000  0.5351850000000  0.5345720000000 1.0
C      1  0.4483020000000  0.4921850000000  0.5197380000000 1.0
C      1  0.4309940000000  0.5445420000000  0.4585570000000 1.0
C      1  0.4764850000000  0.5299750000000  0.5954230000000 1.0
C      1  0.4308480000000  0.4901380000000  0.4435080000000 1.0
C      1  0.4859820000000  0.5094450000000  0.5488320000000 1.0
C      1  0.4037880000000  0.5118850000000  0.5215800000000 1.0
C      1  0.5257730000000  0.5362140000000  0.4165330000000 1.0
C      1  0.5306520000000  0.4015830000000  0.4965600000000 1.0
C      1  0.5148000000000  0.4454700000000  0.5595150000000 1.0
C      1  0.4825020000000  0.5172080000000  0.4483380000000 1.0
C      1  0.4996550000000  0.5470010000000  0.4293020000000 1.0
C      1  0.5560420000000  0.4886560000000  0.4949340000000 1.0
C      1  0.4488840000000  0.5886410000000  0.5266010000000 1.0
C      1  0.5034780000000  0.4392080000000  0.5066130000000 1.0
C      1  0.4389050000000  0.4156060000000  0.5441260000000 1.0
C      1  0.5733010000000  0.4276400000000  0.4761980000000 1.0
C      1  0.5500780000000  0.5086620000000  0.5159400000000 1.0
C      1  0.5081450000000  0.5365270000000  0.5160200000000 1.0
C      1  0.4644710000000  0.5773300000000  0.4480340000000 1.0
C      1  0.4172560000000  0.4958130000000  0.4678780000000 1.0
C      1  0.4200930000000  0.4473920000000  0.4680440000000 1.0
C      1  0.5362910000000  0.4475270000000  0.3936070000000 1.0
C      1  0.4440070000000  0.4487870000000  0.4522500000000 1.0
C      1  0.4654770000000  0.4617990000000  0.5686450000000 1.0
C      1  0.5234040000000  0.5897690000000  0.5228780000000 1.0
C      1  0.4665820000000  0.4155980000000  0.5544520000000 1.0
C      1  0.4418820000000  0.4766220000000  0.5751160000000 1.0
C      1  0.4911140000000  0.5080610000000  0.4084620000000 1.0
C      1  0.5610910000000  0.5578160000000  0.5400540000000 1.0
C      1  0.4308010000000  0.5421510000000  0.5397610000000 1.0
C      1  0.5196040000000  0.4657900000000  0.4371730000000 1.0
C      1  0.3968100000000  0.5243490000000  0.5460940000000 1.0
C      1  0.4858010000000  0.4213050000000  0.4903190000000 1.0
C      1  0.5476190000000  0.5372810000000  0.4380750000000 1.0
C      1  0.4458150000000  0.5360830000000  0.4347300000000 1.0
C      1  0.5882050000000  0.5397830000000  0.5053900000000 1.0
C      1  0.5415200000000  0.5622200000000  0.4550460000000 1.0
C      1  0.4793680000000  0.5045820000000  0.6074500000000 1.0
C      1  0.4349200000000  0.5716460000000  0.5485100000000 1.0
C      1  0.4417440000000  0.5717910000000  0.4677710000000 1.0
C      1  0.5112990000000  0.4168770000000  0.4541490000000 1.0
C      1  0.5611820000000  0.4543340000000  0.5421550000000 1.0
C      1  0.5155470000000  0.4500020000000  0.4121180000000 1.0
C      1  0.5799320000000  0.4770840000000  0.5335470000000 1.0
C      1  0.4639140000000  0.4452170000000  0.5452960000000 1.0
C      1  0.5283300000000  0.4833550000000  0.5448460000000 1.0
C      1  0.5900180000000  0.5124580000000  0.4605050000000 1.0
C      1  0.5234130000000  0.5436000000000  0.5768680000000 1.0
C      1  0.4661340000000  0.4950300000000  0.4104190000000 1.0
C      1  0.4148360000000  0.5290350000000  0.5018300000000 1.0
C      1  0.4977550000000  0.5509640000000  0.5917180000000 1.0
C      1  0.5579860000000  0.4307130000000  0.4532770000000 1.0
C      1  0.5763320000000  0.5215050000000  0.4319980000000 1.0
C      1  0.5474570000000  0.5986940000000  0.5123110000000 1.0
C      1  0.4951630000000  0.5940780000000  0.5624050000000 1.0
C      1  0.4503150000000  0.5391210000000  0.5859840000000 1.0
C      1  0.4134230000000  0.5248580000000  0.4736660000000 1.0
C      1  0.5626050000000  0.5035940000000  0.4701370000000 1.0
C      1  0.4383370000000  0.4463830000000  0.5020250000000 1.0
C      1  0.4095610000000  0.5098010000000  0.5679350000000 1.0
C      1  0.5535170000000  0.5051880000000  0.5639350000000 1.0
C      1  0.5118590000000  0.5673040000000  0.4487450000000 1.0
C      1  0.4594410000000  0.5395910000000  0.5298990000000 1.0
C      1  0.5079550000000  0.4025680000000  0.4794770000000 1.0
C      1  0.4374560000000  0.5222880000000  0.5641710000000 1.0
C      1  0.5423490000000  0.4533390000000  0.5639010000000 1.0
C      1  0.5492720000000  0.5600510000000  0.4829580000000 1.0
C      1  0.5361370000000  0.5175830000000  0.5830610000000 1.0
C      1  0.4453460000000  0.5079370000000  0.4266540000000 1.0
C      1  0.4192630000000  0.4868460000000  0.5276190000000 1.0
C      1  0.5771290000000  0.4727510000000  0.4418190000000 1.0
C      1  0.4796820000000  0.4740200000000  0.4701310000000 1.0
C      1  0.4945480000000  0.4660480000000  0.5758060000000 1.0
C      1  0.4978980000000  0.5311910000000  0.4699900000000 1.0
C      1  0.4708690000000  0.4685160000000  0.4230840000000 1.0
C      1  0.5663280000000  0.5787670000000  0.5194500000000 1.0
C      1  0.5254180000000  0.4497500000000  0.4878130000000 1.0
C      1  0.5592330000000  0.4445680000000  0.4074590000000 1.0
C      1  0.4903420000000  0.5841110000000  0.4619540000000 1.0
C      1  0.4765240000000  0.5592410000000  0.5436520000000 1.0
C      1  0.4471500000000  0.4376840000000  0.4258760000000 1.0
C      1  0.4544830000000  0.5665730000000  0.5745190000000 1.0
C      1  0.4120970000000  0.4631430000000  0.5103520000000 1.0
C      1  0.4486230000000  0.5116510000000  0.4948210000000 1.0
C      1  0.6003280000000  0.4837440000000  0.4578300000000 1.0
C      1  0.6042140000000  0.5227940000000  0.4866290000000 1.0
C      1  0.5109480000000  0.4247800000000  0.5338380000000 1.0
C      1  0.5364710000000  0.4133700000000  0.5217000000000 1.0
C      1  0.4577770000000  0.5005020000000  0.5493920000000 1.0
C      1  0.5110320000000  0.4835960000000  0.5186510000000 1.0
C      1  0.5066100000000  0.5540760000000  0.5415600000000 1.0
C      1  0.4180150000000  0.4825480000000  0.5588620000000 1.0
C      1  0.5355280000000  0.4926380000000  0.4297250000000 1.0
C      1  0.4534530000000  0.5790090000000  0.4959750000000 1.0
C      1  0.4841160000000  0.5780190000000  0.4910040000000 1.0
C      1  0.5393290000000  0.5120960000000  0.4550380000000 1.0
C      1  0.5194020000000  0.5090880000000  0.4097470000000 1.0
C      1  0.4606730000000  0.4988290000000  0.4669290000000 1.0
C      1  0.4990400000000  0.4846930000000  0.6037020000000 1.0
C      1  0.4917100000000  0.4797200000000  0.4432190000000 1.0
C      1  0.5283370000000  0.4771950000000  0.4939320000000 1.0
C      1  0.4831140000000  0.5761560000000  0.5832870000000 1.0
C      1  0.4866470000000  0.4051150000000  0.5358000000000 1.0
C      1  0.5292050000000  0.4410680000000  0.4586190000000 1.0
C      1  0.4430380000000  0.4190610000000  0.5158760000000 1.0
C      1  0.4684600000000  0.5543140000000  0.4290180000000 1.0
C      1  0.5589300000000  0.4329970000000  0.5225980000000 1.0
C      1  0.4843760000000  0.4237600000000  0.4462970000000 1.0
C      1  0.4076650000000  0.4703460000000  0.4812250000000 1.0
C      1  0.5234520000000  0.4992900000000  0.6004380000000 1.0
C      1  0.4730330000000  0.4255470000000  0.4192300000000 1.0
C      1  0.4888560000000  0.4611330000000  0.5197990000000 1.0
C      1  0.4965240000000  0.5098450000000  0.5220760000000 1.0
C      1  0.5210730000000  0.5173590000000  0.4770840000000 1.0
C      1  0.5060610000000  0.4927680000000  0.5634760000000 1.0
C      1  0.6179790000000  0.5014030000000  0.4987680000000 1.0
C      1  0.4675950000000  0.4466300000000  0.4705220000000 1.0
C      1  0.5341480000000  0.5305410000000  0.5011840000000 1.0
C      1  0.5231590000000  0.5878080000000  0.5522930000000 1.0
C      1  0.5690250000000  0.5066650000000  0.5389910000000 1.0
C      1  0.5663560000000  0.4933570000000  0.4234230000000 1.0
C      1  0.4781010000000  0.5970510000000  0.5354190000000 1.0
C      1  0.6058120000000  0.4785120000000  0.4875290000000 1.0
C      1  0.4886970000000  0.5463830000000  0.4941960000000 1.0
C      1  0.5724820000000  0.4453830000000  0.4321860000000 1.0
C      1  0.5808070000000  0.4702630000000  0.5032700000000 1.0
C      1  0.5406420000000  0.5644340000000  0.5619860000000 1.0
C      1  0.4697830000000  0.4071390000000  0.5108060000000 1.0
C      1  0.4873480000000  0.4483360000000  0.4048090000000 1.0
C      1  0.5754160000000  0.5645990000000  0.4951810000000 1.0
C      1  0.5757200000000  0.4405280000000  0.5004650000000 1.0
C      1  0.4606190000000  0.4668790000000  0.5090400000000 1.0
C      1  0.4970120000000  0.5957140000000  0.5120920000000 1.0
C      1  0.4625460000000  0.5362390000000  0.5023190000000 1.0
END
