TITL C-950527-2551-606 -4.6257471324482e-07 125000 -233.538466441141 0 0 39 (C1) n - 1
REM
REM in /home/bkarasulu/work/CARBON/AIRSS/Generating-Clusters/EDIP-Nigel-Params/with-SteepDescent/Only-C1/SD-CG/HFTN-CG
REM
REM
REM
REM
REM
REM ./C.cell (11c1c37f851c82e70ff6c80c92926a4b)
REM
REM compiler GCC version 9.2.1 20190827 (Red Hat 9.2.1-1)
REM options -cpp -mtune=generic -march=x86-64 -g -O0 -fpre-include=/usr/include/finclude/math-vector-fortran.h
REM seed 622609214 -227015151 428444896 -650832952 -1643939324 588317889 -411198242 1514907050 1949422362 80671072 -1251061689 1183713833 -59170773 2107646584 -311088308 -2068798406 990515957 -652659334 -1351931085 -1651296884 -77240672 467331236 1220625400 -2015022239 2027646100 -1927150690 703571562 -1673716367 -1523563903 -296409204 -2073955595 1486304064 1451201232
REM
CELL 1.54180   50.00000   50.00000   50.00000   90.00000   90.00000   90.00000
LATT -1
SFAC C  
C      1  0.5233350000000  0.4516470000000  0.4669480000000 1.0
C      1  0.4863640000000  0.5437720000000  0.4596070000000 1.0
C      1  0.4962870000000  0.4921310000000  0.4558080000000 1.0
C      1  0.5229660000000  0.4421130000000  0.4935680000000 1.0
C      1  0.4352460000000  0.5025960000000  0.4643810000000 1.0
C      1  0.5469760000000  0.5175860000000  0.4657130000000 1.0
C      1  0.4489780000000  0.4821040000000  0.4524330000000 1.0
C      1  0.4934890000000  0.5130020000000  0.5477440000000 1.0
C      1  0.5361850000000  0.4603870000000  0.5143300000000 1.0
C      1  0.5499680000000  0.5502900000000  0.5146210000000 1.0
C      1  0.5627800000000  0.5048380000000  0.5219360000000 1.0
C      1  0.5169590000000  0.4740940000000  0.5328160000000 1.0
C      1  0.4526130000000  0.5398690000000  0.4962630000000 1.0
C      1  0.4754610000000  0.4888220000000  0.5519890000000 1.0
C      1  0.5544180000000  0.4826090000000  0.5027020000000 1.0
C      1  0.4457420000000  0.4793960000000  0.5205330000000 1.0
C      1  0.4745600000000  0.4731850000000  0.4599990000000 1.0
C      1  0.4997690000000  0.4260780000000  0.5003430000000 1.0
C      1  0.4998550000000  0.5198300000000  0.4684680000000 1.0
C      1  0.4466170000000  0.5131190000000  0.4880230000000 1.0
C      1  0.4724790000000  0.4709090000000  0.5112780000000 1.0
C      1  0.5178110000000  0.4789280000000  0.4695130000000 1.0
C      1  0.5352080000000  0.4979270000000  0.4848460000000 1.0
C      1  0.4677210000000  0.5535600000000  0.4773740000000 1.0
C      1  0.4600850000000  0.5417580000000  0.5231330000000 1.0
C      1  0.5696270000000  0.5281160000000  0.4783020000000 1.0
C      1  0.5161830000000  0.5158030000000  0.5038740000000 1.0
C      1  0.5228770000000  0.5448700000000  0.5098440000000 1.0
C      1  0.5450120000000  0.5097280000000  0.5441260000000 1.0
C      1  0.4835010000000  0.5397690000000  0.5385100000000 1.0
C      1  0.4830990000000  0.4575860000000  0.4859760000000 1.0
C      1  0.4883640000000  0.4669700000000  0.5354700000000 1.0
C      1  0.4304000000000  0.4950010000000  0.5022750000000 1.0
C      1  0.5046890000000  0.5549980000000  0.5283460000000 1.0
C      1  0.4767740000000  0.4287760000000  0.4848650000000 1.0
C      1  0.5236920000000  0.5334930000000  0.4577680000000 1.0
C      1  0.4473470000000  0.4904310000000  0.5466660000000 1.0
C      1  0.5186870000000  0.5036950000000  0.5331040000000 1.0
C      1  0.5678750000000  0.5302130000000  0.5065040000000 1.0
END
