TITL C-951338-5626-72 -1.28603314358114e-06 125000 -824.223489371234 0 0 132 (C1) n - 1
REM
REM in /home/bkarasulu/work/CARBON/AIRSS/Generating-Clusters/EDIP-Nigel-Params/with-SteepDescent/Only-C1/SD-CG/HFTN-CG
REM
REM
REM
REM
REM
REM ./C.cell (11c1c37f851c82e70ff6c80c92926a4b)
REM
REM compiler GCC version 9.2.1 20190827 (Red Hat 9.2.1-1)
REM options -cpp -mtune=generic -march=x86-64 -g -O0 -fpre-include=/usr/include/finclude/math-vector-fortran.h
REM seed -1089807051 1069594680 -754320447 1294103805 -1663423171 1484372610 -93548177 659434419 -1070829021 55440647 -1120689937 -1820435743 -172046820 -657313296 1894643785 -520380184 -2092969627 -2106803407 327328583 573796113 -1732354033 -368213437 -1655623050 -1450690839 1141857667 972033210 793207746 1178559830 1021866687 -1453687951 597727933 -1524175240 -1335750821
REM
CELL 1.54180   50.00000   50.00000   50.00000   90.00000   90.00000   90.00000
LATT -1
SFAC C  
C      1  0.4361390000000  0.4285080000000  0.5575120000000 1.0
C      1  0.4199090000000  0.4471250000000  0.5443170000000 1.0
C      1  0.5693090000000  0.5509830000000  0.4817730000000 1.0
C      1  0.4689080000000  0.5135990000000  0.5980220000000 1.0
C      1  0.4238970000000  0.4914330000000  0.4926610000000 1.0
C      1  0.5303800000000  0.4077870000000  0.4790170000000 1.0
C      1  0.4822950000000  0.4820070000000  0.5420870000000 1.0
C      1  0.4761810000000  0.4659930000000  0.3961670000000 1.0
C      1  0.5640070000000  0.4689330000000  0.5622170000000 1.0
C      1  0.5486500000000  0.4807640000000  0.4311150000000 1.0
C      1  0.5119790000000  0.4169400000000  0.4559850000000 1.0
C      1  0.5116690000000  0.4885150000000  0.5063530000000 1.0
C      1  0.5006560000000  0.4843770000000  0.3969470000000 1.0
C      1  0.4535960000000  0.5611570000000  0.5683930000000 1.0
C      1  0.5799380000000  0.5401130000000  0.4556110000000 1.0
C      1  0.4975540000000  0.5766880000000  0.5098290000000 1.0
C      1  0.5467960000000  0.5309130000000  0.4872440000000 1.0
C      1  0.4937820000000  0.4611570000000  0.4434760000000 1.0
C      1  0.4524390000000  0.5392080000000  0.4831410000000 1.0
C      1  0.4644040000000  0.4034020000000  0.5300460000000 1.0
C      1  0.5245680000000  0.4531980000000  0.5377420000000 1.0
C      1  0.5838900000000  0.5452440000000  0.5074600000000 1.0
C      1  0.5081220000000  0.6043660000000  0.5129630000000 1.0
C      1  0.5881280000000  0.4988350000000  0.5243220000000 1.0
C      1  0.4706830000000  0.4787970000000  0.4812950000000 1.0
C      1  0.5699780000000  0.5446060000000  0.5582900000000 1.0
C      1  0.5299360000000  0.4551650000000  0.4751860000000 1.0
C      1  0.4766650000000  0.5605880000000  0.5867140000000 1.0
C      1  0.5308470000000  0.4293270000000  0.4327150000000 1.0
C      1  0.4180560000000  0.4670610000000  0.4630200000000 1.0
C      1  0.4726420000000  0.5148080000000  0.4412930000000 1.0
C      1  0.5026640000000  0.4448870000000  0.4660440000000 1.0
C      1  0.4575220000000  0.5906720000000  0.4515820000000 1.0
C      1  0.5029290000000  0.5253760000000  0.4751990000000 1.0
C      1  0.4465860000000  0.5178130000000  0.4261220000000 1.0
C      1  0.4740190000000  0.5322820000000  0.5340420000000 1.0
C      1  0.4746930000000  0.4445590000000  0.4288630000000 1.0
C      1  0.4857610000000  0.5707980000000  0.4828060000000 1.0
C      1  0.5268110000000  0.5401590000000  0.4670640000000 1.0
C      1  0.5733450000000  0.5164570000000  0.5619490000000 1.0
C      1  0.4377810000000  0.5651350000000  0.5231130000000 1.0
C      1  0.4298870000000  0.5368390000000  0.5336930000000 1.0
C      1  0.4618770000000  0.5225470000000  0.5064390000000 1.0
C      1  0.4024750000000  0.5108800000000  0.5022690000000 1.0
C      1  0.5549920000000  0.5563540000000  0.5788420000000 1.0
C      1  0.4560570000000  0.4798620000000  0.5283180000000 1.0
C      1  0.5272520000000  0.5043910000000  0.4369240000000 1.0
C      1  0.5270610000000  0.4296400000000  0.5209050000000 1.0
C      1  0.5319220000000  0.5331150000000  0.5134350000000 1.0
C      1  0.4594070000000  0.5757270000000  0.5423860000000 1.0
C      1  0.5057200000000  0.5828280000000  0.4517600000000 1.0
C      1  0.5156800000000  0.5278520000000  0.5890200000000 1.0
C      1  0.5467210000000  0.4528260000000  0.4488000000000 1.0
C      1  0.4752100000000  0.5541390000000  0.4215260000000 1.0
C      1  0.5829640000000  0.4894260000000  0.4822910000000 1.0
C      1  0.4072710000000  0.5179190000000  0.5303390000000 1.0
C      1  0.5590320000000  0.5264610000000  0.4401770000000 1.0
C      1  0.5178630000000  0.4379150000000  0.4054780000000 1.0
C      1  0.4878850000000  0.3997080000000  0.4549970000000 1.0
C      1  0.4794450000000  0.5765030000000  0.4402850000000 1.0
C      1  0.5240570000000  0.4659020000000  0.3972500000000 1.0
C      1  0.4274570000000  0.5281260000000  0.4701960000000 1.0
C      1  0.5658570000000  0.4482360000000  0.5078310000000 1.0
C      1  0.4635570000000  0.4055950000000  0.5012820000000 1.0
C      1  0.5538600000000  0.4997140000000  0.4893880000000 1.0
C      1  0.5667740000000  0.5547310000000  0.5305620000000 1.0
C      1  0.5110160000000  0.4989420000000  0.4622480000000 1.0
C      1  0.4350360000000  0.4503050000000  0.4473850000000 1.0
C      1  0.4428630000000  0.4218260000000  0.4888740000000 1.0
C      1  0.5499230000000  0.5792690000000  0.5270790000000 1.0
C      1  0.4805040000000  0.4682110000000  0.5698230000000 1.0
C      1  0.4469220000000  0.4820150000000  0.5713910000000 1.0
C      1  0.4769130000000  0.5391000000000  0.4631070000000 1.0
C      1  0.4876630000000  0.4365340000000  0.4022540000000 1.0
C      1  0.4770630000000  0.4493400000000  0.4834700000000 1.0
C      1  0.4825500000000  0.4438550000000  0.5125060000000 1.0
C      1  0.4867130000000  0.5328800000000  0.5888700000000 1.0
C      1  0.4537780000000  0.4505980000000  0.5248730000000 1.0
C      1  0.5541810000000  0.4664980000000  0.5323490000000 1.0
C      1  0.5038550000000  0.4134730000000  0.5181370000000 1.0
C      1  0.4498230000000  0.5332430000000  0.5564420000000 1.0
C      1  0.4501160000000  0.5103030000000  0.5776640000000 1.0
C      1  0.5009670000000  0.4669590000000  0.5240370000000 1.0
C      1  0.4248840000000  0.5272270000000  0.4419700000000 1.0
C      1  0.4482730000000  0.5451020000000  0.4165070000000 1.0
C      1  0.5576940000000  0.4954660000000  0.5748380000000 1.0
C      1  0.6034430000000  0.5242040000000  0.4572850000000 1.0
C      1  0.5151770000000  0.6112930000000  0.5393670000000 1.0
C      1  0.4537890000000  0.4936790000000  0.5022460000000 1.0
C      1  0.5099490000000  0.3950300000000  0.4966130000000 1.0
C      1  0.5511650000000  0.4510240000000  0.5790100000000 1.0
C      1  0.5081180000000  0.4750450000000  0.5839340000000 1.0
C      1  0.5219900000000  0.5063710000000  0.5507350000000 1.0
C      1  0.5533420000000  0.5770160000000  0.4772700000000 1.0
C      1  0.5592180000000  0.4953010000000  0.5207380000000 1.0
C      1  0.5259700000000  0.5002140000000  0.5788140000000 1.0
C      1  0.5727590000000  0.4465970000000  0.4597020000000 1.0
C      1  0.5711010000000  0.5006080000000  0.4360150000000 1.0
C      1  0.5057900000000  0.5185390000000  0.5066730000000 1.0
C      1  0.4501290000000  0.4315300000000  0.4630220000000 1.0
C      1  0.5049670000000  0.5079720000000  0.4161930000000 1.0
C      1  0.5497500000000  0.5941630000000  0.5009330000000 1.0
C      1  0.5446870000000  0.5174820000000  0.5357120000000 1.0
C      1  0.5234770000000  0.4500590000000  0.5815020000000 1.0
C      1  0.5800960000000  0.4591370000000  0.4840270000000 1.0
C      1  0.4950170000000  0.5350170000000  0.4134870000000 1.0
C      1  0.4433310000000  0.5666190000000  0.4928840000000 1.0
C      1  0.4618400000000  0.4189600000000  0.5539790000000 1.0
C      1  0.4072780000000  0.4954120000000  0.5469790000000 1.0
C      1  0.4941200000000  0.5095280000000  0.5414660000000 1.0
C      1  0.4953430000000  0.5815470000000  0.5816850000000 1.0
C      1  0.4225410000000  0.4742460000000  0.5566600000000 1.0
C      1  0.5110110000000  0.5697570000000  0.5602650000000 1.0
C      1  0.4843820000000  0.3941830000000  0.4829900000000 1.0
C      1  0.4823920000000  0.4382990000000  0.5631740000000 1.0
C      1  0.4498590000000  0.4602240000000  0.4240780000000 1.0
C      1  0.5305480000000  0.5893760000000  0.5479620000000 1.0
C      1  0.4035120000000  0.5324810000000  0.4845150000000 1.0
C      1  0.4290000000000  0.4414700000000  0.5070600000000 1.0
C      1  0.5928730000000  0.4978570000000  0.4553740000000 1.0
C      1  0.5946320000000  0.5178500000000  0.5055350000000 1.0
C      1  0.5098920000000  0.4311780000000  0.5650980000000 1.0
C      1  0.4138670000000  0.4626880000000  0.4915870000000 1.0
C      1  0.4607710000000  0.5868110000000  0.4794050000000 1.0
C      1  0.5287300000000  0.6127580000000  0.4957740000000 1.0
C      1  0.5417530000000  0.4331910000000  0.4956920000000 1.0
C      1  0.5264800000000  0.5687750000000  0.4665360000000 1.0
C      1  0.4838830000000  0.4869450000000  0.4555150000000 1.0
C      1  0.5496720000000  0.4750720000000  0.4030170000000 1.0
C      1  0.5277600000000  0.4841240000000  0.4829580000000 1.0
C      1  0.4869460000000  0.5632380000000  0.5352910000000 1.0
C      1  0.5285200000000  0.5490130000000  0.5733210000000 1.0
END
