TITL C-951339-9237-375 1.50475595508797e-06 125000 -1154.94540876488 0 0 186 (C1) n - 1
REM
REM in /home/bkarasulu/work/CARBON/AIRSS/Generating-Clusters/EDIP-Nigel-Params/with-SteepDescent/Only-C1/SD-CG/HFTN-CG
REM
REM
REM
REM
REM
REM ./C.cell (11c1c37f851c82e70ff6c80c92926a4b)
REM
REM compiler GCC version 9.2.1 20190827 (Red Hat 9.2.1-1)
REM options -cpp -mtune=generic -march=x86-64 -g -O0 -fpre-include=/usr/include/finclude/math-vector-fortran.h
REM seed -242430070 -275740464 -1502692024 87337669 -1606738179 535579752 41097551 1926582709 -807250073 677168076 235312174 958403917 -1464236829 -951012185 -50180652 1356447139 -940476336 1380638906 -1217202887 -2002196922 745075237 -626915702 -1280304063 1168974061 163153209 208610377 477679305 -2144182129 -1276122001 832214107 -1006384191 539387226 1168577237
REM
CELL 1.54180   50.00000   50.00000   50.00000   90.00000   90.00000   90.00000
LATT -1
SFAC C  
C      1  0.5740420000000  0.4796190000000  0.4877320000000 1.0
C      1  0.5238640000000  0.5906180000000  0.5136270000000 1.0
C      1  0.4498240000000  0.4713940000000  0.4691210000000 1.0
C      1  0.5313550000000  0.3823460000000  0.5188070000000 1.0
C      1  0.4320820000000  0.5049600000000  0.6027040000000 1.0
C      1  0.4295350000000  0.5649090000000  0.4325480000000 1.0
C      1  0.5763480000000  0.4014410000000  0.5099240000000 1.0
C      1  0.5054580000000  0.4062710000000  0.5771260000000 1.0
C      1  0.4741960000000  0.5159280000000  0.4624780000000 1.0
C      1  0.4168970000000  0.4217590000000  0.4889830000000 1.0
C      1  0.4883050000000  0.4581930000000  0.5298620000000 1.0
C      1  0.4232810000000  0.5887410000000  0.5518080000000 1.0
C      1  0.4914920000000  0.6061050000000  0.4775810000000 1.0
C      1  0.5212680000000  0.5093060000000  0.5703670000000 1.0
C      1  0.4666770000000  0.5238550000000  0.5649670000000 1.0
C      1  0.4832050000000  0.5604780000000  0.5143960000000 1.0
C      1  0.4914000000000  0.5305290000000  0.5834680000000 1.0
C      1  0.4417160000000  0.4360790000000  0.4357140000000 1.0
C      1  0.4516580000000  0.4663010000000  0.4405940000000 1.0
C      1  0.4543840000000  0.4698440000000  0.3898760000000 1.0
C      1  0.5771720000000  0.4365090000000  0.5450520000000 1.0
C      1  0.5299380000000  0.4890390000000  0.4206340000000 1.0
C      1  0.5443070000000  0.4864690000000  0.6060180000000 1.0
C      1  0.4717620000000  0.4799980000000  0.5908860000000 1.0
C      1  0.4996020000000  0.5599940000000  0.5860980000000 1.0
C      1  0.4917130000000  0.4295340000000  0.4197790000000 1.0
C      1  0.5455480000000  0.4641910000000  0.5596930000000 1.0
C      1  0.5470150000000  0.5636390000000  0.4409590000000 1.0
C      1  0.6017540000000  0.4837610000000  0.5321570000000 1.0
C      1  0.5279350000000  0.5540940000000  0.5771650000000 1.0
C      1  0.4725350000000  0.5916170000000  0.5476530000000 1.0
C      1  0.6096230000000  0.5043830000000  0.5122530000000 1.0
C      1  0.4809020000000  0.4494540000000  0.5890530000000 1.0
C      1  0.5389550000000  0.4397010000000  0.5768860000000 1.0
C      1  0.5428250000000  0.5800660000000  0.5777820000000 1.0
C      1  0.5873030000000  0.5269270000000  0.4393730000000 1.0
C      1  0.4753350000000  0.4330020000000  0.4849600000000 1.0
C      1  0.5646320000000  0.5282940000000  0.5942090000000 1.0
C      1  0.4347720000000  0.4293370000000  0.5364840000000 1.0
C      1  0.5675850000000  0.5696480000000  0.5655970000000 1.0
C      1  0.6067120000000  0.4580440000000  0.4559460000000 1.0
C      1  0.4319990000000  0.4796330000000  0.4034230000000 1.0
C      1  0.4057050000000  0.5480750000000  0.4304640000000 1.0
C      1  0.4992070000000  0.5231810000000  0.5320720000000 1.0
C      1  0.5151390000000  0.5410700000000  0.4167730000000 1.0
C      1  0.4377420000000  0.5514260000000  0.5822930000000 1.0
C      1  0.5430410000000  0.5997450000000  0.5353480000000 1.0
C      1  0.5684230000000  0.4988470000000  0.5972030000000 1.0
C      1  0.5441580000000  0.5228880000000  0.5497770000000 1.0
C      1  0.5717340000000  0.5054840000000  0.5037420000000 1.0
C      1  0.5091670000000  0.4322930000000  0.5920250000000 1.0
C      1  0.4881860000000  0.4432500000000  0.5067630000000 1.0
C      1  0.5926620000000  0.5387090000000  0.5216070000000 1.0
C      1  0.5512520000000  0.4607970000000  0.4883250000000 1.0
C      1  0.5509080000000  0.3894000000000  0.4979920000000 1.0
C      1  0.4090250000000  0.5653330000000  0.5455800000000 1.0
C      1  0.6155560000000  0.4953710000000  0.4847630000000 1.0
C      1  0.4584450000000  0.5224570000000  0.4142090000000 1.0
C      1  0.4319010000000  0.5847090000000  0.4529100000000 1.0
C      1  0.4810850000000  0.4740610000000  0.3990850000000 1.0
C      1  0.4679370000000  0.3940600000000  0.5189310000000 1.0
C      1  0.4910610000000  0.4402740000000  0.5528540000000 1.0
C      1  0.4984520000000  0.4493650000000  0.3982130000000 1.0
C      1  0.5399910000000  0.5435080000000  0.4021620000000 1.0
C      1  0.4325360000000  0.5073830000000  0.4125910000000 1.0
C      1  0.5922600000000  0.4629840000000  0.4334340000000 1.0
C      1  0.5551940000000  0.4978540000000  0.4358410000000 1.0
C      1  0.5367100000000  0.5882140000000  0.4576090000000 1.0
C      1  0.3895840000000  0.4983340000000  0.4728040000000 1.0
C      1  0.5496460000000  0.4527640000000  0.4580530000000 1.0
C      1  0.5139310000000  0.4157880000000  0.4336710000000 1.0
C      1  0.4943630000000  0.3911460000000  0.5108100000000 1.0
C      1  0.5467800000000  0.4738190000000  0.3891540000000 1.0
C      1  0.6036780000000  0.4457550000000  0.5031010000000 1.0
C      1  0.5964320000000  0.4546210000000  0.5298470000000 1.0
C      1  0.4784500000000  0.4779190000000  0.4299220000000 1.0
C      1  0.4329180000000  0.4720730000000  0.5657380000000 1.0
C      1  0.4021890000000  0.4636770000000  0.5093730000000 1.0
C      1  0.5440250000000  0.5158130000000  0.4582440000000 1.0
C      1  0.5000550000000  0.5832720000000  0.5571680000000 1.0
C      1  0.4182010000000  0.5358030000000  0.4638810000000 1.0
C      1  0.4738460000000  0.4944290000000  0.5624000000000 1.0
C      1  0.6018280000000  0.4684860000000  0.4824580000000 1.0
C      1  0.5308010000000  0.4830600000000  0.5808630000000 1.0
C      1  0.5067200000000  0.5918200000000  0.4544220000000 1.0
C      1  0.5584760000000  0.4253190000000  0.4622170000000 1.0
C      1  0.4538860000000  0.5502470000000  0.4251700000000 1.0
C      1  0.5378300000000  0.5784560000000  0.4870850000000 1.0
C      1  0.5554910000000  0.5206230000000  0.3981630000000 1.0
C      1  0.3964380000000  0.4681290000000  0.4385690000000 1.0
C      1  0.4201970000000  0.5408380000000  0.5589370000000 1.0
C      1  0.3914220000000  0.4705330000000  0.4826880000000 1.0
C      1  0.5052830000000  0.5655800000000  0.6142910000000 1.0
C      1  0.4778540000000  0.5653450000000  0.4194640000000 1.0
C      1  0.5430660000000  0.5005440000000  0.3805360000000 1.0
C      1  0.5086200000000  0.5125980000000  0.4243380000000 1.0
C      1  0.4273960000000  0.5774730000000  0.5021820000000 1.0
C      1  0.4536700000000  0.4811140000000  0.5458080000000 1.0
C      1  0.5020400000000  0.4691850000000  0.4477770000000 1.0
C      1  0.5897720000000  0.4217610000000  0.4932180000000 1.0
C      1  0.5072590000000  0.5693410000000  0.5305950000000 1.0
C      1  0.3886180000000  0.4523010000000  0.4610620000000 1.0
C      1  0.4694820000000  0.4014780000000  0.4481710000000 1.0
C      1  0.4527610000000  0.4998530000000  0.4761560000000 1.0
C      1  0.5679320000000  0.4720490000000  0.4445410000000 1.0
C      1  0.5369670000000  0.5373760000000  0.6004110000000 1.0
C      1  0.5743410000000  0.4855270000000  0.5721040000000 1.0
C      1  0.4185830000000  0.4591250000000  0.4205140000000 1.0
C      1  0.6028710000000  0.5381290000000  0.4849950000000 1.0
C      1  0.5123890000000  0.4749220000000  0.5345580000000 1.0
C      1  0.4417920000000  0.4806260000000  0.5933060000000 1.0
C      1  0.5382540000000  0.4123120000000  0.4807080000000 1.0
C      1  0.4965150000000  0.5069060000000  0.4795460000000 1.0
C      1  0.5105910000000  0.4177160000000  0.5505360000000 1.0
C      1  0.4350870000000  0.4423590000000  0.5632140000000 1.0
C      1  0.4756180000000  0.5253730000000  0.3899030000000 1.0
C      1  0.5269150000000  0.5510150000000  0.6231020000000 1.0
C      1  0.5756260000000  0.4081420000000  0.5379500000000 1.0
C      1  0.5274820000000  0.4760080000000  0.4896190000000 1.0
C      1  0.3976770000000  0.5340740000000  0.5102990000000 1.0
C      1  0.4927660000000  0.5678020000000  0.4439030000000 1.0
C      1  0.4064990000000  0.5611560000000  0.5171030000000 1.0
C      1  0.5419870000000  0.4522070000000  0.5237860000000 1.0
C      1  0.5032970000000  0.6115100000000  0.5061060000000 1.0
C      1  0.4410540000000  0.5361360000000  0.5047180000000 1.0
C      1  0.5732230000000  0.5622510000000  0.5194700000000 1.0
C      1  0.4089510000000  0.4879520000000  0.5259580000000 1.0
C      1  0.4479650000000  0.5791440000000  0.5614760000000 1.0
C      1  0.4479140000000  0.4444010000000  0.4828970000000 1.0
C      1  0.5200630000000  0.5536460000000  0.4800970000000 1.0
C      1  0.5012380000000  0.4993980000000  0.5500920000000 1.0
C      1  0.5570000000000  0.5250720000000  0.4843430000000 1.0
C      1  0.5635410000000  0.4256210000000  0.5699160000000 1.0
C      1  0.4105630000000  0.5176690000000  0.4300760000000 1.0
C      1  0.4651830000000  0.4190490000000  0.4266850000000 1.0
C      1  0.5292260000000  0.4280300000000  0.5067040000000 1.0
C      1  0.4542240000000  0.5592000000000  0.5241280000000 1.0
C      1  0.4792030000000  0.5078740000000  0.4330100000000 1.0
C      1  0.4412760000000  0.5500480000000  0.4772750000000 1.0
C      1  0.4322420000000  0.4261450000000  0.4637080000000 1.0
C      1  0.5664140000000  0.5706450000000  0.4931690000000 1.0
C      1  0.4533300000000  0.4062430000000  0.5392150000000 1.0
C      1  0.5122640000000  0.4864760000000  0.4680370000000 1.0
C      1  0.4704400000000  0.5464070000000  0.4657120000000 1.0
C      1  0.4490430000000  0.5278240000000  0.5998790000000 1.0
C      1  0.3861530000000  0.5176450000000  0.5307950000000 1.0
C      1  0.4744480000000  0.6037230000000  0.5187120000000 1.0
C      1  0.5279670000000  0.5418440000000  0.4512970000000 1.0
C      1  0.4387980000000  0.5934700000000  0.4791040000000 1.0
C      1  0.6063810000000  0.5169870000000  0.4647660000000 1.0
C      1  0.5515380000000  0.5023220000000  0.5261100000000 1.0
C      1  0.4177500000000  0.4381940000000  0.5129240000000 1.0
C      1  0.3987890000000  0.5155640000000  0.5578200000000 1.0
C      1  0.4387880000000  0.4937720000000  0.5245200000000 1.0
C      1  0.4575750000000  0.4315660000000  0.5797120000000 1.0
C      1  0.5276470000000  0.4551070000000  0.4007300000000 1.0
C      1  0.5686000000000  0.5379670000000  0.5654240000000 1.0
C      1  0.5758110000000  0.5481020000000  0.4772870000000 1.0
C      1  0.5164040000000  0.5043080000000  0.3730480000000 1.0
C      1  0.5133550000000  0.4069670000000  0.4619880000000 1.0
C      1  0.5207270000000  0.5431180000000  0.5402070000000 1.0
C      1  0.4902680000000  0.5559180000000  0.4864260000000 1.0
C      1  0.5272550000000  0.5993730000000  0.5607750000000 1.0
C      1  0.5242570000000  0.4520890000000  0.4394890000000 1.0
C      1  0.3933330000000  0.4966410000000  0.4437990000000 1.0
C      1  0.4848960000000  0.4083200000000  0.4710590000000 1.0
C      1  0.4059730000000  0.4842330000000  0.5567290000000 1.0
C      1  0.4921220000000  0.5498450000000  0.3985310000000 1.0
C      1  0.5802170000000  0.5160400000000  0.4129940000000 1.0
C      1  0.5323890000000  0.5354610000000  0.4983800000000 1.0
C      1  0.4453050000000  0.5330690000000  0.5432850000000 1.0
C      1  0.5263480000000  0.4922270000000  0.5131350000000 1.0
C      1  0.5920870000000  0.5275220000000  0.5505770000000 1.0
C      1  0.5858300000000  0.4196960000000  0.4655040000000 1.0
C      1  0.4527380000000  0.5089420000000  0.5039230000000 1.0
C      1  0.4914630000000  0.5005070000000  0.3853140000000 1.0
C      1  0.4694380000000  0.4096960000000  0.5640220000000 1.0
C      1  0.5109140000000  0.5161930000000  0.5052530000000 1.0
C      1  0.4834570000000  0.4949020000000  0.6128630000000 1.0
C      1  0.5159660000000  0.4067140000000  0.5230660000000 1.0
C      1  0.4781350000000  0.5217860000000  0.6080010000000 1.0
C      1  0.5935190000000  0.4983000000000  0.5549940000000 1.0
C      1  0.5667160000000  0.5815290000000  0.5394740000000 1.0
C      1  0.3998580000000  0.5236020000000  0.4832660000000 1.0
C      1  0.4666740000000  0.5934020000000  0.4895770000000 1.0
C      1  0.5751690000000  0.5537260000000  0.4477070000000 1.0
END
