TITL C-950536-5891-441 -4.20269385997654e-06 125000 -1223.91772692988 0 0 194 (C1) n - 1
REM
REM in /home/bkarasulu/work/CARBON/AIRSS/Generating-Clusters/EDIP-Nigel-Params/with-SteepDescent/Only-C1/SD-CG/HFTN-CG
REM
REM
REM
REM
REM
REM ./C.cell (11c1c37f851c82e70ff6c80c92926a4b)
REM
REM compiler GCC version 9.2.1 20190827 (Red Hat 9.2.1-1)
REM options -cpp -mtune=generic -march=x86-64 -g -O0 -fpre-include=/usr/include/finclude/math-vector-fortran.h
REM seed -817506287 -1971625550 -1813551415 858343019 -1285338601 -27236963 -1538997855 -800593351 324504081 785015998 903912811 -516028516 -1822342284 -582021042 -1040146351 -1029300483 179918201 1007012474 -1025235591 -223408500 -1997465586 675121226 460797644 1290355181 -1899052619 1215132629 -1030815235 1474605503 4096327 -1232842585 246151380 880130652 -436305350
REM
CELL 1.54180   50.00000   50.00000   50.00000   90.00000   90.00000   90.00000
LATT -1
SFAC C  
C      1  0.5600180000000  0.5146440000000  0.4007220000000 1.0
C      1  0.4596520000000  0.4877290000000  0.6152360000000 1.0
C      1  0.5303950000000  0.4618620000000  0.4459670000000 1.0
C      1  0.5466440000000  0.6092510000000  0.4688460000000 1.0
C      1  0.4215240000000  0.5505650000000  0.4954320000000 1.0
C      1  0.6160740000000  0.5123140000000  0.4705040000000 1.0
C      1  0.3823780000000  0.5016930000000  0.4543950000000 1.0
C      1  0.4872650000000  0.3835840000000  0.5360070000000 1.0
C      1  0.5693250000000  0.5785240000000  0.5452290000000 1.0
C      1  0.5748350000000  0.4154280000000  0.5479300000000 1.0
C      1  0.4405180000000  0.5017310000000  0.5066190000000 1.0
C      1  0.5221540000000  0.5851710000000  0.4295030000000 1.0
C      1  0.5515260000000  0.5345680000000  0.4535940000000 1.0
C      1  0.6011810000000  0.5576610000000  0.4638250000000 1.0
C      1  0.4459000000000  0.5849280000000  0.5415490000000 1.0
C      1  0.5491710000000  0.4032850000000  0.5349520000000 1.0
C      1  0.5717850000000  0.4006640000000  0.4689280000000 1.0
C      1  0.5868600000000  0.5568630000000  0.5509090000000 1.0
C      1  0.5070530000000  0.4389510000000  0.4857040000000 1.0
C      1  0.4885000000000  0.4198340000000  0.5767490000000 1.0
C      1  0.5818880000000  0.5725870000000  0.4463800000000 1.0
C      1  0.4349140000000  0.5284520000000  0.4066220000000 1.0
C      1  0.5161520000000  0.5552100000000  0.5258290000000 1.0
C      1  0.4797970000000  0.5338120000000  0.5933050000000 1.0
C      1  0.4020970000000  0.4980430000000  0.4346850000000 1.0
C      1  0.4659600000000  0.3964340000000  0.5067160000000 1.0
C      1  0.5849530000000  0.5223600000000  0.5684300000000 1.0
C      1  0.5005020000000  0.6171000000000  0.4936910000000 1.0
C      1  0.4857310000000  0.5572330000000  0.5286590000000 1.0
C      1  0.4632220000000  0.3984020000000  0.4489830000000 1.0
C      1  0.5098340000000  0.3926800000000  0.4431830000000 1.0
C      1  0.5699700000000  0.5341960000000  0.5465180000000 1.0
C      1  0.3850020000000  0.4581930000000  0.4920090000000 1.0
C      1  0.4732540000000  0.5766440000000  0.5508450000000 1.0
C      1  0.5122260000000  0.3960490000000  0.5249450000000 1.0
C      1  0.4771570000000  0.5789420000000  0.4410440000000 1.0
C      1  0.4386420000000  0.4087580000000  0.4923590000000 1.0
C      1  0.4718090000000  0.4228420000000  0.5221210000000 1.0
C      1  0.4900470000000  0.5635120000000  0.4648390000000 1.0
C      1  0.5859780000000  0.4454780000000  0.4552770000000 1.0
C      1  0.4847320000000  0.4683120000000  0.5099210000000 1.0
C      1  0.4313070000000  0.4295730000000  0.4463870000000 1.0
C      1  0.5870100000000  0.4066220000000  0.4917810000000 1.0
C      1  0.5619490000000  0.5086910000000  0.4802360000000 1.0
C      1  0.5641840000000  0.5136540000000  0.5262780000000 1.0
C      1  0.4572370000000  0.5192290000000  0.5466100000000 1.0
C      1  0.5443010000000  0.4664200000000  0.4007760000000 1.0
C      1  0.5478160000000  0.4252000000000  0.5114620000000 1.0
C      1  0.4501760000000  0.5448180000000  0.4874990000000 1.0
C      1  0.5753280000000  0.4290350000000  0.5027890000000 1.0
C      1  0.3984050000000  0.5223130000000  0.5270550000000 1.0
C      1  0.4662010000000  0.5276680000000  0.4437890000000 1.0
C      1  0.5157570000000  0.4224230000000  0.5890390000000 1.0
C      1  0.4417550000000  0.5557800000000  0.5756020000000 1.0
C      1  0.4201750000000  0.4735890000000  0.4356600000000 1.0
C      1  0.4578840000000  0.5321760000000  0.6141140000000 1.0
C      1  0.3964770000000  0.5046460000000  0.5007350000000 1.0
C      1  0.5260940000000  0.5211080000000  0.4471730000000 1.0
C      1  0.4230410000000  0.4935440000000  0.4845440000000 1.0
C      1  0.4938020000000  0.4536440000000  0.5578560000000 1.0
C      1  0.5629520000000  0.4265830000000  0.4604200000000 1.0
C      1  0.4490140000000  0.4705140000000  0.5436610000000 1.0
C      1  0.4708890000000  0.6056240000000  0.4544150000000 1.0
C      1  0.4715800000000  0.5615240000000  0.5790040000000 1.0
C      1  0.5310200000000  0.5211760000000  0.3982840000000 1.0
C      1  0.5939570000000  0.5177290000000  0.4901780000000 1.0
C      1  0.6116680000000  0.4867790000000  0.4575250000000 1.0
C      1  0.6029180000000  0.5224830000000  0.4252780000000 1.0
C      1  0.4095280000000  0.5462470000000  0.4483170000000 1.0
C      1  0.5072960000000  0.4709150000000  0.6040110000000 1.0
C      1  0.5579760000000  0.5767960000000  0.5186790000000 1.0
C      1  0.3927690000000  0.4764940000000  0.5378790000000 1.0
C      1  0.4463060000000  0.5571790000000  0.4063710000000 1.0
C      1  0.5833960000000  0.4498830000000  0.4250750000000 1.0
C      1  0.5200110000000  0.5268860000000  0.4995890000000 1.0
C      1  0.4147210000000  0.5880350000000  0.5002780000000 1.0
C      1  0.4388290000000  0.5420840000000  0.5489480000000 1.0
C      1  0.5415160000000  0.5672840000000  0.4158050000000 1.0
C      1  0.5294650000000  0.4172370000000  0.4879460000000 1.0
C      1  0.5200770000000  0.5112730000000  0.5460990000000 1.0
C      1  0.5310830000000  0.4223320000000  0.5626880000000 1.0
C      1  0.4965240000000  0.5554590000000  0.4053020000000 1.0
C      1  0.4037110000000  0.4910090000000  0.5823340000000 1.0
C      1  0.4305810000000  0.5654870000000  0.4534970000000 1.0
C      1  0.4575950000000  0.5100370000000  0.6315090000000 1.0
C      1  0.5915780000000  0.4705180000000  0.5532340000000 1.0
C      1  0.5457850000000  0.4928140000000  0.5385850000000 1.0
C      1  0.4973340000000  0.4976930000000  0.5623380000000 1.0
C      1  0.4056350000000  0.4518630000000  0.5490330000000 1.0
C      1  0.4643100000000  0.5186890000000  0.3960750000000 1.0
C      1  0.4565620000000  0.5985910000000  0.4795540000000 1.0
C      1  0.5295330000000  0.5828720000000  0.5197350000000 1.0
C      1  0.4211870000000  0.5213310000000  0.4347840000000 1.0
C      1  0.5381890000000  0.5872840000000  0.5649600000000 1.0
C      1  0.4732640000000  0.4395290000000  0.4350420000000 1.0
C      1  0.4773800000000  0.4872030000000  0.4874430000000 1.0
C      1  0.4508920000000  0.4241060000000  0.5436520000000 1.0
C      1  0.5014930000000  0.4899520000000  0.4717210000000 1.0
C      1  0.5245350000000  0.5501220000000  0.3980930000000 1.0
C      1  0.4291260000000  0.5883660000000  0.4744370000000 1.0
C      1  0.4086830000000  0.5010640000000  0.5457780000000 1.0
C      1  0.4486900000000  0.4819990000000  0.4444820000000 1.0
C      1  0.5160770000000  0.4399650000000  0.5432540000000 1.0
C      1  0.4516280000000  0.4929230000000  0.5873500000000 1.0
C      1  0.4148220000000  0.4641030000000  0.5753770000000 1.0
C      1  0.5447350000000  0.5472500000000  0.5952880000000 1.0
C      1  0.5569170000000  0.4418330000000  0.4136500000000 1.0
C      1  0.4540740000000  0.5589040000000  0.4354190000000 1.0
C      1  0.5219640000000  0.4679300000000  0.4737040000000 1.0
C      1  0.5687640000000  0.5920070000000  0.4631920000000 1.0
C      1  0.5156900000000  0.5080810000000  0.4214740000000 1.0
C      1  0.5197040000000  0.4445870000000  0.6063760000000 1.0
C      1  0.5415500000000  0.4348910000000  0.4386060000000 1.0
C      1  0.4802110000000  0.5103210000000  0.4205050000000 1.0
C      1  0.4819600000000  0.5755580000000  0.5069960000000 1.0
C      1  0.4125100000000  0.4597100000000  0.4829580000000 1.0
C      1  0.4964260000000  0.6183620000000  0.4631970000000 1.0
C      1  0.4912460000000  0.6025850000000  0.5433210000000 1.0
C      1  0.5228790000000  0.6077030000000  0.4498690000000 1.0
C      1  0.4868190000000  0.3868410000000  0.4581800000000 1.0
C      1  0.4798980000000  0.6044850000000  0.5119440000000 1.0
C      1  0.5990980000000  0.4664460000000  0.4745550000000 1.0
C      1  0.4266680000000  0.5086350000000  0.5853750000000 1.0
C      1  0.4128230000000  0.4511740000000  0.4536980000000 1.0
C      1  0.5093590000000  0.5179210000000  0.4706700000000 1.0
C      1  0.5042180000000  0.5128190000000  0.5212540000000 1.0
C      1  0.4576430000000  0.4438090000000  0.4787920000000 1.0
C      1  0.4540510000000  0.4054410000000  0.5650000000000 1.0
C      1  0.5598610000000  0.5220760000000  0.5880000000000 1.0
C      1  0.4331590000000  0.5357370000000  0.5973510000000 1.0
C      1  0.5915490000000  0.5483610000000  0.4913590000000 1.0
C      1  0.5981690000000  0.4992210000000  0.5498030000000 1.0
C      1  0.3833490000000  0.4794220000000  0.5098530000000 1.0
C      1  0.5507190000000  0.5264410000000  0.5024380000000 1.0
C      1  0.4719020000000  0.4819280000000  0.4238690000000 1.0
C      1  0.4717460000000  0.5478140000000  0.3914360000000 1.0
C      1  0.4774040000000  0.5268460000000  0.5242000000000 1.0
C      1  0.4959410000000  0.4312480000000  0.4169820000000 1.0
C      1  0.5641160000000  0.5532240000000  0.4305150000000 1.0
C      1  0.4380040000000  0.4973660000000  0.5358460000000 1.0
C      1  0.5993660000000  0.4948940000000  0.4328370000000 1.0
C      1  0.5084280000000  0.5248130000000  0.6076350000000 1.0
C      1  0.4819420000000  0.4716970000000  0.6171690000000 1.0
C      1  0.5995240000000  0.4554720000000  0.5288050000000 1.0
C      1  0.4581170000000  0.4717410000000  0.4704760000000 1.0
C      1  0.5628890000000  0.4660450000000  0.5608440000000 1.0
C      1  0.4791080000000  0.4727930000000  0.5389210000000 1.0
C      1  0.5196400000000  0.5744780000000  0.4718290000000 1.0
C      1  0.6013230000000  0.4727070000000  0.5050680000000 1.0
C      1  0.5668180000000  0.4858500000000  0.3978090000000 1.0
C      1  0.5789810000000  0.5348150000000  0.4122120000000 1.0
C      1  0.5157950000000  0.3913590000000  0.4958330000000 1.0
C      1  0.5219930000000  0.4759680000000  0.4206670000000 1.0
C      1  0.5593910000000  0.4753850000000  0.5875270000000 1.0
C      1  0.4680270000000  0.5693160000000  0.4844930000000 1.0
C      1  0.5478870000000  0.5603190000000  0.4713810000000 1.0
C      1  0.4802850000000  0.3928450000000  0.5630710000000 1.0
C      1  0.5627320000000  0.5545970000000  0.4977050000000 1.0
C      1  0.5376230000000  0.4763190000000  0.5156820000000 1.0
C      1  0.4471350000000  0.4326220000000  0.4233340000000 1.0
C      1  0.5049780000000  0.4731390000000  0.5752280000000 1.0
C      1  0.5309060000000  0.5598840000000  0.5723210000000 1.0
C      1  0.5588410000000  0.4351320000000  0.5640190000000 1.0
C      1  0.5263880000000  0.5444110000000  0.6165580000000 1.0
C      1  0.4885170000000  0.3921890000000  0.4861110000000 1.0
C      1  0.4960870000000  0.5803550000000  0.4189810000000 1.0
C      1  0.4419250000000  0.5099670000000  0.4546450000000 1.0
C      1  0.4806120000000  0.4294100000000  0.4651490000000 1.0
C      1  0.5028730000000  0.4245840000000  0.5217860000000 1.0
C      1  0.4629960000000  0.5193460000000  0.4984350000000 1.0
C      1  0.5388630000000  0.4502260000000  0.5272170000000 1.0
C      1  0.5219260000000  0.4976270000000  0.6083080000000 1.0
C      1  0.5178590000000  0.4168360000000  0.4309090000000 1.0
C      1  0.4255860000000  0.4371400000000  0.5019230000000 1.0
C      1  0.5265000000000  0.5414430000000  0.5498380000000 1.0
C      1  0.4159200000000  0.5475110000000  0.5280900000000 1.0
C      1  0.5473160000000  0.4806130000000  0.4880770000000 1.0
C      1  0.5501070000000  0.4978730000000  0.6003370000000 1.0
C      1  0.4721180000000  0.5112830000000  0.5729070000000 1.0
C      1  0.3832090000000  0.5175270000000  0.4777410000000 1.0
C      1  0.4313360000000  0.4449970000000  0.5330280000000 1.0
C      1  0.4863330000000  0.5342520000000  0.4640090000000 1.0
C      1  0.5230150000000  0.5971000000000  0.4929890000000 1.0
C      1  0.3990940000000  0.5422190000000  0.4749840000000 1.0
C      1  0.5896960000000  0.4761340000000  0.4138100000000 1.0
C      1  0.4950030000000  0.4635680000000  0.4130780000000 1.0
C      1  0.5928050000000  0.4261290000000  0.5254710000000 1.0
C      1  0.5221590000000  0.6000760000000  0.5430720000000 1.0
C      1  0.4443620000000  0.4681580000000  0.5728580000000 1.0
C      1  0.6144900000000  0.5344260000000  0.4503690000000 1.0
C      1  0.5998450000000  0.5006940000000  0.5163670000000 1.0
C      1  0.4208270000000  0.5790320000000  0.5281000000000 1.0
C      1  0.4395120000000  0.4069760000000  0.4626840000000 1.0
C      1  0.4682580000000  0.4460780000000  0.5052620000000 1.0
END
