TITL C-951335-1172-167 -3.60900638505333e-06 125000 -379.050848965369 0 0 63 (C1) n - 1
REM
REM in /home/bkarasulu/work/CARBON/AIRSS/Generating-Clusters/EDIP-Nigel-Params/with-SteepDescent/Only-C1/SD-CG/HFTN-CG
REM
REM
REM
REM
REM
REM ./C.cell (11c1c37f851c82e70ff6c80c92926a4b)
REM
REM compiler GCC version 9.2.1 20190827 (Red Hat 9.2.1-1)
REM options -cpp -mtune=generic -march=x86-64 -g -O0 -fpre-include=/usr/include/finclude/math-vector-fortran.h
REM seed -1726660337 873078937 -374778915 -1846732241 232307567 1841972046 -1028054844 1092029263 2131347611 -1386370183 -1349062899 1881869958 -680066290 -1848210869 135999596 -1588126583 -1754702966 335356469 747879592 -558192245 -24333778 -966763138 -471758614 -1357042873 2126654949 693873036 1152341294 -1262391071 651025020 1500502014 141787830 534822784 -860858055
REM
CELL 1.54180   50.00000   50.00000   50.00000   90.00000   90.00000   90.00000
LATT -1
SFAC C  
C      1  0.5003460000000  0.5453520000000  0.4463270000000 1.0
C      1  0.4546970000000  0.5260830000000  0.4515050000000 1.0
C      1  0.4794490000000  0.5195310000000  0.4815090000000 1.0
C      1  0.4382730000000  0.4578010000000  0.5107890000000 1.0
C      1  0.5479910000000  0.4538150000000  0.5387830000000 1.0
C      1  0.5098670000000  0.4554960000000  0.5371800000000 1.0
C      1  0.5602500000000  0.5121520000000  0.4904320000000 1.0
C      1  0.5218600000000  0.5013400000000  0.4591670000000 1.0
C      1  0.5714340000000  0.4744170000000  0.4647550000000 1.0
C      1  0.5277160000000  0.4908540000000  0.4885130000000 1.0
C      1  0.4795760000000  0.4470430000000  0.5361340000000 1.0
C      1  0.4821750000000  0.5225760000000  0.4380370000000 1.0
C      1  0.5638000000000  0.4737090000000  0.5244870000000 1.0
C      1  0.4378280000000  0.5004010000000  0.5007910000000 1.0
C      1  0.5088300000000  0.4419510000000  0.4966500000000 1.0
C      1  0.4662730000000  0.4480070000000  0.5104030000000 1.0
C      1  0.5362890000000  0.4395730000000  0.4698600000000 1.0
C      1  0.4880270000000  0.5479700000000  0.5239010000000 1.0
C      1  0.4485390000000  0.5494990000000  0.5038130000000 1.0
C      1  0.4341450000000  0.5025140000000  0.4558040000000 1.0
C      1  0.4865410000000  0.5636700000000  0.4668770000000 1.0
C      1  0.5076220000000  0.4814210000000  0.5541800000000 1.0
C      1  0.4834880000000  0.4738040000000  0.4397910000000 1.0
C      1  0.4863690000000  0.4867940000000  0.5121480000000 1.0
C      1  0.5389300000000  0.4340520000000  0.5195290000000 1.0
C      1  0.5634670000000  0.5010960000000  0.5355580000000 1.0
C      1  0.4711510000000  0.4372290000000  0.4649390000000 1.0
C      1  0.4805410000000  0.4328610000000  0.4904640000000 1.0
C      1  0.4638250000000  0.5202600000000  0.5609170000000 1.0
C      1  0.5639980000000  0.4682470000000  0.4949530000000 1.0
C      1  0.4949230000000  0.4979630000000  0.4467720000000 1.0
C      1  0.5425810000000  0.4870350000000  0.4413650000000 1.0
C      1  0.5135890000000  0.5301940000000  0.5620050000000 1.0
C      1  0.5528680000000  0.5008810000000  0.5618640000000 1.0
C      1  0.5176350000000  0.5092930000000  0.5139850000000 1.0
C      1  0.5481760000000  0.5191690000000  0.5162740000000 1.0
C      1  0.4812620000000  0.4904220000000  0.5443080000000 1.0
C      1  0.4649240000000  0.5658940000000  0.5202430000000 1.0
C      1  0.4870750000000  0.5339890000000  0.5505830000000 1.0
C      1  0.4689910000000  0.4660440000000  0.4631900000000 1.0
C      1  0.5067130000000  0.4709500000000  0.4962880000000 1.0
C      1  0.5490870000000  0.5489710000000  0.5213260000000 1.0
C      1  0.4375660000000  0.4748130000000  0.5353810000000 1.0
C      1  0.5252440000000  0.5040130000000  0.5571930000000 1.0
C      1  0.5086170000000  0.5716410000000  0.4867990000000 1.0
C      1  0.4234950000000  0.4672230000000  0.4855860000000 1.0
C      1  0.5310670000000  0.5523290000000  0.5558690000000 1.0
C      1  0.5678400000000  0.5035000000000  0.4477670000000 1.0
C      1  0.4623400000000  0.5454340000000  0.4764710000000 1.0
C      1  0.4624490000000  0.4677600000000  0.5501430000000 1.0
C      1  0.4661550000000  0.4938680000000  0.4900950000000 1.0
C      1  0.4403850000000  0.4731360000000  0.4607690000000 1.0
C      1  0.4428440000000  0.5110600000000  0.5435530000000 1.0
C      1  0.5493850000000  0.4569910000000  0.4502510000000 1.0
C      1  0.4173790000000  0.5053830000000  0.4796390000000 1.0
C      1  0.5299600000000  0.5692020000000  0.5320480000000 1.0
C      1  0.4403240000000  0.5240770000000  0.5176080000000 1.0
C      1  0.5275870000000  0.5330740000000  0.4597240000000 1.0
C      1  0.5214940000000  0.5451020000000  0.4870360000000 1.0
C      1  0.5589140000000  0.5256740000000  0.4649630000000 1.0
C      1  0.5523820000000  0.4412120000000  0.4938180000000 1.0
C      1  0.5029560000000  0.5741070000000  0.5171760000000 1.0
C      1  0.5004920000000  0.5300820000000  0.5017150000000 1.0
END
