TITL C-950536-5891-40 3.58640764542081e-07 125000 -822.933722673191 0 0 132 (C1) n - 1
REM
REM in /home/bkarasulu/work/CARBON/AIRSS/Generating-Clusters/EDIP-Nigel-Params/with-SteepDescent/Only-C1/SD-CG/HFTN-CG
REM
REM
REM
REM
REM
REM ./C.cell (11c1c37f851c82e70ff6c80c92926a4b)
REM
REM compiler GCC version 9.2.1 20190827 (Red Hat 9.2.1-1)
REM options -cpp -mtune=generic -march=x86-64 -g -O0 -fpre-include=/usr/include/finclude/math-vector-fortran.h
REM seed -1796567773 -455616435 1312869105 1748389522 -1006094004 -1664866311 880570420 632550009 89009616 -1844212166 1193817944 -161738730 2142987848 -1581730025 1209124485 160641646 476247971 -90181499 -2138871990 406543335 1517949208 1356058116 -1227292667 1579571111 -555550100 497616855 -1354511199 1164002908 1566339072 -1831948542 -75363236 -449346630 -99210965
REM
CELL 1.54180   50.00000   50.00000   50.00000   90.00000   90.00000   90.00000
LATT -1
SFAC C  
C      1  0.5549360000000  0.5275240000000  0.4789710000000 1.0
C      1  0.4607220000000  0.5123440000000  0.4707170000000 1.0
C      1  0.4883340000000  0.4062090000000  0.4915870000000 1.0
C      1  0.4084120000000  0.4728530000000  0.5195980000000 1.0
C      1  0.4204340000000  0.5609060000000  0.4898440000000 1.0
C      1  0.4123260000000  0.5340960000000  0.4806700000000 1.0
C      1  0.4669090000000  0.5082480000000  0.4411540000000 1.0
C      1  0.5214940000000  0.5223520000000  0.6126780000000 1.0
C      1  0.4462440000000  0.4679410000000  0.5611720000000 1.0
C      1  0.5388510000000  0.5765290000000  0.5200310000000 1.0
C      1  0.4106450000000  0.4445880000000  0.4664620000000 1.0
C      1  0.4738330000000  0.5258580000000  0.5976100000000 1.0
C      1  0.5677200000000  0.4489220000000  0.4999670000000 1.0
C      1  0.4853880000000  0.4472710000000  0.5824800000000 1.0
C      1  0.5154070000000  0.4930200000000  0.4182100000000 1.0
C      1  0.5741830000000  0.5191470000000  0.5495720000000 1.0
C      1  0.4044100000000  0.4446360000000  0.5177770000000 1.0
C      1  0.4427430000000  0.4099260000000  0.4816010000000 1.0
C      1  0.5077660000000  0.4245480000000  0.5048180000000 1.0
C      1  0.4984630000000  0.5725010000000  0.4527810000000 1.0
C      1  0.4942360000000  0.5045300000000  0.5165180000000 1.0
C      1  0.5073600000000  0.5332090000000  0.5684260000000 1.0
C      1  0.4995960000000  0.6023720000000  0.5117890000000 1.0
C      1  0.4611140000000  0.5733310000000  0.5088980000000 1.0
C      1  0.5452300000000  0.4911900000000  0.4284500000000 1.0
C      1  0.4621350000000  0.4087220000000  0.5034260000000 1.0
C      1  0.5177770000000  0.5192050000000  0.5065320000000 1.0
C      1  0.4946190000000  0.4741970000000  0.5946250000000 1.0
C      1  0.4867090000000  0.4134540000000  0.4630870000000 1.0
C      1  0.5257360000000  0.4758670000000  0.5461380000000 1.0
C      1  0.5475370000000  0.5579760000000  0.4871460000000 1.0
C      1  0.5127980000000  0.5209930000000  0.4579000000000 1.0
C      1  0.5463660000000  0.4703540000000  0.5002920000000 1.0
C      1  0.5391580000000  0.5512740000000  0.5635830000000 1.0
C      1  0.4979540000000  0.4997630000000  0.4433870000000 1.0
C      1  0.5238900000000  0.5927430000000  0.5021300000000 1.0
C      1  0.5297550000000  0.5102350000000  0.4787980000000 1.0
C      1  0.5504740000000  0.4084550000000  0.5190000000000 1.0
C      1  0.4581110000000  0.4680150000000  0.4269970000000 1.0
C      1  0.5696510000000  0.5164990000000  0.5031900000000 1.0
C      1  0.5778200000000  0.4456400000000  0.5283040000000 1.0
C      1  0.5170250000000  0.4162200000000  0.4590180000000 1.0
C      1  0.4758570000000  0.4683710000000  0.4047280000000 1.0
C      1  0.5347350000000  0.5114920000000  0.5304600000000 1.0
C      1  0.4221850000000  0.5267020000000  0.4540540000000 1.0
C      1  0.4760580000000  0.5471940000000  0.5053350000000 1.0
C      1  0.5527240000000  0.4728870000000  0.4510900000000 1.0
C      1  0.5018440000000  0.5350370000000  0.5976010000000 1.0
C      1  0.4733640000000  0.4969690000000  0.5864590000000 1.0
C      1  0.5127800000000  0.5037930000000  0.5568690000000 1.0
C      1  0.5034240000000  0.4667530000000  0.4095550000000 1.0
C      1  0.4580130000000  0.4428830000000  0.5701770000000 1.0
C      1  0.5749470000000  0.5685670000000  0.4955290000000 1.0
C      1  0.5956930000000  0.5031510000000  0.4981630000000 1.0
C      1  0.5250800000000  0.5841300000000  0.4508650000000 1.0
C      1  0.4670720000000  0.4791950000000  0.5413350000000 1.0
C      1  0.5584620000000  0.5332710000000  0.4080860000000 1.0
C      1  0.5107600000000  0.5388560000000  0.4094480000000 1.0
C      1  0.4898740000000  0.4513190000000  0.5149470000000 1.0
C      1  0.4396970000000  0.4468340000000  0.5025610000000 1.0
C      1  0.4720980000000  0.5249170000000  0.5259670000000 1.0
C      1  0.5719510000000  0.5715900000000  0.4440340000000 1.0
C      1  0.4382930000000  0.4883990000000  0.4255580000000 1.0
C      1  0.4566000000000  0.4177920000000  0.4572360000000 1.0
C      1  0.5486850000000  0.4460630000000  0.4417080000000 1.0
C      1  0.5272960000000  0.4294010000000  0.4831650000000 1.0
C      1  0.4355500000000  0.5736430000000  0.4682710000000 1.0
C      1  0.4194240000000  0.4746060000000  0.4701500000000 1.0
C      1  0.4249220000000  0.4968900000000  0.4492140000000 1.0
C      1  0.4994330000000  0.4591860000000  0.5429610000000 1.0
C      1  0.5372410000000  0.5495070000000  0.4163790000000 1.0
C      1  0.5681310000000  0.4676040000000  0.5703070000000 1.0
C      1  0.4872520000000  0.4799620000000  0.5001760000000 1.0
C      1  0.4577860000000  0.4276490000000  0.5466420000000 1.0
C      1  0.5880860000000  0.4555310000000  0.4805360000000 1.0
C      1  0.5333360000000  0.4794190000000  0.4747630000000 1.0
C      1  0.5831360000000  0.5615420000000  0.5216850000000 1.0
C      1  0.4169940000000  0.4946530000000  0.5412530000000 1.0
C      1  0.5901460000000  0.4949780000000  0.5358470000000 1.0
C      1  0.5618530000000  0.5148520000000  0.4291720000000 1.0
C      1  0.5122230000000  0.5500740000000  0.5008200000000 1.0
C      1  0.4578280000000  0.5864320000000  0.4814660000000 1.0
C      1  0.5370160000000  0.5083810000000  0.5934930000000 1.0
C      1  0.4058870000000  0.4314480000000  0.4923770000000 1.0
C      1  0.4333760000000  0.5636660000000  0.5177470000000 1.0
C      1  0.5116020000000  0.5134510000000  0.3978670000000 1.0
C      1  0.5042870000000  0.4301480000000  0.5685810000000 1.0
C      1  0.5505600000000  0.5237530000000  0.5690510000000 1.0
C      1  0.5751290000000  0.5232440000000  0.4555490000000 1.0
C      1  0.4503840000000  0.4995190000000  0.5216440000000 1.0
C      1  0.4139950000000  0.5132830000000  0.4998440000000 1.0
C      1  0.5259300000000  0.4312260000000  0.4354050000000 1.0
C      1  0.4357170000000  0.5340850000000  0.5643350000000 1.0
C      1  0.4391060000000  0.5476230000000  0.4411000000000 1.0
C      1  0.4625560000000  0.4341440000000  0.5187780000000 1.0
C      1  0.4675020000000  0.4607130000000  0.4553520000000 1.0
C      1  0.5551080000000  0.4919330000000  0.5190300000000 1.0
C      1  0.4997440000000  0.5458430000000  0.4680720000000 1.0
C      1  0.5924100000000  0.5010930000000  0.4682230000000 1.0
C      1  0.5442830000000  0.5664740000000  0.4388310000000 1.0
C      1  0.5633000000000  0.4237990000000  0.5403270000000 1.0
C      1  0.5268150000000  0.4274190000000  0.5512710000000 1.0
C      1  0.4984450000000  0.4726150000000  0.4597910000000 1.0
C      1  0.5710940000000  0.5362980000000  0.5256470000000 1.0
C      1  0.4833550000000  0.4971680000000  0.5585760000000 1.0
C      1  0.4256990000000  0.5060770000000  0.5703980000000 1.0
C      1  0.4612490000000  0.5434510000000  0.5762070000000 1.0
C      1  0.5895160000000  0.5497370000000  0.4512900000000 1.0
C      1  0.4627130000000  0.5351910000000  0.4284020000000 1.0
C      1  0.4296360000000  0.4291150000000  0.4502270000000 1.0
C      1  0.4811050000000  0.5871900000000  0.5263320000000 1.0
C      1  0.5817900000000  0.4747160000000  0.4610020000000 1.0
C      1  0.5225860000000  0.4116370000000  0.5273500000000 1.0
C      1  0.4472770000000  0.4666090000000  0.4796180000000 1.0
C      1  0.5316100000000  0.5958730000000  0.4754830000000 1.0
C      1  0.4857410000000  0.5480270000000  0.4184650000000 1.0
C      1  0.4124800000000  0.5201480000000  0.5269780000000 1.0
C      1  0.5813310000000  0.4687480000000  0.5457610000000 1.0
C      1  0.4067320000000  0.4864920000000  0.4942680000000 1.0
C      1  0.5036090000000  0.4494110000000  0.4329780000000 1.0
C      1  0.4820070000000  0.5433780000000  0.5539040000000 1.0
C      1  0.4721730000000  0.5384670000000  0.4776270000000 1.0
C      1  0.5948240000000  0.5650430000000  0.4751260000000 1.0
C      1  0.4312900000000  0.5398470000000  0.5354560000000 1.0
C      1  0.5401290000000  0.4649550000000  0.5703220000000 1.0
C      1  0.5261590000000  0.4800340000000  0.5916750000000 1.0
C      1  0.4445810000000  0.4870570000000  0.5837660000000 1.0
C      1  0.5540820000000  0.4231070000000  0.4929010000000 1.0
C      1  0.4596440000000  0.4903190000000  0.4925260000000 1.0
C      1  0.5241080000000  0.5637540000000  0.5411480000000 1.0
C      1  0.4801850000000  0.5897740000000  0.4652460000000 1.0
C      1  0.4950430000000  0.5687650000000  0.5447440000000 1.0
END
