TITL C-950529-3362-642 6.65440837670409e-08 125000 -286.524978883945 0 0 47 (C1) n - 1
REM
REM in /home/bkarasulu/work/CARBON/AIRSS/Generating-Clusters/EDIP-Nigel-Params/with-SteepDescent/Only-C1/SD-CG/HFTN-CG
REM
REM
REM
REM
REM
REM ./C.cell (11c1c37f851c82e70ff6c80c92926a4b)
REM
REM compiler GCC version 9.2.1 20190827 (Red Hat 9.2.1-1)
REM options -cpp -mtune=generic -march=x86-64 -g -O0 -fpre-include=/usr/include/finclude/math-vector-fortran.h
REM seed -1576577375 1292015897 -1843446031 102145319 -2001956859 -1740829233 454220636 881925443 -534228151 -519631129 -1085080924 -1466076401 -367694524 -503013056 478421661 -552602299 872155250 -1768862315 1809203556 741052304 1655397189 1052923605 -1723001226 -24901392 -2126092768 2065627131 -1449210890 -738362134 -238014847 1237528258 -360341233 -1093582342 -251968199
REM
CELL 1.54180   50.00000   50.00000   50.00000   90.00000   90.00000   90.00000
LATT -1
SFAC C  
C      1  0.5386830000000  0.4953850000000  0.5619840000000 1.0
C      1  0.4401600000000  0.5027260000000  0.4896820000000 1.0
C      1  0.4695560000000  0.4412590000000  0.5160640000000 1.0
C      1  0.4398560000000  0.4792070000000  0.5072720000000 1.0
C      1  0.5193760000000  0.4369100000000  0.5058180000000 1.0
C      1  0.4865060000000  0.5170610000000  0.5185370000000 1.0
C      1  0.5000910000000  0.4752660000000  0.5391190000000 1.0
C      1  0.5175220000000  0.4805210000000  0.5143430000000 1.0
C      1  0.5044200000000  0.4852180000000  0.4489130000000 1.0
C      1  0.4330210000000  0.4820570000000  0.5344490000000 1.0
C      1  0.5115010000000  0.5410980000000  0.5641100000000 1.0
C      1  0.5325150000000  0.5259060000000  0.4258300000000 1.0
C      1  0.4897690000000  0.5102620000000  0.4402370000000 1.0
C      1  0.4582540000000  0.5435530000000  0.5209310000000 1.0
C      1  0.5475530000000  0.4758710000000  0.5177660000000 1.0
C      1  0.5260460000000  0.5192630000000  0.5698090000000 1.0
C      1  0.5313020000000  0.4454700000000  0.5535350000000 1.0
C      1  0.5134890000000  0.5091100000000  0.5082410000000 1.0
C      1  0.4623170000000  0.5406090000000  0.4706090000000 1.0
C      1  0.5459640000000  0.5495710000000  0.4795990000000 1.0
C      1  0.5473740000000  0.5127160000000  0.4455710000000 1.0
C      1  0.5353870000000  0.5258260000000  0.5167770000000 1.0
C      1  0.5139760000000  0.4332450000000  0.5337180000000 1.0
C      1  0.5300900000000  0.5501360000000  0.5026800000000 1.0
C      1  0.4993080000000  0.5497380000000  0.5007050000000 1.0
C      1  0.4543800000000  0.4923730000000  0.5470470000000 1.0
C      1  0.4544140000000  0.4551780000000  0.4972840000000 1.0
C      1  0.5323900000000  0.4897340000000  0.4563340000000 1.0
C      1  0.5204230000000  0.4713620000000  0.5616270000000 1.0
C      1  0.4485640000000  0.4702720000000  0.4516730000000 1.0
C      1  0.5618400000000  0.4732250000000  0.4934700000000 1.0
C      1  0.5182970000000  0.4515340000000  0.4811150000000 1.0
C      1  0.4513990000000  0.5299360000000  0.4958080000000 1.0
C      1  0.4874570000000  0.5554950000000  0.4731870000000 1.0
C      1  0.5417480000000  0.4685050000000  0.4742720000000 1.0
C      1  0.5579070000000  0.5310540000000  0.4638910000000 1.0
C      1  0.4947190000000  0.4643240000000  0.4676670000000 1.0
C      1  0.4807830000000  0.4982980000000  0.5413160000000 1.0
C      1  0.5525800000000  0.4976150000000  0.5363140000000 1.0
C      1  0.5062530000000  0.5332770000000  0.4321670000000 1.0
C      1  0.4957410000000  0.5563730000000  0.5486760000000 1.0
C      1  0.4876370000000  0.4468780000000  0.5365120000000 1.0
C      1  0.4624980000000  0.5180950000000  0.4504590000000 1.0
C      1  0.4464580000000  0.4963960000000  0.4618260000000 1.0
C      1  0.4824840000000  0.5595530000000  0.5241910000000 1.0
C      1  0.5020750000000  0.5552630000000  0.4490930000000 1.0
C      1  0.4659170000000  0.4572750000000  0.4697730000000 1.0
END
