TITL C-950531-5884-673 -6.62543583390801e-06 125000 -913.479666647439 0 0 147 (C1) n - 1
REM
REM in /home/bkarasulu/work/CARBON/AIRSS/Generating-Clusters/EDIP-Nigel-Params/with-SteepDescent/Only-C1/SD-CG/HFTN-CG
REM
REM
REM
REM
REM
REM ./C.cell (11c1c37f851c82e70ff6c80c92926a4b)
REM
REM compiler GCC version 9.2.1 20190827 (Red Hat 9.2.1-1)
REM options -cpp -mtune=generic -march=x86-64 -g -O0 -fpre-include=/usr/include/finclude/math-vector-fortran.h
REM seed -1056701791 1750422247 -143469166 970647706 1228024044 -560894429 347716694 -112701252 -1329315561 -183012716 -1173420654 -221391058 -897096157 801855242 526050696 -1694758627 1063256529 -413850375 1971841791 1037470858 -1183932007 1849631305 -1183743862 1750663102 353695551 -1196504610 1727235690 239311618 -960656870 -33168085 1381586881 279670808 1600207529
REM
CELL 1.54180   50.00000   50.00000   50.00000   90.00000   90.00000   90.00000
LATT -1
SFAC C  
C      1  0.4387600000000  0.5069900000000  0.5663170000000 1.0
C      1  0.4465280000000  0.4482590000000  0.4363810000000 1.0
C      1  0.5204700000000  0.4214500000000  0.4192230000000 1.0
C      1  0.5635420000000  0.5684720000000  0.5383920000000 1.0
C      1  0.5018570000000  0.4994830000000  0.3868230000000 1.0
C      1  0.5383630000000  0.4878180000000  0.5584990000000 1.0
C      1  0.4651410000000  0.4524470000000  0.5877380000000 1.0
C      1  0.5318400000000  0.5401630000000  0.5594520000000 1.0
C      1  0.5070790000000  0.4102650000000  0.5407150000000 1.0
C      1  0.4237090000000  0.5513550000000  0.4961530000000 1.0
C      1  0.4421160000000  0.5646390000000  0.4796450000000 1.0
C      1  0.5190960000000  0.5820950000000  0.4781400000000 1.0
C      1  0.5234940000000  0.3898440000000  0.5000880000000 1.0
C      1  0.5257850000000  0.4951530000000  0.4239040000000 1.0
C      1  0.6004570000000  0.5018760000000  0.4837670000000 1.0
C      1  0.4680300000000  0.5365790000000  0.4354880000000 1.0
C      1  0.5105070000000  0.4749050000000  0.4035420000000 1.0
C      1  0.4809370000000  0.5951810000000  0.5153030000000 1.0
C      1  0.4831080000000  0.5375630000000  0.4609580000000 1.0
C      1  0.5586060000000  0.4447030000000  0.4446620000000 1.0
C      1  0.5546820000000  0.4925190000000  0.5991110000000 1.0
C      1  0.5493290000000  0.5883910000000  0.5227900000000 1.0
C      1  0.4947500000000  0.4293960000000  0.4804110000000 1.0
C      1  0.4749740000000  0.3883180000000  0.5013770000000 1.0
C      1  0.5514580000000  0.4135500000000  0.5324740000000 1.0
C      1  0.4577230000000  0.5823130000000  0.4418570000000 1.0
C      1  0.5551510000000  0.4918150000000  0.4280010000000 1.0
C      1  0.5020520000000  0.5848530000000  0.4248880000000 1.0
C      1  0.5201990000000  0.5515180000000  0.4811200000000 1.0
C      1  0.4125460000000  0.5229970000000  0.5292340000000 1.0
C      1  0.4253450000000  0.4903600000000  0.4363070000000 1.0
C      1  0.4545910000000  0.4329310000000  0.5124990000000 1.0
C      1  0.5829020000000  0.4721790000000  0.5632210000000 1.0
C      1  0.4394530000000  0.5365320000000  0.4426840000000 1.0
C      1  0.5613990000000  0.4565210000000  0.4718140000000 1.0
C      1  0.5946150000000  0.5036580000000  0.5303040000000 1.0
C      1  0.5897670000000  0.5537140000000  0.4316200000000 1.0
C      1  0.4284370000000  0.5512140000000  0.5809220000000 1.0
C      1  0.5497180000000  0.5366130000000  0.4527130000000 1.0
C      1  0.4598380000000  0.4624450000000  0.4153420000000 1.0
C      1  0.5831760000000  0.4577740000000  0.5167160000000 1.0
C      1  0.4309780000000  0.5469030000000  0.5244800000000 1.0
C      1  0.5918760000000  0.5135700000000  0.4580470000000 1.0
C      1  0.5660050000000  0.4945090000000  0.5686030000000 1.0
C      1  0.4549170000000  0.4078020000000  0.4509170000000 1.0
C      1  0.6004350000000  0.5442070000000  0.5098660000000 1.0
C      1  0.4708580000000  0.5105140000000  0.4207600000000 1.0
C      1  0.5252840000000  0.5121180000000  0.5727670000000 1.0
C      1  0.5411590000000  0.5173090000000  0.6067950000000 1.0
C      1  0.4165020000000  0.4317130000000  0.5123450000000 1.0
C      1  0.4764730000000  0.5670700000000  0.4219510000000 1.0
C      1  0.5100060000000  0.4582260000000  0.5231230000000 1.0
C      1  0.4153030000000  0.5036640000000  0.5052410000000 1.0
C      1  0.4018780000000  0.4775340000000  0.5092270000000 1.0
C      1  0.4559170000000  0.4540350000000  0.5586170000000 1.0
C      1  0.4925660000000  0.5144990000000  0.5105550000000 1.0
C      1  0.5284850000000  0.4457680000000  0.5037770000000 1.0
C      1  0.3918140000000  0.4683720000000  0.4845330000000 1.0
C      1  0.4681510000000  0.4357040000000  0.5400950000000 1.0
C      1  0.4937940000000  0.4674340000000  0.4490090000000 1.0
C      1  0.5119170000000  0.5365800000000  0.4584130000000 1.0
C      1  0.4569960000000  0.4819590000000  0.5244850000000 1.0
C      1  0.5731380000000  0.5430660000000  0.5032730000000 1.0
C      1  0.5104350000000  0.4931060000000  0.4502720000000 1.0
C      1  0.5126880000000  0.5205030000000  0.6078930000000 1.0
C      1  0.5187970000000  0.5185440000000  0.4034510000000 1.0
C      1  0.4005600000000  0.5415490000000  0.4831100000000 1.0
C      1  0.4074220000000  0.5147260000000  0.4779430000000 1.0
C      1  0.4537840000000  0.4950960000000  0.4742080000000 1.0
C      1  0.4936400000000  0.4293080000000  0.4190470000000 1.0
C      1  0.5081090000000  0.4727390000000  0.6124900000000 1.0
C      1  0.4243760000000  0.4626880000000  0.4463460000000 1.0
C      1  0.4872470000000  0.4337290000000  0.5894530000000 1.0
C      1  0.4946400000000  0.4924750000000  0.4913540000000 1.0
C      1  0.4399840000000  0.4092790000000  0.4751600000000 1.0
C      1  0.4136900000000  0.5114560000000  0.5545640000000 1.0
C      1  0.4521300000000  0.4040970000000  0.5016710000000 1.0
C      1  0.4874310000000  0.4989900000000  0.5552910000000 1.0
C      1  0.5781990000000  0.4865910000000  0.5100310000000 1.0
C      1  0.5005270000000  0.5887180000000  0.5356370000000 1.0
C      1  0.4606960000000  0.5056210000000  0.5445880000000 1.0
C      1  0.5505500000000  0.4247740000000  0.5044520000000 1.0
C      1  0.5228380000000  0.4904990000000  0.4795350000000 1.0
C      1  0.4203360000000  0.4296650000000  0.4836720000000 1.0
C      1  0.4099660000000  0.4529360000000  0.4696570000000 1.0
C      1  0.4986980000000  0.4784250000000  0.5749790000000 1.0
C      1  0.5550210000000  0.5255300000000  0.5205220000000 1.0
C      1  0.4723470000000  0.4479880000000  0.4900010000000 1.0
C      1  0.5345430000000  0.4689850000000  0.5984160000000 1.0
C      1  0.4976360000000  0.5415240000000  0.5941480000000 1.0
C      1  0.4452190000000  0.5283190000000  0.5860300000000 1.0
C      1  0.4742310000000  0.4140430000000  0.4326610000000 1.0
C      1  0.5301970000000  0.5403020000000  0.5285760000000 1.0
C      1  0.4734300000000  0.5339700000000  0.5782960000000 1.0
C      1  0.5658660000000  0.5816790000000  0.4729680000000 1.0
C      1  0.4918150000000  0.5951690000000  0.4868580000000 1.0
C      1  0.5204360000000  0.5652360000000  0.4172610000000 1.0
C      1  0.4440550000000  0.4964470000000  0.5019720000000 1.0
C      1  0.4806240000000  0.5518090000000  0.5095710000000 1.0
C      1  0.4609690000000  0.5378590000000  0.5306280000000 1.0
C      1  0.5451680000000  0.4022680000000  0.4863580000000 1.0
C      1  0.4748130000000  0.5076300000000  0.3925340000000 1.0
C      1  0.4338870000000  0.5750640000000  0.5372890000000 1.0
C      1  0.5632020000000  0.5092040000000  0.4501920000000 1.0
C      1  0.5618940000000  0.5477940000000  0.5584520000000 1.0
C      1  0.4483730000000  0.4899960000000  0.4149700000000 1.0
C      1  0.5526600000000  0.4365670000000  0.5516850000000 1.0
C      1  0.4979150000000  0.4369370000000  0.5430260000000 1.0
C      1  0.4681240000000  0.5541730000000  0.5570340000000 1.0
C      1  0.5773030000000  0.4513260000000  0.5456780000000 1.0
C      1  0.4844560000000  0.4695750000000  0.5082300000000 1.0
C      1  0.5355550000000  0.4430120000000  0.5766420000000 1.0
C      1  0.4893470000000  0.4588990000000  0.4196810000000 1.0
C      1  0.5614080000000  0.5574740000000  0.4315490000000 1.0
C      1  0.5310860000000  0.4327730000000  0.4425910000000 1.0
C      1  0.5475080000000  0.4970430000000  0.5090430000000 1.0
C      1  0.4802490000000  0.4764370000000  0.6003600000000 1.0
C      1  0.5264670000000  0.5982370000000  0.5349700000000 1.0
C      1  0.5739830000000  0.4402600000000  0.4944150000000 1.0
C      1  0.5940350000000  0.5434490000000  0.4579310000000 1.0
C      1  0.5129850000000  0.5589140000000  0.5745160000000 1.0
C      1  0.4536410000000  0.5900060000000  0.5227680000000 1.0
C      1  0.5549900000000  0.5837920000000  0.4447000000000 1.0
C      1  0.4203080000000  0.4584870000000  0.5218190000000 1.0
C      1  0.4973440000000  0.4007100000000  0.4902680000000 1.0
C      1  0.5094060000000  0.5405930000000  0.5067100000000 1.0
C      1  0.4720590000000  0.5940150000000  0.4653790000000 1.0
C      1  0.5452150000000  0.5912110000000  0.4925170000000 1.0
C      1  0.4646410000000  0.4667540000000  0.4643800000000 1.0
C      1  0.5276160000000  0.3952720000000  0.5302360000000 1.0
C      1  0.4309180000000  0.5102620000000  0.4581090000000 1.0
C      1  0.5640170000000  0.4653110000000  0.4263690000000 1.0
C      1  0.5051820000000  0.5042260000000  0.5342190000000 1.0
C      1  0.5050910000000  0.5429050000000  0.4103320000000 1.0
C      1  0.5126780000000  0.4459840000000  0.4619560000000 1.0
C      1  0.5274190000000  0.4852590000000  0.5309910000000 1.0
C      1  0.5320190000000  0.4607570000000  0.4794410000000 1.0
C      1  0.4432160000000  0.5689870000000  0.5645660000000 1.0
C      1  0.5749150000000  0.5199280000000  0.5492280000000 1.0
C      1  0.5055470000000  0.4466290000000  0.5705270000000 1.0
C      1  0.6089660000000  0.5175180000000  0.5081180000000 1.0
C      1  0.4348810000000  0.5646700000000  0.4514760000000 1.0
C      1  0.5696790000000  0.5517530000000  0.4749310000000 1.0
C      1  0.4926600000000  0.5713320000000  0.5571050000000 1.0
C      1  0.4715510000000  0.5579480000000  0.4808150000000 1.0
C      1  0.5250900000000  0.5885300000000  0.4479330000000 1.0
C      1  0.4314200000000  0.4643490000000  0.5477830000000 1.0
END
