TITL C-951348-1603-19 -1.33633025983226e-06 125000 -628.426020275263 0 0 102 (C1) n - 1
REM
REM in /home/bkarasulu/work/CARBON/AIRSS/Generating-Clusters/EDIP-Nigel-Params/with-SteepDescent/Only-C1/SD-CG/HFTN-CG
REM
REM
REM
REM
REM
REM ./C.cell (11c1c37f851c82e70ff6c80c92926a4b)
REM
REM compiler GCC version 9.2.1 20190827 (Red Hat 9.2.1-1)
REM options -cpp -mtune=generic -march=x86-64 -g -O0 -fpre-include=/usr/include/finclude/math-vector-fortran.h
REM seed 588269718 -1804524350 -1278020002 691200760 362119686 868392711 1465983403 1254729946 237022830 753428216 340506358 -360444272 -570556661 -1286062884 1827718506 2018149496 2021123506 1331594764 47782808 170896839 -1121791133 -2086631813 575859297 -451978758 517098184 623249300 -1849469112 -230602671 -343906798 -1128715123 -791478307 362815245 -1998464915
REM
CELL 1.54180   50.00000   50.00000   50.00000   90.00000   90.00000   90.00000
LATT -1
SFAC C  
C      1  0.5318900000000  0.5672050000000  0.4930850000000 1.0
C      1  0.5054990000000  0.4211630000000  0.5645870000000 1.0
C      1  0.5513710000000  0.4182280000000  0.5230050000000 1.0
C      1  0.5208540000000  0.4743240000000  0.4217800000000 1.0
C      1  0.4857540000000  0.4586070000000  0.4517180000000 1.0
C      1  0.4142310000000  0.5440640000000  0.5133150000000 1.0
C      1  0.4399930000000  0.4779920000000  0.4642180000000 1.0
C      1  0.5265390000000  0.4371020000000  0.4583240000000 1.0
C      1  0.4973180000000  0.4312350000000  0.4550040000000 1.0
C      1  0.4213070000000  0.4637950000000  0.5470680000000 1.0
C      1  0.4297380000000  0.4894900000000  0.4401120000000 1.0
C      1  0.4239930000000  0.4952500000000  0.5086630000000 1.0
C      1  0.5323410000000  0.5068180000000  0.5432440000000 1.0
C      1  0.5726010000000  0.5606750000000  0.5095050000000 1.0
C      1  0.4732690000000  0.4187630000000  0.5286460000000 1.0
C      1  0.4599620000000  0.5391360000000  0.4402570000000 1.0
C      1  0.4378080000000  0.5248090000000  0.4260710000000 1.0
C      1  0.5730920000000  0.5146980000000  0.5583640000000 1.0
C      1  0.4585810000000  0.5490670000000  0.5726200000000 1.0
C      1  0.4475620000000  0.4985370000000  0.4189350000000 1.0
C      1  0.4405480000000  0.5573190000000  0.5530900000000 1.0
C      1  0.5515850000000  0.4456660000000  0.5362310000000 1.0
C      1  0.5360840000000  0.5380050000000  0.4429780000000 1.0
C      1  0.5810800000000  0.4940040000000  0.5384750000000 1.0
C      1  0.5199190000000  0.5847830000000  0.4744780000000 1.0
C      1  0.5231940000000  0.4072990000000  0.5201420000000 1.0
C      1  0.4130530000000  0.4881620000000  0.5357650000000 1.0
C      1  0.4928940000000  0.5514570000000  0.5354600000000 1.0
C      1  0.4413530000000  0.5022650000000  0.5716350000000 1.0
C      1  0.4751990000000  0.5840370000000  0.4977470000000 1.0
C      1  0.5781860000000  0.5166340000000  0.4493900000000 1.0
C      1  0.5284170000000  0.5361990000000  0.4996620000000 1.0
C      1  0.5735650000000  0.4609250000000  0.5235020000000 1.0
C      1  0.4635890000000  0.5112010000000  0.5411100000000 1.0
C      1  0.5010120000000  0.4166890000000  0.5374580000000 1.0
C      1  0.4982430000000  0.5366970000000  0.4656930000000 1.0
C      1  0.5645560000000  0.5421720000000  0.4550310000000 1.0
C      1  0.5147910000000  0.5026130000000  0.4574130000000 1.0
C      1  0.5058600000000  0.4437290000000  0.5790210000000 1.0
C      1  0.5616340000000  0.4673050000000  0.4474090000000 1.0
C      1  0.4733760000000  0.5806290000000  0.4694370000000 1.0
C      1  0.5726390000000  0.4516360000000  0.4948430000000 1.0
C      1  0.5450170000000  0.5133220000000  0.5682100000000 1.0
C      1  0.4813150000000  0.4623550000000  0.5077910000000 1.0
C      1  0.5928080000000  0.5155130000000  0.4975470000000 1.0
C      1  0.4863370000000  0.4878400000000  0.5358750000000 1.0
C      1  0.4565440000000  0.5202970000000  0.4859020000000 1.0
C      1  0.5258610000000  0.4586450000000  0.5289590000000 1.0
C      1  0.5548710000000  0.4684030000000  0.4771110000000 1.0
C      1  0.4738520000000  0.5726110000000  0.5236100000000 1.0
C      1  0.5033700000000  0.4772600000000  0.4695560000000 1.0
C      1  0.4872120000000  0.4887040000000  0.5803130000000 1.0
C      1  0.5714310000000  0.5503820000000  0.4821720000000 1.0
C      1  0.4460360000000  0.4563220000000  0.5574180000000 1.0
C      1  0.4968670000000  0.5035550000000  0.5125490000000 1.0
C      1  0.5176180000000  0.4048760000000  0.4915480000000 1.0
C      1  0.5406300000000  0.4146890000000  0.4748570000000 1.0
C      1  0.4740860000000  0.5186710000000  0.4589480000000 1.0
C      1  0.5151010000000  0.4809850000000  0.5464840000000 1.0
C      1  0.5481080000000  0.5229740000000  0.5214740000000 1.0
C      1  0.5581410000000  0.4973460000000  0.4834940000000 1.0
C      1  0.5499350000000  0.5792700000000  0.5129490000000 1.0
C      1  0.4673000000000  0.4211600000000  0.4995010000000 1.0
C      1  0.4770950000000  0.4976610000000  0.4209720000000 1.0
C      1  0.4261280000000  0.4727690000000  0.4892980000000 1.0
C      1  0.5700030000000  0.5034120000000  0.5113020000000 1.0
C      1  0.5246870000000  0.4584470000000  0.4800720000000 1.0
C      1  0.5228970000000  0.5236740000000  0.5829890000000 1.0
C      1  0.4596680000000  0.4797300000000  0.5699240000000 1.0
C      1  0.4289960000000  0.5281540000000  0.4755400000000 1.0
C      1  0.4573520000000  0.4334070000000  0.5464210000000 1.0
C      1  0.5103050000000  0.4709810000000  0.5752410000000 1.0
C      1  0.5161670000000  0.5641870000000  0.5461660000000 1.0
C      1  0.4560920000000  0.4491010000000  0.4936470000000 1.0
C      1  0.4900080000000  0.5201420000000  0.4092020000000 1.0
C      1  0.5386120000000  0.5769020000000  0.5385760000000 1.0
C      1  0.5315520000000  0.5020360000000  0.4309660000000 1.0
C      1  0.5606070000000  0.4953250000000  0.4371470000000 1.0
C      1  0.4102220000000  0.5198690000000  0.4966160000000 1.0
C      1  0.5357300000000  0.5167080000000  0.4758360000000 1.0
C      1  0.5053380000000  0.5541830000000  0.4416940000000 1.0
C      1  0.5386990000000  0.4528540000000  0.4348430000000 1.0
C      1  0.4211380000000  0.5110150000000  0.5526400000000 1.0
C      1  0.4928250000000  0.4189240000000  0.4828440000000 1.0
C      1  0.4270360000000  0.5365640000000  0.5383920000000 1.0
C      1  0.5624540000000  0.4229010000000  0.4950600000000 1.0
C      1  0.4954880000000  0.5176850000000  0.5777300000000 1.0
C      1  0.4306260000000  0.5562210000000  0.4803510000000 1.0
C      1  0.4505310000000  0.5780380000000  0.5376840000000 1.0
C      1  0.5090900000000  0.4458450000000  0.5056490000000 1.0
C      1  0.4997430000000  0.5329320000000  0.5108730000000 1.0
C      1  0.4998430000000  0.5799840000000  0.4558980000000 1.0
C      1  0.4581380000000  0.4560930000000  0.4634460000000 1.0
C      1  0.5667090000000  0.5430070000000  0.5328090000000 1.0
C      1  0.4871280000000  0.4863540000000  0.4917150000000 1.0
C      1  0.4523540000000  0.5045110000000  0.5119190000000 1.0
C      1  0.4514870000000  0.5627220000000  0.4597200000000 1.0
C      1  0.4783260000000  0.5337850000000  0.5575490000000 1.0
C      1  0.4839530000000  0.5445390000000  0.4222670000000 1.0
C      1  0.4908540000000  0.4715800000000  0.4245580000000 1.0
C      1  0.4797760000000  0.5429560000000  0.4910330000000 1.0
C      1  0.5954250000000  0.5092350000000  0.4706520000000 1.0
END
