TITL C-951336-9012-33 -8.59736430840033e-07 125000 -1237.95716144854 0 0 198 (C1) n - 1
REM
REM in /home/bkarasulu/work/CARBON/AIRSS/Generating-Clusters/EDIP-Nigel-Params/with-SteepDescent/Only-C1/SD-CG/HFTN-CG
REM
REM
REM
REM
REM
REM ./C.cell (11c1c37f851c82e70ff6c80c92926a4b)
REM
REM compiler GCC version 9.2.1 20190827 (Red Hat 9.2.1-1)
REM options -cpp -mtune=generic -march=x86-64 -g -O0 -fpre-include=/usr/include/finclude/math-vector-fortran.h
REM seed 1071547690 870493157 109525783 -1559095480 -1611618647 925358385 399140702 433395425 1277650370 -1537713889 814337650 -1860064446 -255306752 576769127 -1885329120 -1369424032 -1465140946 678795798 -2002646021 1865431291 -369658376 307538108 -255217921 563168157 -1682914256 -1809662072 1907719953 -595555249 2010605097 331635124 -1478036881 393707926 1282599228
REM
CELL 1.54180   50.00000   50.00000   50.00000   90.00000   90.00000   90.00000
LATT -1
SFAC C  
C      1  0.6015180000000  0.4827560000000  0.4656270000000 1.0
C      1  0.5185140000000  0.5168130000000  0.5328790000000 1.0
C      1  0.4672770000000  0.4479310000000  0.5810680000000 1.0
C      1  0.5796390000000  0.5863750000000  0.4839940000000 1.0
C      1  0.5579260000000  0.5563730000000  0.5124770000000 1.0
C      1  0.4573360000000  0.5936710000000  0.5165180000000 1.0
C      1  0.4968450000000  0.3871600000000  0.4951970000000 1.0
C      1  0.6113400000000  0.4587640000000  0.4967080000000 1.0
C      1  0.5846230000000  0.4719320000000  0.4894610000000 1.0
C      1  0.5061710000000  0.4459270000000  0.3993180000000 1.0
C      1  0.6047430000000  0.4859440000000  0.5524750000000 1.0
C      1  0.5002660000000  0.4620100000000  0.4491040000000 1.0
C      1  0.5586060000000  0.4387390000000  0.4971420000000 1.0
C      1  0.4413250000000  0.4828510000000  0.5903310000000 1.0
C      1  0.4845820000000  0.5681010000000  0.5748540000000 1.0
C      1  0.5113030000000  0.4777840000000  0.5619150000000 1.0
C      1  0.5094350000000  0.5863480000000  0.5806690000000 1.0
C      1  0.4405270000000  0.3991060000000  0.5410040000000 1.0
C      1  0.4970960000000  0.3865910000000  0.5446310000000 1.0
C      1  0.4751970000000  0.5349740000000  0.5443430000000 1.0
C      1  0.4136660000000  0.5592560000000  0.5647530000000 1.0
C      1  0.5927600000000  0.5867090000000  0.5470510000000 1.0
C      1  0.5623230000000  0.4822840000000  0.5304080000000 1.0
C      1  0.4677430000000  0.5818970000000  0.4428250000000 1.0
C      1  0.5285730000000  0.4659370000000  0.5831960000000 1.0
C      1  0.5549890000000  0.4515300000000  0.4099740000000 1.0
C      1  0.4206060000000  0.5731100000000  0.5414560000000 1.0
C      1  0.5016430000000  0.4950620000000  0.4843780000000 1.0
C      1  0.4581760000000  0.4052060000000  0.4476070000000 1.0
C      1  0.4174790000000  0.4511970000000  0.4576210000000 1.0
C      1  0.4323860000000  0.4763370000000  0.4699440000000 1.0
C      1  0.4990540000000  0.5720460000000  0.4781980000000 1.0
C      1  0.3726950000000  0.4925850000000  0.5305970000000 1.0
C      1  0.3974060000000  0.5287170000000  0.4832150000000 1.0
C      1  0.5753940000000  0.4228190000000  0.4478730000000 1.0
C      1  0.5956800000000  0.4426270000000  0.5320120000000 1.0
C      1  0.3823500000000  0.4313310000000  0.4905070000000 1.0
C      1  0.5321720000000  0.4256840000000  0.4818340000000 1.0
C      1  0.5389980000000  0.4025300000000  0.4633500000000 1.0
C      1  0.4160920000000  0.4767850000000  0.4966670000000 1.0
C      1  0.5868550000000  0.5484890000000  0.4359470000000 1.0
C      1  0.4391060000000  0.5912000000000  0.4915880000000 1.0
C      1  0.3891050000000  0.5035050000000  0.4748130000000 1.0
C      1  0.4617990000000  0.5842210000000  0.5655020000000 1.0
C      1  0.5214490000000  0.4816820000000  0.6098980000000 1.0
C      1  0.4947340000000  0.4585770000000  0.5144140000000 1.0
C      1  0.5002820000000  0.4938970000000  0.4546030000000 1.0
C      1  0.5776830000000  0.4940920000000  0.5086360000000 1.0
C      1  0.5422760000000  0.5147020000000  0.4002110000000 1.0
C      1  0.4314590000000  0.4964850000000  0.4401840000000 1.0
C      1  0.4468050000000  0.5328510000000  0.5868390000000 1.0
C      1  0.5969830000000  0.5371780000000  0.5528410000000 1.0
C      1  0.6135470000000  0.4654060000000  0.5343560000000 1.0
C      1  0.5686210000000  0.4031480000000  0.4693400000000 1.0
C      1  0.4490850000000  0.5403070000000  0.5315990000000 1.0
C      1  0.3809780000000  0.4780720000000  0.4813440000000 1.0
C      1  0.5149610000000  0.4614540000000  0.5364200000000 1.0
C      1  0.4238830000000  0.5415000000000  0.4744460000000 1.0
C      1  0.4484420000000  0.4980400000000  0.3900240000000 1.0
C      1  0.5984690000000  0.5629570000000  0.4847580000000 1.0
C      1  0.4976540000000  0.5863700000000  0.4417990000000 1.0
C      1  0.4458660000000  0.5231030000000  0.4843580000000 1.0
C      1  0.4751920000000  0.4828860000000  0.6286740000000 1.0
C      1  0.4834120000000  0.3794460000000  0.5211730000000 1.0
C      1  0.5203670000000  0.4965740000000  0.4124630000000 1.0
C      1  0.4702510000000  0.4472440000000  0.4593620000000 1.0
C      1  0.4667210000000  0.5645700000000  0.5130160000000 1.0
C      1  0.4793330000000  0.6119140000000  0.4782810000000 1.0
C      1  0.5019100000000  0.6108900000000  0.4603450000000 1.0
C      1  0.4366580000000  0.4378630000000  0.5831850000000 1.0
C      1  0.5318080000000  0.5420800000000  0.4097880000000 1.0
C      1  0.5662400000000  0.4793320000000  0.4257760000000 1.0
C      1  0.4092270000000  0.5120930000000  0.5573710000000 1.0
C      1  0.5397880000000  0.5753520000000  0.5797720000000 1.0
C      1  0.4336910000000  0.4446290000000  0.4097700000000 1.0
C      1  0.5141960000000  0.4120670000000  0.5028370000000 1.0
C      1  0.4605050000000  0.4687260000000  0.4771680000000 1.0
C      1  0.5220910000000  0.4508910000000  0.4670260000000 1.0
C      1  0.4750940000000  0.5436830000000  0.5912820000000 1.0
C      1  0.5618550000000  0.5860760000000  0.5095470000000 1.0
C      1  0.4382990000000  0.4757990000000  0.5420180000000 1.0
C      1  0.5309140000000  0.4092270000000  0.4351290000000 1.0
C      1  0.5382490000000  0.5276220000000  0.6006940000000 1.0
C      1  0.5693850000000  0.5057460000000  0.4094110000000 1.0
C      1  0.4880100000000  0.5152370000000  0.5941930000000 1.0
C      1  0.5703950000000  0.5337470000000  0.5645330000000 1.0
C      1  0.5434450000000  0.5878070000000  0.5523900000000 1.0
C      1  0.5033150000000  0.5467640000000  0.4022480000000 1.0
C      1  0.4438420000000  0.4263540000000  0.5504430000000 1.0
C      1  0.5479370000000  0.4876660000000  0.4483090000000 1.0
C      1  0.4751040000000  0.4306300000000  0.5580600000000 1.0
C      1  0.5338130000000  0.4520240000000  0.3896090000000 1.0
C      1  0.4204050000000  0.4619070000000  0.5892940000000 1.0
C      1  0.5030560000000  0.4132490000000  0.4289310000000 1.0
C      1  0.4453850000000  0.5256160000000  0.4040600000000 1.0
C      1  0.4294710000000  0.5348010000000  0.5611850000000 1.0
C      1  0.4747200000000  0.4173630000000  0.4271410000000 1.0
C      1  0.4261230000000  0.5241470000000  0.4274150000000 1.0
C      1  0.5746090000000  0.4836850000000  0.5599210000000 1.0
C      1  0.4263700000000  0.4791600000000  0.3947040000000 1.0
C      1  0.5292410000000  0.5477850000000  0.5118670000000 1.0
C      1  0.6140160000000  0.5137370000000  0.5443990000000 1.0
C      1  0.5333340000000  0.5408890000000  0.4398560000000 1.0
C      1  0.4929940000000  0.4324470000000  0.5041450000000 1.0
C      1  0.3900310000000  0.4478880000000  0.5246460000000 1.0
C      1  0.4810490000000  0.6134290000000  0.5073100000000 1.0
C      1  0.5423950000000  0.5157840000000  0.4821910000000 1.0
C      1  0.4231060000000  0.5669940000000  0.4914400000000 1.0
C      1  0.5216100000000  0.5350780000000  0.4867240000000 1.0
C      1  0.5327310000000  0.4877220000000  0.5242670000000 1.0
C      1  0.6209450000000  0.5179420000000  0.5063440000000 1.0
C      1  0.3865560000000  0.4707230000000  0.5423440000000 1.0
C      1  0.5255250000000  0.5061360000000  0.4418200000000 1.0
C      1  0.5150080000000  0.5111370000000  0.6065550000000 1.0
C      1  0.5761030000000  0.4147170000000  0.4995720000000 1.0
C      1  0.4162930000000  0.4482090000000  0.5106320000000 1.0
C      1  0.6031370000000  0.4285660000000  0.5059270000000 1.0
C      1  0.5167360000000  0.4055140000000  0.5505030000000 1.0
C      1  0.4715320000000  0.4868750000000  0.4055460000000 1.0
C      1  0.6077410000000  0.5537190000000  0.4572040000000 1.0
C      1  0.5543630000000  0.4261620000000  0.4271700000000 1.0
C      1  0.4616530000000  0.4420910000000  0.4174840000000 1.0
C      1  0.4902620000000  0.4447670000000  0.6018540000000 1.0
C      1  0.5075860000000  0.6219790000000  0.5157120000000 1.0
C      1  0.5667640000000  0.4515770000000  0.5266550000000 1.0
C      1  0.6188810000000  0.5241650000000  0.4781720000000 1.0
C      1  0.5142590000000  0.5968920000000  0.5509960000000 1.0
C      1  0.4726230000000  0.3977760000000  0.4762070000000 1.0
C      1  0.5684440000000  0.5959130000000  0.5375420000000 1.0
C      1  0.4583820000000  0.5552280000000  0.4388370000000 1.0
C      1  0.4465720000000  0.5152040000000  0.5126820000000 1.0
C      1  0.5477420000000  0.6261630000000  0.4519450000000 1.0
C      1  0.5310460000000  0.4898990000000  0.4922560000000 1.0
C      1  0.4769440000000  0.5146600000000  0.4437750000000 1.0
C      1  0.4970490000000  0.5795950000000  0.5307180000000 1.0
C      1  0.4868130000000  0.4949340000000  0.5667140000000 1.0
C      1  0.4250010000000  0.4958030000000  0.5194830000000 1.0
C      1  0.5959340000000  0.5119250000000  0.4647070000000 1.0
C      1  0.5055280000000  0.4326650000000  0.5571680000000 1.0
C      1  0.5340470000000  0.5967980000000  0.5036130000000 1.0
C      1  0.4135610000000  0.4820860000000  0.4207850000000 1.0
C      1  0.5572030000000  0.4591950000000  0.5710860000000 1.0
C      1  0.5619220000000  0.5501050000000  0.4519540000000 1.0
C      1  0.4123030000000  0.5595860000000  0.5167270000000 1.0
C      1  0.4874080000000  0.5097870000000  0.5394280000000 1.0
C      1  0.4949920000000  0.5037870000000  0.3999540000000 1.0
C      1  0.5211180000000  0.5390770000000  0.5538120000000 1.0
C      1  0.4717160000000  0.5318050000000  0.4740410000000 1.0
C      1  0.4574090000000  0.5957360000000  0.4678310000000 1.0
C      1  0.4693300000000  0.4976270000000  0.5189870000000 1.0
C      1  0.3895180000000  0.4519240000000  0.4715360000000 1.0
C      1  0.4610070000000  0.4914390000000  0.4342380000000 1.0
C      1  0.5615210000000  0.4075260000000  0.5268120000000 1.0
C      1  0.5685310000000  0.5283920000000  0.4733980000000 1.0
C      1  0.5593990000000  0.5090250000000  0.6029530000000 1.0
C      1  0.3949380000000  0.5361390000000  0.5120260000000 1.0
C      1  0.5923370000000  0.5197920000000  0.5131950000000 1.0
C      1  0.5440790000000  0.4699860000000  0.4720520000000 1.0
C      1  0.4549470000000  0.3868660000000  0.5201340000000 1.0
C      1  0.5558890000000  0.6013030000000  0.4453160000000 1.0
C      1  0.4714740000000  0.5360120000000  0.4197110000000 1.0
C      1  0.5262130000000  0.6235540000000  0.4696570000000 1.0
C      1  0.4126980000000  0.4539900000000  0.4283650000000 1.0
C      1  0.5141290000000  0.4399210000000  0.5851760000000 1.0
C      1  0.5145390000000  0.5742300000000  0.5064120000000 1.0
C      1  0.4772190000000  0.4273890000000  0.4806980000000 1.0
C      1  0.4034200000000  0.4137120000000  0.4973590000000 1.0
C      1  0.4295990000000  0.4137570000000  0.4868790000000 1.0
C      1  0.3926980000000  0.5135420000000  0.5322190000000 1.0
C      1  0.5908260000000  0.4690870000000  0.4406440000000 1.0
C      1  0.4374430000000  0.4482770000000  0.5311440000000 1.0
C      1  0.5322080000000  0.4080430000000  0.5266020000000 1.0
C      1  0.4709830000000  0.5621100000000  0.4820560000000 1.0
C      1  0.6048770000000  0.5629890000000  0.5472570000000 1.0
C      1  0.4780490000000  0.4572860000000  0.3991310000000 1.0
C      1  0.4803520000000  0.4791680000000  0.4988510000000 1.0
C      1  0.4968550000000  0.4673220000000  0.6198430000000 1.0
C      1  0.5253300000000  0.6338440000000  0.4964990000000 1.0
C      1  0.4954510000000  0.5225160000000  0.4899560000000 1.0
C      1  0.4444790000000  0.5903110000000  0.5437640000000 1.0
C      1  0.4944490000000  0.5271670000000  0.3839890000000 1.0
C      1  0.5611680000000  0.5794410000000  0.4619290000000 1.0
C      1  0.4482040000000  0.3928600000000  0.4928040000000 1.0
C      1  0.5751090000000  0.4500440000000  0.4583160000000 1.0
C      1  0.4112770000000  0.4808520000000  0.5581300000000 1.0
C      1  0.4420560000000  0.5091030000000  0.6042180000000 1.0
C      1  0.5155550000000  0.4657910000000  0.4209900000000 1.0
C      1  0.5793000000000  0.5424740000000  0.4971910000000 1.0
C      1  0.5863230000000  0.5264260000000  0.4185990000000 1.0
C      1  0.5695830000000  0.5078050000000  0.5766550000000 1.0
C      1  0.5120400000000  0.5599310000000  0.4515790000000 1.0
C      1  0.4373940000000  0.4261780000000  0.4611510000000 1.0
C      1  0.5555880000000  0.4375830000000  0.5500850000000 1.0
C      1  0.4953190000000  0.5549710000000  0.5502180000000 1.0
C      1  0.4616300000000  0.4767490000000  0.5688610000000 1.0
C      1  0.5419440000000  0.5447870000000  0.5753330000000 1.0
C      1  0.4305560000000  0.5473520000000  0.4450740000000 1.0
C      1  0.4688760000000  0.5068600000000  0.6157830000000 1.0
END
