TITL C-951343-2256-109 1.13815532205517e-06 125000 -462.877778886216 0 0 75 (C1) n - 1
REM
REM in /home/bkarasulu/work/CARBON/AIRSS/Generating-Clusters/EDIP-Nigel-Params/with-SteepDescent/Only-C1/SD-CG/HFTN-CG
REM
REM
REM
REM
REM
REM ./C.cell (11c1c37f851c82e70ff6c80c92926a4b)
REM
REM compiler GCC version 9.2.1 20190827 (Red Hat 9.2.1-1)
REM options -cpp -mtune=generic -march=x86-64 -g -O0 -fpre-include=/usr/include/finclude/math-vector-fortran.h
REM seed 436035962 -402150975 1420318588 -1115651644 2050283926 -1390851093 -2035075568 1961944468 858622038 -1707206476 -1427293086 -1457287442 -483508157 2139015231 240623823 1178607724 1152449140 1682538936 1931499913 -1826605362 2014402790 -1168810036 1161456340 1546192851 -994865363 -1406685630 -128353693 -716165704 -2084567114 -1271097789 -2035103810 552830598 1604209640
REM
CELL 1.54180   50.00000   50.00000   50.00000   90.00000   90.00000   90.00000
LATT -1
SFAC C  
C      1  0.5850240000000  0.5002790000000  0.5160620000000 1.0
C      1  0.5153610000000  0.5450750000000  0.4722620000000 1.0
C      1  0.4435660000000  0.4762350000000  0.4877050000000 1.0
C      1  0.5394880000000  0.5055910000000  0.5199700000000 1.0
C      1  0.5704120000000  0.4728150000000  0.5134920000000 1.0
C      1  0.5628830000000  0.5496580000000  0.4954150000000 1.0
C      1  0.4928530000000  0.5506280000000  0.5448170000000 1.0
C      1  0.4315470000000  0.5225790000000  0.4555640000000 1.0
C      1  0.4607920000000  0.4305060000000  0.4794830000000 1.0
C      1  0.4893810000000  0.4769800000000  0.4747100000000 1.0
C      1  0.4881060000000  0.4172820000000  0.5141330000000 1.0
C      1  0.5566590000000  0.5171990000000  0.4519110000000 1.0
C      1  0.4511030000000  0.5553000000000  0.5220630000000 1.0
C      1  0.4452800000000  0.5594310000000  0.4923500000000 1.0
C      1  0.5269580000000  0.5332050000000  0.5778370000000 1.0
C      1  0.5605150000000  0.4877770000000  0.4506710000000 1.0
C      1  0.4928650000000  0.4557830000000  0.5436370000000 1.0
C      1  0.5379900000000  0.4856940000000  0.5419240000000 1.0
C      1  0.5194820000000  0.4483310000000  0.5572850000000 1.0
C      1  0.4138620000000  0.5036040000000  0.5226350000000 1.0
C      1  0.5255250000000  0.4463330000000  0.4557430000000 1.0
C      1  0.5875810000000  0.5065850000000  0.4869750000000 1.0
C      1  0.5334900000000  0.4752050000000  0.4546300000000 1.0
C      1  0.5258610000000  0.5534360000000  0.4465980000000 1.0
C      1  0.5492070000000  0.4886230000000  0.4933430000000 1.0
C      1  0.5274140000000  0.4635970000000  0.5801070000000 1.0
C      1  0.5398480000000  0.5579860000000  0.5111430000000 1.0
C      1  0.5437220000000  0.5577410000000  0.5404100000000 1.0
C      1  0.5559880000000  0.4640310000000  0.5376620000000 1.0
C      1  0.4849800000000  0.5411210000000  0.4714680000000 1.0
C      1  0.4766640000000  0.4791760000000  0.5554490000000 1.0
C      1  0.5664690000000  0.5258510000000  0.4786390000000 1.0
C      1  0.5053480000000  0.5128660000000  0.5043250000000 1.0
C      1  0.4774490000000  0.5688480000000  0.5277450000000 1.0
C      1  0.4667990000000  0.4950590000000  0.4806860000000 1.0
C      1  0.4492980000000  0.4804570000000  0.5458820000000 1.0
C      1  0.5542680000000  0.5239320000000  0.5731940000000 1.0
C      1  0.4554970000000  0.4456870000000  0.4539680000000 1.0
C      1  0.4515440000000  0.4963820000000  0.4239900000000 1.0
C      1  0.4300280000000  0.4866330000000  0.4419040000000 1.0
C      1  0.4215480000000  0.4880590000000  0.5018950000000 1.0
C      1  0.4316650000000  0.5396390000000  0.4774480000000 1.0
C      1  0.4793100000000  0.5191410000000  0.4924580000000 1.0
C      1  0.4895090000000  0.5051390000000  0.5588920000000 1.0
C      1  0.4896410000000  0.5783570000000  0.5019570000000 1.0
C      1  0.5645410000000  0.5378440000000  0.5496860000000 1.0
C      1  0.4977610000000  0.5065100000000  0.4363660000000 1.0
C      1  0.4896320000000  0.4593530000000  0.5050490000000 1.0
C      1  0.4588180000000  0.4518650000000  0.5009620000000 1.0
C      1  0.4889580000000  0.4201800000000  0.4857160000000 1.0
C      1  0.5412940000000  0.4400620000000  0.5405200000000 1.0
C      1  0.4338860000000  0.4651570000000  0.4611260000000 1.0
C      1  0.5235470000000  0.5153750000000  0.4811450000000 1.0
C      1  0.5115810000000  0.4944570000000  0.4617700000000 1.0
C      1  0.5645870000000  0.5230400000000  0.5225700000000 1.0
C      1  0.4755580000000  0.5296500000000  0.5541170000000 1.0
C      1  0.4359910000000  0.5057270000000  0.5396160000000 1.0
C      1  0.5356710000000  0.5297580000000  0.4359650000000 1.0
C      1  0.5118420000000  0.5078560000000  0.5768880000000 1.0
C      1  0.4788890000000  0.4838790000000  0.4273400000000 1.0
C      1  0.5801710000000  0.4825790000000  0.4715680000000 1.0
C      1  0.5117360000000  0.4392520000000  0.4814400000000 1.0
C      1  0.4492600000000  0.4399190000000  0.5274590000000 1.0
C      1  0.4352800000000  0.4564180000000  0.5452480000000 1.0
C      1  0.4799430000000  0.5302030000000  0.4435130000000 1.0
C      1  0.4521880000000  0.5243020000000  0.4349840000000 1.0
C      1  0.5188170000000  0.5729160000000  0.4977030000000 1.0
C      1  0.5015850000000  0.4428670000000  0.4411790000000 1.0
C      1  0.5194950000000  0.5535700000000  0.5571530000000 1.0
C      1  0.4531780000000  0.5287040000000  0.5362970000000 1.0
C      1  0.4805440000000  0.4613480000000  0.4485050000000 1.0
C      1  0.4765050000000  0.4311630000000  0.5361220000000 1.0
C      1  0.5193250000000  0.5147370000000  0.4183290000000 1.0
C      1  0.4715370000000  0.5672670000000  0.4801000000000 1.0
C      1  0.5350970000000  0.4902070000000  0.5711250000000 1.0
END
