TITL C-951333-8791-12 -4.07279183044399e-07 125000 -566.67048355252 0 0 93 (C1) n - 1
REM
REM in /home/bkarasulu/work/CARBON/AIRSS/Generating-Clusters/EDIP-Nigel-Params/with-SteepDescent/Only-C1/SD-CG/HFTN-CG
REM
REM
REM
REM
REM
REM ./C.cell (11c1c37f851c82e70ff6c80c92926a4b)
REM
REM compiler GCC version 9.2.1 20190827 (Red Hat 9.2.1-1)
REM options -cpp -mtune=generic -march=x86-64 -g -O0 -fpre-include=/usr/include/finclude/math-vector-fortran.h
REM seed 1524419824 -1836814579 -810847877 1006195726 -1783316966 1797215554 -1938491228 -191461209 309150967 537058936 -657051229 742477268 654787218 121113523 -442736745 -2100301646 -1098103313 -1185955001 -469078869 1507167036 598529646 -766074390 2003489217 -314141922 511788378 -275755876 -218863198 2074948719 415374022 -1783860704 991239673 -1672562319 1302391863
REM
CELL 1.54180   50.00000   50.00000   50.00000   90.00000   90.00000   90.00000
LATT -1
SFAC C  
C      1  0.5053270000000  0.4956410000000  0.4285100000000 1.0
C      1  0.5483640000000  0.5461610000000  0.5669590000000 1.0
C      1  0.5138810000000  0.4374610000000  0.5605740000000 1.0
C      1  0.4919600000000  0.4905080000000  0.4772100000000 1.0
C      1  0.5359110000000  0.5164830000000  0.4805500000000 1.0
C      1  0.4515890000000  0.4998710000000  0.4248800000000 1.0
C      1  0.4936940000000  0.5210520000000  0.5125270000000 1.0
C      1  0.4398520000000  0.4555460000000  0.5456220000000 1.0
C      1  0.5133590000000  0.4819060000000  0.5224070000000 1.0
C      1  0.5738400000000  0.4953980000000  0.5009420000000 1.0
C      1  0.4588210000000  0.5790310000000  0.4616150000000 1.0
C      1  0.5504650000000  0.5593940000000  0.4766670000000 1.0
C      1  0.5360410000000  0.5399720000000  0.5250210000000 1.0
C      1  0.5354600000000  0.4979240000000  0.5800230000000 1.0
C      1  0.4833480000000  0.5927070000000  0.4705860000000 1.0
C      1  0.5138930000000  0.4047530000000  0.4651460000000 1.0
C      1  0.4735270000000  0.4554380000000  0.5754490000000 1.0
C      1  0.5769900000000  0.5238860000000  0.5059160000000 1.0
C      1  0.4574710000000  0.5272400000000  0.4891710000000 1.0
C      1  0.5162690000000  0.5670180000000  0.4403700000000 1.0
C      1  0.4892690000000  0.5425850000000  0.4906750000000 1.0
C      1  0.5579370000000  0.5061310000000  0.4585930000000 1.0
C      1  0.5847180000000  0.4495980000000  0.5091560000000 1.0
C      1  0.4825130000000  0.4530160000000  0.5339640000000 1.0
C      1  0.4501620000000  0.5818160000000  0.4980470000000 1.0
C      1  0.5281810000000  0.5276240000000  0.5796570000000 1.0
C      1  0.4688070000000  0.4529240000000  0.4749050000000 1.0
C      1  0.4563130000000  0.4737730000000  0.5631170000000 1.0
C      1  0.5805680000000  0.4749120000000  0.5211490000000 1.0
C      1  0.4584610000000  0.4323130000000  0.5412190000000 1.0
C      1  0.5456120000000  0.4630640000000  0.4434710000000 1.0
C      1  0.5028250000000  0.5195740000000  0.5607640000000 1.0
C      1  0.5659360000000  0.4413680000000  0.4901400000000 1.0
C      1  0.4978590000000  0.5082190000000  0.4546310000000 1.0
C      1  0.4476970000000  0.5598560000000  0.5169000000000 1.0
C      1  0.5008470000000  0.4572140000000  0.5744150000000 1.0
C      1  0.4622410000000  0.4745410000000  0.4159960000000 1.0
C      1  0.5493170000000  0.4976970000000  0.5538230000000 1.0
C      1  0.4296150000000  0.5381260000000  0.5133790000000 1.0
C      1  0.4607240000000  0.5522580000000  0.4502180000000 1.0
C      1  0.4767240000000  0.5936080000000  0.4993770000000 1.0
C      1  0.4623410000000  0.5231890000000  0.4134110000000 1.0
C      1  0.5061100000000  0.5356320000000  0.5349750000000 1.0
C      1  0.4907780000000  0.5622720000000  0.5374640000000 1.0
C      1  0.4935430000000  0.4885430000000  0.5446690000000 1.0
C      1  0.5828010000000  0.5290530000000  0.5331470000000 1.0
C      1  0.4704550000000  0.5481670000000  0.4233470000000 1.0
C      1  0.4620440000000  0.5605920000000  0.5422670000000 1.0
C      1  0.4353260000000  0.5119940000000  0.5236370000000 1.0
C      1  0.5241640000000  0.5812370000000  0.5135440000000 1.0
C      1  0.5107180000000  0.4998840000000  0.4989690000000 1.0
C      1  0.5578630000000  0.4720050000000  0.5404560000000 1.0
C      1  0.4640950000000  0.4768150000000  0.5155880000000 1.0
C      1  0.5563480000000  0.5262320000000  0.5451450000000 1.0
C      1  0.5210320000000  0.4490860000000  0.4362110000000 1.0
C      1  0.4399730000000  0.4564830000000  0.4731170000000 1.0
C      1  0.5309600000000  0.5798340000000  0.4845570000000 1.0
C      1  0.5092720000000  0.4832770000000  0.5849170000000 1.0
C      1  0.5750860000000  0.4877190000000  0.4731760000000 1.0
C      1  0.4864780000000  0.5010430000000  0.5907670000000 1.0
C      1  0.5114310000000  0.5327440000000  0.4669540000000 1.0
C      1  0.4992460000000  0.4661570000000  0.4248890000000 1.0
C      1  0.4598740000000  0.4976120000000  0.5799400000000 1.0
C      1  0.4307570000000  0.4840770000000  0.4733610000000 1.0
C      1  0.5153410000000  0.4386800000000  0.4844410000000 1.0
C      1  0.5488370000000  0.4911090000000  0.4350370000000 1.0
C      1  0.5077420000000  0.5769540000000  0.4664450000000 1.0
C      1  0.4643940000000  0.5036540000000  0.5313220000000 1.0
C      1  0.4531830000000  0.5438560000000  0.5626300000000 1.0
C      1  0.4537410000000  0.4140700000000  0.5203680000000 1.0
C      1  0.4865000000000  0.4431170000000  0.4981420000000 1.0
C      1  0.5391460000000  0.4553440000000  0.4938050000000 1.0
C      1  0.5394300000000  0.5512130000000  0.4497880000000 1.0
C      1  0.5244560000000  0.4093880000000  0.4919450000000 1.0
C      1  0.5117950000000  0.4115750000000  0.5186560000000 1.0
C      1  0.4647970000000  0.4948800000000  0.4888190000000 1.0
C      1  0.5167410000000  0.4227730000000  0.4443410000000 1.0
C      1  0.5508300000000  0.5365270000000  0.4971760000000 1.0
C      1  0.5404620000000  0.5673090000000  0.5350760000000 1.0
C      1  0.4772160000000  0.4153520000000  0.5051500000000 1.0
C      1  0.4279480000000  0.4643650000000  0.5203490000000 1.0
C      1  0.5301150000000  0.5038750000000  0.4180060000000 1.0
C      1  0.5221980000000  0.4342450000000  0.5347740000000 1.0
C      1  0.4646350000000  0.4370140000000  0.4509730000000 1.0
C      1  0.5661890000000  0.4601810000000  0.4657570000000 1.0
C      1  0.4952000000000  0.5717290000000  0.5095500000000 1.0
C      1  0.4656450000000  0.4476480000000  0.4247520000000 1.0
C      1  0.4224490000000  0.4903630000000  0.5096120000000 1.0
C      1  0.4446800000000  0.5312740000000  0.4627530000000 1.0
C      1  0.5338920000000  0.4601230000000  0.5235550000000 1.0
C      1  0.4463170000000  0.5209260000000  0.5743330000000 1.0
C      1  0.4970250000000  0.5573510000000  0.4219250000000 1.0
C      1  0.4420150000000  0.5038520000000  0.4522700000000 1.0
END
