TITL C-951336-9012-588 -2.97257404262753e-06 125000 -897.328353164275 0 0 145 (C1) n - 1
REM
REM in /home/bkarasulu/work/CARBON/AIRSS/Generating-Clusters/EDIP-Nigel-Params/with-SteepDescent/Only-C1/SD-CG/HFTN-CG
REM
REM
REM
REM
REM
REM ./C.cell (11c1c37f851c82e70ff6c80c92926a4b)
REM
REM compiler GCC version 9.2.1 20190827 (Red Hat 9.2.1-1)
REM options -cpp -mtune=generic -march=x86-64 -g -O0 -fpre-include=/usr/include/finclude/math-vector-fortran.h
REM seed -1209703746 1882557705 246187632 -200727548 86702672 -700454388 -319888193 1091402844 512452320 620615016 -1358730786 1433141522 89051525 889888920 539480762 1288742261 -1236939488 -893252687 1062990656 -1604884240 2115551358 -1329613947 -2138831721 -1213634687 1892561633 -532346230 -250634968 -1590952031 -603071377 887840035 153914520 -114791082 1288951155
REM
CELL 1.54180   50.00000   50.00000   50.00000   90.00000   90.00000   90.00000
LATT -1
SFAC C  
C      1  0.5573530000000  0.4059280000000  0.4802200000000 1.0
C      1  0.5154450000000  0.4794680000000  0.6070700000000 1.0
C      1  0.5467160000000  0.5862210000000  0.4777140000000 1.0
C      1  0.4444570000000  0.5663940000000  0.5665270000000 1.0
C      1  0.4068870000000  0.4641420000000  0.5322620000000 1.0
C      1  0.4535860000000  0.5553420000000  0.4680560000000 1.0
C      1  0.5337010000000  0.4632520000000  0.4586120000000 1.0
C      1  0.4754910000000  0.5248960000000  0.5652160000000 1.0
C      1  0.4983020000000  0.5131440000000  0.4165440000000 1.0
C      1  0.5433760000000  0.5563570000000  0.5492140000000 1.0
C      1  0.4322830000000  0.5504520000000  0.5860470000000 1.0
C      1  0.4081020000000  0.5029870000000  0.4418630000000 1.0
C      1  0.4321100000000  0.4547340000000  0.5480930000000 1.0
C      1  0.5188210000000  0.4908390000000  0.4191110000000 1.0
C      1  0.4989220000000  0.5677450000000  0.4038160000000 1.0
C      1  0.5257520000000  0.4595110000000  0.5927850000000 1.0
C      1  0.5610370000000  0.5391290000000  0.4623430000000 1.0
C      1  0.5157970000000  0.4057630000000  0.5194060000000 1.0
C      1  0.5665860000000  0.4277120000000  0.5244370000000 1.0
C      1  0.4666250000000  0.4920760000000  0.4394910000000 1.0
C      1  0.4815330000000  0.4060580000000  0.4832430000000 1.0
C      1  0.5314250000000  0.5160510000000  0.4993610000000 1.0
C      1  0.5096670000000  0.4672460000000  0.4334740000000 1.0
C      1  0.3902030000000  0.5056990000000  0.5134890000000 1.0
C      1  0.5526390000000  0.5292940000000  0.5359090000000 1.0
C      1  0.4001000000000  0.5100480000000  0.4685400000000 1.0
C      1  0.4999410000000  0.5826000000000  0.4791490000000 1.0
C      1  0.4470310000000  0.4999670000000  0.5317920000000 1.0
C      1  0.4026160000000  0.5326780000000  0.5123430000000 1.0
C      1  0.5170940000000  0.5102340000000  0.4732570000000 1.0
C      1  0.5472530000000  0.4922120000000  0.4206460000000 1.0
C      1  0.4682850000000  0.5216450000000  0.5360380000000 1.0
C      1  0.5228780000000  0.5451410000000  0.5070800000000 1.0
C      1  0.4697990000000  0.5152940000000  0.4773830000000 1.0
C      1  0.4425300000000  0.4325330000000  0.4619770000000 1.0
C      1  0.4925560000000  0.4208690000000  0.4381900000000 1.0
C      1  0.4308140000000  0.5644140000000  0.4995040000000 1.0
C      1  0.5934300000000  0.5071380000000  0.4441340000000 1.0
C      1  0.5038880000000  0.5520320000000  0.4842150000000 1.0
C      1  0.4320080000000  0.4517230000000  0.4423050000000 1.0
C      1  0.4670050000000  0.5743700000000  0.5206830000000 1.0
C      1  0.4635860000000  0.5186360000000  0.4009510000000 1.0
C      1  0.4823030000000  0.5012850000000  0.5826550000000 1.0
C      1  0.4242810000000  0.5224650000000  0.4288500000000 1.0
C      1  0.5181400000000  0.5366670000000  0.4606160000000 1.0
C      1  0.5757480000000  0.4199870000000  0.4966360000000 1.0
C      1  0.4954190000000  0.5749980000000  0.5543080000000 1.0
C      1  0.4845470000000  0.5505160000000  0.5919850000000 1.0
C      1  0.4916470000000  0.4960410000000  0.4763370000000 1.0
C      1  0.4746890000000  0.5416520000000  0.4868600000000 1.0
C      1  0.5789770000000  0.4456440000000  0.4808890000000 1.0
C      1  0.5604990000000  0.4869670000000  0.4730530000000 1.0
C      1  0.4415540000000  0.4843380000000  0.5872620000000 1.0
C      1  0.5019480000000  0.5352520000000  0.4366630000000 1.0
C      1  0.5295800000000  0.4286000000000  0.5578870000000 1.0
C      1  0.5829530000000  0.4817630000000  0.4525800000000 1.0
C      1  0.5827770000000  0.5354640000000  0.5305460000000 1.0
C      1  0.4794210000000  0.4620280000000  0.5538220000000 1.0
C      1  0.4726100000000  0.5898290000000  0.4941500000000 1.0
C      1  0.5229760000000  0.5977120000000  0.4915790000000 1.0
C      1  0.5137100000000  0.5491490000000  0.5894190000000 1.0
C      1  0.4610820000000  0.5569840000000  0.4374360000000 1.0
C      1  0.4689640000000  0.4091980000000  0.5094910000000 1.0
C      1  0.5105520000000  0.4114780000000  0.4897840000000 1.0
C      1  0.4646600000000  0.4185670000000  0.5558170000000 1.0
C      1  0.4796150000000  0.4725730000000  0.3970420000000 1.0
C      1  0.5158060000000  0.5479690000000  0.3924910000000 1.0
C      1  0.3990840000000  0.4919680000000  0.5381400000000 1.0
C      1  0.4192140000000  0.5374540000000  0.4872970000000 1.0
C      1  0.5592910000000  0.4427130000000  0.4570150000000 1.0
C      1  0.4549450000000  0.4732550000000  0.5413680000000 1.0
C      1  0.5392370000000  0.5397830000000  0.4063380000000 1.0
C      1  0.4126170000000  0.4736090000000  0.4387390000000 1.0
C      1  0.5395770000000  0.4165840000000  0.5340480000000 1.0
C      1  0.4734440000000  0.5687270000000  0.5721440000000 1.0
C      1  0.4673250000000  0.4424460000000  0.5742340000000 1.0
C      1  0.3965790000000  0.4900060000000  0.4897810000000 1.0
C      1  0.5643680000000  0.4668450000000  0.4972940000000 1.0
C      1  0.6063330000000  0.4811850000000  0.4965160000000 1.0
C      1  0.5379910000000  0.4554780000000  0.5055940000000 1.0
C      1  0.4335040000000  0.5241500000000  0.5932460000000 1.0
C      1  0.5704340000000  0.5769450000000  0.4927500000000 1.0
C      1  0.4347530000000  0.4408180000000  0.4906800000000 1.0
C      1  0.4094950000000  0.4639970000000  0.5019270000000 1.0
C      1  0.4157050000000  0.5382940000000  0.5381560000000 1.0
C      1  0.4340540000000  0.5629870000000  0.5381360000000 1.0
C      1  0.5224800000000  0.4233620000000  0.4431230000000 1.0
C      1  0.6016180000000  0.5085870000000  0.4923730000000 1.0
C      1  0.5763610000000  0.4543200000000  0.5373060000000 1.0
C      1  0.5081300000000  0.5795530000000  0.4494880000000 1.0
C      1  0.4812460000000  0.4592060000000  0.5049860000000 1.0
C      1  0.5231650000000  0.5941250000000  0.5206900000000 1.0
C      1  0.4914570000000  0.5617390000000  0.4312080000000 1.0
C      1  0.4877170000000  0.4162140000000  0.5325610000000 1.0
C      1  0.5208140000000  0.4614970000000  0.4842130000000 1.0
C      1  0.4218300000000  0.5090830000000  0.5476250000000 1.0
C      1  0.4873480000000  0.4761200000000  0.4521310000000 1.0
C      1  0.4415920000000  0.5069900000000  0.4795050000000 1.0
C      1  0.5420410000000  0.4384020000000  0.4237920000000 1.0
C      1  0.4711680000000  0.4207080000000  0.4598540000000 1.0
C      1  0.4968630000000  0.4472310000000  0.4841310000000 1.0
C      1  0.5379820000000  0.5697120000000  0.4545120000000 1.0
C      1  0.5571530000000  0.5199530000000  0.4163800000000 1.0
C      1  0.5590140000000  0.5150170000000  0.4841150000000 1.0
C      1  0.4475300000000  0.5360440000000  0.4199850000000 1.0
C      1  0.4990680000000  0.4819990000000  0.5657930000000 1.0
C      1  0.4480550000000  0.5818260000000  0.4810190000000 1.0
C      1  0.5191980000000  0.5633070000000  0.5652450000000 1.0
C      1  0.4994160000000  0.5248970000000  0.3888850000000 1.0
C      1  0.4934740000000  0.4476390000000  0.5314150000000 1.0
C      1  0.5164510000000  0.4916170000000  0.5169100000000 1.0
C      1  0.4398860000000  0.4263970000000  0.5404880000000 1.0
C      1  0.5149510000000  0.4985470000000  0.5456250000000 1.0
C      1  0.4398490000000  0.4564370000000  0.5793760000000 1.0
C      1  0.5587600000000  0.4683500000000  0.5585830000000 1.0
C      1  0.5562550000000  0.5178160000000  0.5891730000000 1.0
C      1  0.5259760000000  0.5228100000000  0.5912820000000 1.0
C      1  0.5747690000000  0.5821670000000  0.5208450000000 1.0
C      1  0.5413610000000  0.4495080000000  0.5724760000000 1.0
C      1  0.5756740000000  0.5281610000000  0.4378020000000 1.0
C      1  0.5245360000000  0.4577070000000  0.5332140000000 1.0
C      1  0.5714920000000  0.5411440000000  0.5827510000000 1.0
C      1  0.4962190000000  0.4539610000000  0.4091420000000 1.0
C      1  0.4903110000000  0.4866030000000  0.5042840000000 1.0
C      1  0.5052910000000  0.5049810000000  0.6029430000000 1.0
C      1  0.5669130000000  0.4919620000000  0.5772940000000 1.0
C      1  0.4846440000000  0.4290710000000  0.4128880000000 1.0
C      1  0.4975030000000  0.5939980000000  0.5335750000000 1.0
C      1  0.5863880000000  0.5638570000000  0.5405550000000 1.0
C      1  0.4622980000000  0.4902730000000  0.4101740000000 1.0
C      1  0.5434170000000  0.5047690000000  0.5496000000000 1.0
C      1  0.4248700000000  0.5040360000000  0.5771500000000 1.0
C      1  0.4421360000000  0.4199040000000  0.5116110000000 1.0
C      1  0.4443600000000  0.4848040000000  0.4575120000000 1.0
C      1  0.5387900000000  0.5683300000000  0.5210250000000 1.0
C      1  0.5318510000000  0.4099660000000  0.4686820000000 1.0
C      1  0.4529530000000  0.4639600000000  0.4952940000000 1.0
C      1  0.5942620000000  0.4712540000000  0.5216520000000 1.0
C      1  0.5687840000000  0.5632890000000  0.5650780000000 1.0
C      1  0.4384850000000  0.4891100000000  0.5030710000000 1.0
C      1  0.5616590000000  0.4650040000000  0.4249210000000 1.0
C      1  0.6013690000000  0.4649710000000  0.4715540000000 1.0
C      1  0.5813750000000  0.5526740000000  0.4815360000000 1.0
C      1  0.5945250000000  0.5342600000000  0.5018990000000 1.0
C      1  0.4668750000000  0.5444280000000  0.5156480000000 1.0
END
