TITL C-951333-8791-737 -0.0913887272113265 125000 -144.563741725081 0 0 26 (C1) n - 1
REM
REM in /home/bkarasulu/work/CARBON/AIRSS/Generating-Clusters/EDIP-Nigel-Params/with-SteepDescent/Only-C1/SD-CG/HFTN-CG
REM
REM
REM
REM
REM
REM ./C.cell (11c1c37f851c82e70ff6c80c92926a4b)
REM
REM compiler GCC version 9.2.1 20190827 (Red Hat 9.2.1-1)
REM options -cpp -mtune=generic -march=x86-64 -g -O0 -fpre-include=/usr/include/finclude/math-vector-fortran.h
REM seed 1742919947 988795795 899464290 2105775505 1407446999 1382960350 -1272612052 1133003888 580814516 -260227355 669847244 479984052 257464586 -1804295098 1107348885 2006956753 -758741607 -589799933 -927349061 -27374439 -1385044416 -2129018906 1813355555 859315228 -1508559824 1434511952 -864643209 -1499146505 -1840705535 -1375204013 1855479076 -1537294235 1182670908
REM
CELL 1.54180   50.00000   50.00000   50.00000   90.00000   90.00000   90.00000
LATT -1
SFAC C  
C      1  0.4944080000000  0.5022260000000  0.4824410000000 1.0
C      1  0.4695190000000  0.4946070000000  0.4127720000000 1.0
C      1  0.5043500000000  0.4899640000000  0.5293720000000 1.0
C      1  0.4692150000000  0.5002000000000  0.5609100000000 1.0
C      1  0.5068620000000  0.4854170000000  0.5014260000000 1.0
C      1  0.5606660000000  0.5366580000000  0.5343220000000 1.0
C      1  0.4788250000000  0.4829350000000  0.5410960000000 1.0
C      1  0.4638790000000  0.4283610000000  0.4747720000000 1.0
C      1  0.5875510000000  0.5409850000000  0.5374830000000 1.0
C      1  0.4759900000000  0.5061560000000  0.4367450000000 1.0
C      1  0.5100300000000  0.5193190000000  0.5227870000000 1.0
C      1  0.4777730000000  0.4239180000000  0.4983010000000 1.0
C      1  0.4905750000000  0.4633210000000  0.4547870000000 1.0
C      1  0.4876450000000  0.4376570000000  0.4640160000000 1.0
C      1  0.4878010000000  0.4905620000000  0.4573750000000 1.0
C      1  0.4715710000000  0.4363470000000  0.5218630000000 1.0
C      1  0.4715820000000  0.4563890000000  0.5393180000000 1.0
C      1  0.5988310000000  0.5664250000000  0.5320690000000 1.0
C      1  0.4721000000000  0.5255030000000  0.5517660000000 1.0
C      1  0.5971100000000  0.5583680000000  0.5577370000000 1.0
C      1  0.4876340000000  0.5288130000000  0.4883700000000 1.0
C      1  0.4765960000000  0.5446980000000  0.5076960000000 1.0
C      1  0.4878580000000  0.5370400000000  0.5319370000000 1.0
C      1  0.4623930000000  0.4837740000000  0.3906830000000 1.0
C      1  0.5359810000000  0.5281340000000  0.5299920000000 1.0
C      1  0.4732570000000  0.5322220000000  0.4399630000000 1.0
END
