TITL C-951335-1172-529 3.14067304826978e-06 125000 -879.844809251526 0 0 142 (C1) n - 1
REM
REM in /home/bkarasulu/work/CARBON/AIRSS/Generating-Clusters/EDIP-Nigel-Params/with-SteepDescent/Only-C1/SD-CG/HFTN-CG
REM
REM
REM
REM
REM
REM ./C.cell (11c1c37f851c82e70ff6c80c92926a4b)
REM
REM compiler GCC version 9.2.1 20190827 (Red Hat 9.2.1-1)
REM options -cpp -mtune=generic -march=x86-64 -g -O0 -fpre-include=/usr/include/finclude/math-vector-fortran.h
REM seed 2016343699 662317934 -1336064860 -544099495 737114704 -1561551897 -2126241516 -239750785 1792409272 242127668 769889657 1299003957 -1634092788 1354274011 1036274 -80317986 1933299385 -1966300330 -869270199 1565260720 326060907 -1942260220 2134690660 240026775 488937562 1982255727 -1050585926 -906861286 816641029 -1954395570 -1670944415 -2082009801 2006063765
REM
CELL 1.54180   50.00000   50.00000   50.00000   90.00000   90.00000   90.00000
LATT -1
SFAC C  
C      1  0.6072740000000  0.4799190000000  0.4702880000000 1.0
C      1  0.5666810000000  0.4516520000000  0.4284170000000 1.0
C      1  0.5546600000000  0.4878470000000  0.4590720000000 1.0
C      1  0.5937980000000  0.5415050000000  0.4853790000000 1.0
C      1  0.5846940000000  0.5134440000000  0.4395660000000 1.0
C      1  0.4827860000000  0.5177670000000  0.4109910000000 1.0
C      1  0.4492040000000  0.5255860000000  0.4622540000000 1.0
C      1  0.5577350000000  0.5746400000000  0.5437560000000 1.0
C      1  0.4003380000000  0.4979470000000  0.5477830000000 1.0
C      1  0.5595420000000  0.4997780000000  0.5747110000000 1.0
C      1  0.5088820000000  0.4648060000000  0.4536370000000 1.0
C      1  0.5267400000000  0.4850500000000  0.4659680000000 1.0
C      1  0.5279540000000  0.3969550000000  0.5203610000000 1.0
C      1  0.5820480000000  0.4882900000000  0.5627930000000 1.0
C      1  0.5683840000000  0.5264990000000  0.5399620000000 1.0
C      1  0.5970020000000  0.4878860000000  0.5393680000000 1.0
C      1  0.5182260000000  0.5362100000000  0.4282360000000 1.0
C      1  0.5072610000000  0.5272770000000  0.5405840000000 1.0
C      1  0.5076590000000  0.5492070000000  0.5057730000000 1.0
C      1  0.6048550000000  0.5184970000000  0.5025780000000 1.0
C      1  0.4413210000000  0.5461410000000  0.4235590000000 1.0
C      1  0.5392360000000  0.4522400000000  0.5164340000000 1.0
C      1  0.5326970000000  0.5164830000000  0.5087950000000 1.0
C      1  0.5191290000000  0.5304580000000  0.5691840000000 1.0
C      1  0.4350870000000  0.5552560000000  0.5220620000000 1.0
C      1  0.4952100000000  0.4459430000000  0.5435420000000 1.0
C      1  0.4618580000000  0.4750660000000  0.4196220000000 1.0
C      1  0.4259500000000  0.5537010000000  0.5493380000000 1.0
C      1  0.5846010000000  0.4461860000000  0.4983790000000 1.0
C      1  0.4393030000000  0.5170550000000  0.4204560000000 1.0
C      1  0.5467320000000  0.5027410000000  0.5325510000000 1.0
C      1  0.4561730000000  0.4651700000000  0.5167830000000 1.0
C      1  0.4807480000000  0.5860290000000  0.4872970000000 1.0
C      1  0.4549800000000  0.5664540000000  0.4401410000000 1.0
C      1  0.4704050000000  0.5935100000000  0.5319920000000 1.0
C      1  0.4128920000000  0.5579300000000  0.4752080000000 1.0
C      1  0.5284760000000  0.5469800000000  0.4777300000000 1.0
C      1  0.5394200000000  0.4300570000000  0.4697130000000 1.0
C      1  0.4773350000000  0.5311710000000  0.4383730000000 1.0
C      1  0.4474150000000  0.5055480000000  0.5338020000000 1.0
C      1  0.5234790000000  0.5182640000000  0.3928940000000 1.0
C      1  0.5795950000000  0.5362340000000  0.4580540000000 1.0
C      1  0.5254880000000  0.5891930000000  0.4658140000000 1.0
C      1  0.4011180000000  0.5208940000000  0.5039780000000 1.0
C      1  0.5925320000000  0.4938520000000  0.4919500000000 1.0
C      1  0.4092720000000  0.4574220000000  0.5209660000000 1.0
C      1  0.4949450000000  0.4920780000000  0.5069010000000 1.0
C      1  0.4557550000000  0.5483870000000  0.4804210000000 1.0
C      1  0.4958160000000  0.5917480000000  0.4618790000000 1.0
C      1  0.4696420000000  0.4316210000000  0.4417940000000 1.0
C      1  0.4772760000000  0.5547910000000  0.5654210000000 1.0
C      1  0.5676160000000  0.4602410000000  0.4576350000000 1.0
C      1  0.4045200000000  0.4693350000000  0.5470660000000 1.0
C      1  0.4913990000000  0.4194580000000  0.4598120000000 1.0
C      1  0.4712800000000  0.4257730000000  0.5506130000000 1.0
C      1  0.4765480000000  0.5845590000000  0.5595340000000 1.0
C      1  0.5544780000000  0.4739950000000  0.4125170000000 1.0
C      1  0.4980510000000  0.5280450000000  0.3898750000000 1.0
C      1  0.4250480000000  0.4578110000000  0.5653920000000 1.0
C      1  0.4088860000000  0.5084680000000  0.4589780000000 1.0
C      1  0.4359450000000  0.4434740000000  0.5190610000000 1.0
C      1  0.4076250000000  0.4703450000000  0.4934340000000 1.0
C      1  0.4423190000000  0.4313720000000  0.5461770000000 1.0
C      1  0.4520760000000  0.4986650000000  0.4831790000000 1.0
C      1  0.5489940000000  0.4306930000000  0.4410980000000 1.0
C      1  0.4939090000000  0.4739400000000  0.5540840000000 1.0
C      1  0.4339130000000  0.4834760000000  0.5771500000000 1.0
C      1  0.4897510000000  0.4444350000000  0.5974700000000 1.0
C      1  0.4849320000000  0.4031960000000  0.5359830000000 1.0
C      1  0.5649080000000  0.5533350000000  0.5273910000000 1.0
C      1  0.4832750000000  0.4069760000000  0.4834310000000 1.0
C      1  0.5974350000000  0.5166110000000  0.5322160000000 1.0
C      1  0.5169640000000  0.5268970000000  0.4567930000000 1.0
C      1  0.5549870000000  0.4061500000000  0.5133220000000 1.0
C      1  0.5558080000000  0.4795720000000  0.5137440000000 1.0
C      1  0.5516440000000  0.5273230000000  0.5687040000000 1.0
C      1  0.4119270000000  0.5470460000000  0.5031280000000 1.0
C      1  0.5171940000000  0.5774950000000  0.5145390000000 1.0
C      1  0.5035580000000  0.4967690000000  0.5356160000000 1.0
C      1  0.5601350000000  0.5559500000000  0.4498190000000 1.0
C      1  0.5666220000000  0.4283650000000  0.5497460000000 1.0
C      1  0.4836820000000  0.4651870000000  0.5049670000000 1.0
C      1  0.4125120000000  0.5363740000000  0.4557250000000 1.0
C      1  0.4836980000000  0.4824390000000  0.4507140000000 1.0
C      1  0.5053600000000  0.5562860000000  0.5780910000000 1.0
C      1  0.6036640000000  0.4943730000000  0.4468390000000 1.0
C      1  0.5425420000000  0.5246880000000  0.4131060000000 1.0
C      1  0.4805170000000  0.4502050000000  0.4199880000000 1.0
C      1  0.5934600000000  0.4538790000000  0.4711940000000 1.0
C      1  0.5379300000000  0.5738650000000  0.4439830000000 1.0
C      1  0.4597980000000  0.5319540000000  0.5213690000000 1.0
C      1  0.4900030000000  0.5126420000000  0.4602590000000 1.0
C      1  0.4871710000000  0.5737050000000  0.4397270000000 1.0
C      1  0.4967440000000  0.4146950000000  0.5082470000000 1.0
C      1  0.4506580000000  0.5919150000000  0.4880670000000 1.0
C      1  0.5141000000000  0.4022340000000  0.5464960000000 1.0
C      1  0.5854920000000  0.4740760000000  0.5137740000000 1.0
C      1  0.4701810000000  0.4624820000000  0.6020780000000 1.0
C      1  0.4614320000000  0.4743980000000  0.4681050000000 1.0
C      1  0.4034750000000  0.4995470000000  0.4859400000000 1.0
C      1  0.4826430000000  0.5558170000000  0.4892440000000 1.0
C      1  0.5029650000000  0.5103720000000  0.5868270000000 1.0
C      1  0.4933670000000  0.5960680000000  0.5125730000000 1.0
C      1  0.5602310000000  0.5029740000000  0.4239950000000 1.0
C      1  0.4389930000000  0.4876280000000  0.5090820000000 1.0
C      1  0.5353540000000  0.5825630000000  0.4920310000000 1.0
C      1  0.4353960000000  0.4319400000000  0.4907860000000 1.0
C      1  0.4579730000000  0.5361130000000  0.5808250000000 1.0
C      1  0.5185490000000  0.4317420000000  0.5567690000000 1.0
C      1  0.5275840000000  0.4677400000000  0.4062690000000 1.0
C      1  0.5648400000000  0.5025430000000  0.4827730000000 1.0
C      1  0.5435790000000  0.4433750000000  0.5449840000000 1.0
C      1  0.4266530000000  0.5063820000000  0.5577790000000 1.0
C      1  0.4403900000000  0.5707830000000  0.4693550000000 1.0
C      1  0.5037390000000  0.4449460000000  0.5137540000000 1.0
C      1  0.4339750000000  0.4460850000000  0.4486470000000 1.0
C      1  0.4569080000000  0.4862820000000  0.5954740000000 1.0
C      1  0.5092950000000  0.4568940000000  0.4247260000000 1.0
C      1  0.5517120000000  0.5317250000000  0.4915010000000 1.0
C      1  0.4354050000000  0.4704440000000  0.4323240000000 1.0
C      1  0.4723730000000  0.5087150000000  0.5816910000000 1.0
C      1  0.4755800000000  0.5128090000000  0.4966770000000 1.0
C      1  0.5339360000000  0.4874040000000  0.5661230000000 1.0
C      1  0.4602890000000  0.4441760000000  0.4773940000000 1.0
C      1  0.5144680000000  0.5654830000000  0.4273000000000 1.0
C      1  0.5135290000000  0.5811260000000  0.5646970000000 1.0
C      1  0.5199710000000  0.4947280000000  0.4926980000000 1.0
C      1  0.4307400000000  0.5342740000000  0.5688610000000 1.0
C      1  0.4256510000000  0.4975010000000  0.4380230000000 1.0
C      1  0.5774430000000  0.5587280000000  0.5022790000000 1.0
C      1  0.5724970000000  0.4060620000000  0.5356000000000 1.0
C      1  0.4699340000000  0.4939640000000  0.5542410000000 1.0
C      1  0.5302740000000  0.5775960000000  0.5413310000000 1.0
C      1  0.4599780000000  0.5019720000000  0.4053930000000 1.0
C      1  0.5106080000000  0.4392010000000  0.4702870000000 1.0
C      1  0.5150650000000  0.4879510000000  0.6004440000000 1.0
C      1  0.4814410000000  0.5408940000000  0.5397820000000 1.0
C      1  0.5556570000000  0.4329150000000  0.4982750000000 1.0
C      1  0.5304000000000  0.4655580000000  0.5896090000000 1.0
C      1  0.4163160000000  0.4474500000000  0.4738450000000 1.0
C      1  0.4451910000000  0.5847110000000  0.5169700000000 1.0
C      1  0.5153330000000  0.4402890000000  0.5860790000000 1.0
END
