TITL C-951345-2650-525 -2.04814360117453e-06 125000 -906.105048762933 0 0 148 (C1) n - 1
REM
REM in /home/bkarasulu/work/CARBON/AIRSS/Generating-Clusters/EDIP-Nigel-Params/with-SteepDescent/Only-C1/SD-CG/HFTN-CG
REM
REM
REM
REM
REM
REM ./C.cell (11c1c37f851c82e70ff6c80c92926a4b)
REM
REM compiler GCC version 9.2.1 20190827 (Red Hat 9.2.1-1)
REM options -cpp -mtune=generic -march=x86-64 -g -O0 -fpre-include=/usr/include/finclude/math-vector-fortran.h
REM seed 1136446441 -573181979 1560928823 104475362 825762900 1496765246 2134049425 -509023392 1131370730 -1107941745 1457297129 -1754366940 -1448714396 2109965893 -2097771313 -184668206 322668376 -488794094 -1431479151 -1270905439 644408599 -1941185025 195255383 -343838879 -286620574 466576638 -768913529 -556718410 -1452551196 93248722 1698497483 1709328420 -785726382
REM
CELL 1.54180   50.00000   50.00000   50.00000   90.00000   90.00000   90.00000
LATT -1
SFAC C  
C      1  0.4444620000000  0.5954070000000  0.5002570000000 1.0
C      1  0.4957910000000  0.4236510000000  0.4292880000000 1.0
C      1  0.5009360000000  0.5458710000000  0.5523170000000 1.0
C      1  0.4510620000000  0.4181520000000  0.5185610000000 1.0
C      1  0.4921210000000  0.3989610000000  0.5067440000000 1.0
C      1  0.4904970000000  0.5967630000000  0.5155530000000 1.0
C      1  0.5073620000000  0.5801040000000  0.4957550000000 1.0
C      1  0.4136580000000  0.4999170000000  0.5350670000000 1.0
C      1  0.5107520000000  0.4941940000000  0.4088160000000 1.0
C      1  0.4153140000000  0.4459330000000  0.5294030000000 1.0
C      1  0.4544180000000  0.4620640000000  0.4723950000000 1.0
C      1  0.5942810000000  0.5168720000000  0.4466590000000 1.0
C      1  0.5419050000000  0.5619480000000  0.5509830000000 1.0
C      1  0.4448590000000  0.4316820000000  0.4347110000000 1.0
C      1  0.5121530000000  0.5063740000000  0.4783980000000 1.0
C      1  0.4633740000000  0.4393360000000  0.4551600000000 1.0
C      1  0.4499520000000  0.4601490000000  0.5052130000000 1.0
C      1  0.5060230000000  0.4471690000000  0.5394240000000 1.0
C      1  0.5053410000000  0.5873580000000  0.5758640000000 1.0
C      1  0.4898930000000  0.5496600000000  0.4505630000000 1.0
C      1  0.5993930000000  0.4462690000000  0.5139710000000 1.0
C      1  0.5161050000000  0.4654890000000  0.4159460000000 1.0
C      1  0.4768010000000  0.5913340000000  0.4510390000000 1.0
C      1  0.4184950000000  0.4938250000000  0.4567790000000 1.0
C      1  0.5256770000000  0.5345980000000  0.4777260000000 1.0
C      1  0.4634200000000  0.5617720000000  0.5780690000000 1.0
C      1  0.5774060000000  0.4962390000000  0.5696850000000 1.0
C      1  0.5963850000000  0.4833100000000  0.5530490000000 1.0
C      1  0.5231950000000  0.6112400000000  0.4405330000000 1.0
C      1  0.5577260000000  0.4615030000000  0.5342570000000 1.0
C      1  0.4717820000000  0.4186970000000  0.4729530000000 1.0
C      1  0.5875020000000  0.4203220000000  0.5100720000000 1.0
C      1  0.5252790000000  0.6178980000000  0.4678630000000 1.0
C      1  0.5262530000000  0.5229910000000  0.5921920000000 1.0
C      1  0.4383160000000  0.5005510000000  0.5933080000000 1.0
C      1  0.5277500000000  0.5841470000000  0.5608660000000 1.0
C      1  0.5619870000000  0.5700680000000  0.4487380000000 1.0
C      1  0.5284750000000  0.4283230000000  0.5343430000000 1.0
C      1  0.4363460000000  0.5169860000000  0.4157370000000 1.0
C      1  0.5668480000000  0.5831070000000  0.5198570000000 1.0
C      1  0.5355870000000  0.4156070000000  0.4540010000000 1.0
C      1  0.5902460000000  0.4899960000000  0.4919950000000 1.0
C      1  0.5748870000000  0.4955360000000  0.4470370000000 1.0
C      1  0.5169480000000  0.3856460000000  0.5148950000000 1.0
C      1  0.4172010000000  0.5281570000000  0.4934850000000 1.0
C      1  0.5445180000000  0.4611360000000  0.4248970000000 1.0
C      1  0.5026450000000  0.4991270000000  0.5561280000000 1.0
C      1  0.4063430000000  0.4532730000000  0.5039190000000 1.0
C      1  0.4793660000000  0.4798090000000  0.5114670000000 1.0
C      1  0.4716480000000  0.3996850000000  0.5270460000000 1.0
C      1  0.4459370000000  0.5355830000000  0.4618340000000 1.0
C      1  0.4182670000000  0.5544860000000  0.4806420000000 1.0
C      1  0.4962710000000  0.4785100000000  0.5776370000000 1.0
C      1  0.5509900000000  0.4030600000000  0.4771840000000 1.0
C      1  0.5204180000000  0.3998260000000  0.5409270000000 1.0
C      1  0.4739540000000  0.5384410000000  0.4754420000000 1.0
C      1  0.5077510000000  0.4509720000000  0.5695490000000 1.0
C      1  0.4201880000000  0.4386630000000  0.4826330000000 1.0
C      1  0.4735730000000  0.4813590000000  0.4649340000000 1.0
C      1  0.4320390000000  0.4559910000000  0.4288710000000 1.0
C      1  0.5057650000000  0.4140580000000  0.4534450000000 1.0
C      1  0.6108800000000  0.5090100000000  0.4899590000000 1.0
C      1  0.4605050000000  0.5872660000000  0.5272340000000 1.0
C      1  0.4960900000000  0.4453560000000  0.4115210000000 1.0
C      1  0.4376550000000  0.4837810000000  0.5238740000000 1.0
C      1  0.4199950000000  0.4643270000000  0.4545480000000 1.0
C      1  0.5693520000000  0.5675610000000  0.5432460000000 1.0
C      1  0.5660380000000  0.4954450000000  0.4754030000000 1.0
C      1  0.4915170000000  0.4249370000000  0.5750640000000 1.0
C      1  0.5787840000000  0.5392710000000  0.5400160000000 1.0
C      1  0.4662990000000  0.4923780000000  0.4393500000000 1.0
C      1  0.5444790000000  0.4765400000000  0.4848440000000 1.0
C      1  0.4910130000000  0.5632530000000  0.5738520000000 1.0
C      1  0.5335110000000  0.5764870000000  0.4536930000000 1.0
C      1  0.5353660000000  0.5448500000000  0.5252110000000 1.0
C      1  0.5190900000000  0.4400010000000  0.4869930000000 1.0
C      1  0.4836950000000  0.5360940000000  0.4237740000000 1.0
C      1  0.5588070000000  0.5418640000000  0.4399840000000 1.0
C      1  0.4640180000000  0.4312300000000  0.5827040000000 1.0
C      1  0.4009280000000  0.4809040000000  0.4992490000000 1.0
C      1  0.5871040000000  0.4620130000000  0.5369450000000 1.0
C      1  0.4781260000000  0.5087750000000  0.5438890000000 1.0
C      1  0.4183680000000  0.4966860000000  0.5728620000000 1.0
C      1  0.5483750000000  0.4910890000000  0.4325440000000 1.0
C      1  0.4700300000000  0.6113820000000  0.4987070000000 1.0
C      1  0.5380920000000  0.4509310000000  0.5765890000000 1.0
C      1  0.4887290000000  0.5368340000000  0.5046660000000 1.0
C      1  0.5594880000000  0.5887210000000  0.4933040000000 1.0
C      1  0.5149830000000  0.5504710000000  0.5024020000000 1.0
C      1  0.5374310000000  0.5382910000000  0.4178180000000 1.0
C      1  0.4927660000000  0.4280880000000  0.4956320000000 1.0
C      1  0.4570280000000  0.4809150000000  0.5980120000000 1.0
C      1  0.4194800000000  0.5433740000000  0.5657150000000 1.0
C      1  0.4723740000000  0.4575960000000  0.4038700000000 1.0
C      1  0.5552600000000  0.5287570000000  0.4689610000000 1.0
C      1  0.4787510000000  0.5367660000000  0.5330560000000 1.0
C      1  0.5164950000000  0.5708270000000  0.4136410000000 1.0
C      1  0.5375240000000  0.5091710000000  0.4101660000000 1.0
C      1  0.4081520000000  0.5025610000000  0.4820800000000 1.0
C      1  0.4578630000000  0.4895310000000  0.5423660000000 1.0
C      1  0.5746370000000  0.5712940000000  0.4754720000000 1.0
C      1  0.4032350000000  0.5194880000000  0.5666350000000 1.0
C      1  0.4529280000000  0.4743460000000  0.4168590000000 1.0
C      1  0.4829420000000  0.5763890000000  0.4772110000000 1.0
C      1  0.4151630000000  0.5273140000000  0.5219710000000 1.0
C      1  0.5379360000000  0.4951980000000  0.6010190000000 1.0
C      1  0.5276490000000  0.4606290000000  0.4662120000000 1.0
C      1  0.6005320000000  0.5282710000000  0.4724660000000 1.0
C      1  0.5041510000000  0.5938350000000  0.4271900000000 1.0
C      1  0.4417170000000  0.4946460000000  0.3989900000000 1.0
C      1  0.4841980000000  0.4971600000000  0.4859840000000 1.0
C      1  0.4438710000000  0.4197660000000  0.4899200000000 1.0
C      1  0.5527200000000  0.4788770000000  0.5813090000000 1.0
C      1  0.4634410000000  0.4551790000000  0.5963390000000 1.0
C      1  0.5071310000000  0.4901770000000  0.6036960000000 1.0
C      1  0.4331760000000  0.4268030000000  0.5387190000000 1.0
C      1  0.4428080000000  0.5436140000000  0.5830510000000 1.0
C      1  0.5476270000000  0.4443590000000  0.4504050000000 1.0
C      1  0.5952260000000  0.4611890000000  0.4882470000000 1.0
C      1  0.5378430000000  0.5065640000000  0.5225010000000 1.0
C      1  0.4432370000000  0.4261390000000  0.5646270000000 1.0
C      1  0.5366560000000  0.3870520000000  0.4949570000000 1.0
C      1  0.4390080000000  0.5755310000000  0.4788410000000 1.0
C      1  0.4549690000000  0.5578120000000  0.5346550000000 1.0
C      1  0.5192350000000  0.4913810000000  0.4515890000000 1.0
C      1  0.4423340000000  0.5259110000000  0.6046120000000 1.0
C      1  0.4947090000000  0.4020840000000  0.5560360000000 1.0
C      1  0.5024780000000  0.5481210000000  0.4048920000000 1.0
C      1  0.5494800000000  0.4386460000000  0.5529220000000 1.0
C      1  0.5739780000000  0.4460330000000  0.4720180000000 1.0
C      1  0.5315320000000  0.5924070000000  0.4801460000000 1.0
C      1  0.4838640000000  0.4474930000000  0.5183490000000 1.0
C      1  0.4479160000000  0.5824590000000  0.4510650000000 1.0
C      1  0.5764240000000  0.5427170000000  0.4850050000000 1.0
C      1  0.5236420000000  0.5228760000000  0.5609830000000 1.0
C      1  0.4410020000000  0.5101490000000  0.4448810000000 1.0
C      1  0.5649260000000  0.4255170000000  0.4921580000000 1.0
C      1  0.5433440000000  0.4874750000000  0.5446720000000 1.0
C      1  0.5642300000000  0.5339550000000  0.5146570000000 1.0
C      1  0.5180860000000  0.5504390000000  0.4551280000000 1.0
C      1  0.5262600000000  0.4925450000000  0.4998740000000 1.0
C      1  0.5414450000000  0.4387170000000  0.5072390000000 1.0
C      1  0.4254990000000  0.5502020000000  0.5377730000000 1.0
C      1  0.4413490000000  0.5606310000000  0.4330570000000 1.0
C      1  0.5621440000000  0.5194300000000  0.5568280000000 1.0
C      1  0.4911210000000  0.5067210000000  0.4286840000000 1.0
C      1  0.4542440000000  0.5411430000000  0.4156100000000 1.0
C      1  0.4996800000000  0.5188280000000  0.6047140000000 1.0
END
