TITL C-951336-9012-693 1.63600837890363e-06 125000 -827.095384299714 0 0 133 (C1) n - 1
REM
REM in /home/bkarasulu/work/CARBON/AIRSS/Generating-Clusters/EDIP-Nigel-Params/with-SteepDescent/Only-C1/SD-CG/HFTN-CG
REM
REM
REM
REM
REM
REM ./C.cell (11c1c37f851c82e70ff6c80c92926a4b)
REM
REM compiler GCC version 9.2.1 20190827 (Red Hat 9.2.1-1)
REM options -cpp -mtune=generic -march=x86-64 -g -O0 -fpre-include=/usr/include/finclude/math-vector-fortran.h
REM seed 1138597016 -204294816 1784669699 -533427786 540913778 1301859881 431259490 -783017438 1178250045 1468918608 -345643902 -841748540 -1121962727 1029178982 1975824413 -1383092280 782563797 -1959236114 -1672409687 -1541378242 -1199148347 -881944549 -144980968 -468153719 277878520 2044429788 1414955823 -1692425225 15267500 645473528 -634018578 1092140316 1794595318
REM
CELL 1.54180   50.00000   50.00000   50.00000   90.00000   90.00000   90.00000
LATT -1
SFAC C  
C      1  0.5907000000000  0.4906100000000  0.5220570000000 1.0
C      1  0.4634730000000  0.4923910000000  0.4606930000000 1.0
C      1  0.4430810000000  0.5676790000000  0.4637530000000 1.0
C      1  0.5415020000000  0.4938930000000  0.5957700000000 1.0
C      1  0.5586640000000  0.5043650000000  0.4939520000000 1.0
C      1  0.5646990000000  0.4745520000000  0.5609890000000 1.0
C      1  0.5655340000000  0.4767720000000  0.5312250000000 1.0
C      1  0.5491920000000  0.5211470000000  0.5618470000000 1.0
C      1  0.4100210000000  0.5312730000000  0.4666230000000 1.0
C      1  0.5200490000000  0.5326560000000  0.4472450000000 1.0
C      1  0.4748650000000  0.5492790000000  0.4743180000000 1.0
C      1  0.5598770000000  0.4478370000000  0.4393940000000 1.0
C      1  0.4841670000000  0.5586470000000  0.5029670000000 1.0
C      1  0.4831300000000  0.4947440000000  0.5301500000000 1.0
C      1  0.4925630000000  0.4006740000000  0.5418710000000 1.0
C      1  0.4462000000000  0.5812880000000  0.5069870000000 1.0
C      1  0.5197530000000  0.4597780000000  0.4087570000000 1.0
C      1  0.5613010000000  0.5601050000000  0.4525000000000 1.0
C      1  0.5195630000000  0.5295470000000  0.4942550000000 1.0
C      1  0.5149760000000  0.5869730000000  0.5468430000000 1.0
C      1  0.4178460000000  0.5080980000000  0.5495380000000 1.0
C      1  0.5932210000000  0.5203260000000  0.4891330000000 1.0
C      1  0.4518620000000  0.4817280000000  0.5774730000000 1.0
C      1  0.5275590000000  0.4882010000000  0.4096710000000 1.0
C      1  0.4672220000000  0.4579630000000  0.5850980000000 1.0
C      1  0.5552900000000  0.4949060000000  0.4152460000000 1.0
C      1  0.4671430000000  0.5526280000000  0.4112550000000 1.0
C      1  0.4985790000000  0.5134670000000  0.4840360000000 1.0
C      1  0.5168650000000  0.4703120000000  0.5526100000000 1.0
C      1  0.5400100000000  0.4342850000000  0.5646130000000 1.0
C      1  0.4289080000000  0.4587710000000  0.5389890000000 1.0
C      1  0.5563290000000  0.5668520000000  0.4254170000000 1.0
C      1  0.4849200000000  0.5355130000000  0.5476250000000 1.0
C      1  0.4795060000000  0.4063720000000  0.5170770000000 1.0
C      1  0.4799040000000  0.5048500000000  0.6081840000000 1.0
C      1  0.4951150000000  0.5850850000000  0.4380750000000 1.0
C      1  0.5155850000000  0.4240230000000  0.5792150000000 1.0
C      1  0.4929160000000  0.4037960000000  0.4919210000000 1.0
C      1  0.5646870000000  0.4989820000000  0.5763650000000 1.0
C      1  0.4863080000000  0.5557980000000  0.5716050000000 1.0
C      1  0.4532330000000  0.4318780000000  0.4788430000000 1.0
C      1  0.5598840000000  0.5487230000000  0.5530050000000 1.0
C      1  0.5351910000000  0.4058660000000  0.5203040000000 1.0
C      1  0.4465830000000  0.4371710000000  0.5472760000000 1.0
C      1  0.4255060000000  0.5226510000000  0.4423800000000 1.0
C      1  0.5220540000000  0.4522060000000  0.4940100000000 1.0
C      1  0.5621030000000  0.4494090000000  0.5185350000000 1.0
C      1  0.4948170000000  0.4896360000000  0.5017950000000 1.0
C      1  0.4205200000000  0.4647220000000  0.4695110000000 1.0
C      1  0.5719160000000  0.5453010000000  0.5256350000000 1.0
C      1  0.5604720000000  0.5221880000000  0.4110580000000 1.0
C      1  0.5159800000000  0.5505430000000  0.5813950000000 1.0
C      1  0.5693220000000  0.4768420000000  0.4353460000000 1.0
C      1  0.4645330000000  0.4331150000000  0.5699720000000 1.0
C      1  0.5167630000000  0.4324960000000  0.4497250000000 1.0
C      1  0.5162890000000  0.5379570000000  0.4176740000000 1.0
C      1  0.5449840000000  0.5457190000000  0.4102620000000 1.0
C      1  0.4594010000000  0.5069270000000  0.5895950000000 1.0
C      1  0.4718610000000  0.4659580000000  0.5422250000000 1.0
C      1  0.5087040000000  0.5059240000000  0.4566300000000 1.0
C      1  0.4318460000000  0.5398830000000  0.4203490000000 1.0
C      1  0.4557350000000  0.5885350000000  0.4786060000000 1.0
C      1  0.5479780000000  0.5350280000000  0.4570850000000 1.0
C      1  0.4922710000000  0.4422590000000  0.5132190000000 1.0
C      1  0.5464310000000  0.5303090000000  0.4857500000000 1.0
C      1  0.4291980000000  0.4813980000000  0.5585640000000 1.0
C      1  0.4293830000000  0.5330920000000  0.5604510000000 1.0
C      1  0.4893540000000  0.4589680000000  0.6037500000000 1.0
C      1  0.5288460000000  0.5231020000000  0.5858610000000 1.0
C      1  0.5077350000000  0.5102600000000  0.4053990000000 1.0
C      1  0.4492260000000  0.4810600000000  0.4218930000000 1.0
C      1  0.5338440000000  0.5855990000000  0.4944330000000 1.0
C      1  0.5547160000000  0.4814940000000  0.4737490000000 1.0
C      1  0.4391610000000  0.4713970000000  0.5130060000000 1.0
C      1  0.4966840000000  0.4496470000000  0.5428740000000 1.0
C      1  0.4114280000000  0.5462900000000  0.5287110000000 1.0
C      1  0.4102230000000  0.5068570000000  0.4950140000000 1.0
C      1  0.4760580000000  0.4143520000000  0.4693330000000 1.0
C      1  0.5295720000000  0.5135960000000  0.5396570000000 1.0
C      1  0.5338790000000  0.4407150000000  0.4263150000000 1.0
C      1  0.4783640000000  0.5944860000000  0.4611850000000 1.0
C      1  0.4677150000000  0.5875430000000  0.5306300000000 1.0
C      1  0.4556760000000  0.4563880000000  0.4358340000000 1.0
C      1  0.5172400000000  0.5808310000000  0.4700750000000 1.0
C      1  0.4024020000000  0.5166320000000  0.5237160000000 1.0
C      1  0.4898160000000  0.4208960000000  0.4432790000000 1.0
C      1  0.5989760000000  0.4944000000000  0.4787420000000 1.0
C      1  0.4936410000000  0.4832270000000  0.6166720000000 1.0
C      1  0.5031630000000  0.5547100000000  0.4613570000000 1.0
C      1  0.5289500000000  0.5609540000000  0.5550840000000 1.0
C      1  0.5123330000000  0.5511260000000  0.5096100000000 1.0
C      1  0.4233280000000  0.5625110000000  0.5054160000000 1.0
C      1  0.5150280000000  0.5946310000000  0.5175630000000 1.0
C      1  0.5667350000000  0.5724470000000  0.4789640000000 1.0
C      1  0.5221390000000  0.4083320000000  0.4931130000000 1.0
C      1  0.5271370000000  0.4824190000000  0.4594520000000 1.0
C      1  0.4618310000000  0.5203430000000  0.4751630000000 1.0
C      1  0.4531950000000  0.4977100000000  0.5256470000000 1.0
C      1  0.4847080000000  0.4984340000000  0.4416590000000 1.0
C      1  0.6027450000000  0.4766430000000  0.5001910000000 1.0
C      1  0.5556500000000  0.5547270000000  0.5009490000000 1.0
C      1  0.4873830000000  0.5958560000000  0.5091620000000 1.0
C      1  0.4452810000000  0.5275160000000  0.5211640000000 1.0
C      1  0.4636860000000  0.4528070000000  0.4986990000000 1.0
C      1  0.4312520000000  0.4948970000000  0.4393770000000 1.0
C      1  0.5532690000000  0.4531600000000  0.4888770000000 1.0
C      1  0.5431120000000  0.4938180000000  0.5187220000000 1.0
C      1  0.5907100000000  0.5216580000000  0.5181140000000 1.0
C      1  0.4175090000000  0.4779690000000  0.4937740000000 1.0
C      1  0.4378700000000  0.5227870000000  0.4929210000000 1.0
C      1  0.4188020000000  0.5582550000000  0.4763650000000 1.0
C      1  0.5183940000000  0.3908410000000  0.5372250000000 1.0
C      1  0.4930230000000  0.4516730000000  0.4060850000000 1.0
C      1  0.5087000000000  0.4389030000000  0.6020420000000 1.0
C      1  0.5102910000000  0.4587080000000  0.4670830000000 1.0
C      1  0.5071150000000  0.4973200000000  0.5497170000000 1.0
C      1  0.4436860000000  0.5650610000000  0.4194940000000 1.0
C      1  0.4793500000000  0.4721000000000  0.4809850000000 1.0
C      1  0.5140800000000  0.5406350000000  0.5369880000000 1.0
C      1  0.5349890000000  0.4159170000000  0.4674440000000 1.0
C      1  0.4388880000000  0.4469100000000  0.4578040000000 1.0
C      1  0.5443800000000  0.4307000000000  0.5340310000000 1.0
C      1  0.5898460000000  0.4864500000000  0.4530190000000 1.0
C      1  0.4864580000000  0.5829390000000  0.5561320000000 1.0
C      1  0.4936080000000  0.5602820000000  0.4194740000000 1.0
C      1  0.4758450000000  0.4392530000000  0.4245410000000 1.0
C      1  0.5597190000000  0.4329310000000  0.4670830000000 1.0
C      1  0.4923910000000  0.4244940000000  0.5601090000000 1.0
C      1  0.5199060000000  0.4769040000000  0.5089730000000 1.0
C      1  0.5387040000000  0.4641540000000  0.5721490000000 1.0
C      1  0.4807150000000  0.5014650000000  0.4134860000000 1.0
C      1  0.4560550000000  0.5315580000000  0.5738410000000 1.0
C      1  0.4674370000000  0.5474480000000  0.5262860000000 1.0
END
