TITL C-951345-2650-651 -7.01400134685897e-07 125000 -109.183520711195 0 0 20 (C1) n - 1
REM
REM in /home/bkarasulu/work/CARBON/AIRSS/Generating-Clusters/EDIP-Nigel-Params/with-SteepDescent/Only-C1/SD-CG/HFTN-CG
REM
REM
REM
REM
REM
REM ./C.cell (11c1c37f851c82e70ff6c80c92926a4b)
REM
REM compiler GCC version 9.2.1 20190827 (Red Hat 9.2.1-1)
REM options -cpp -mtune=generic -march=x86-64 -g -O0 -fpre-include=/usr/include/finclude/math-vector-fortran.h
REM seed -1626372683 -20196019 788014430 -1064508503 227244084 326886920 -1209761261 -100792397 1040472731 -802402908 -1566663469 -784651061 -1273708383 1725501237 182376934 -382406247 1729164948 1355997667 1291392930 65506155 -894506035 -1972775960 388724293 -944384044 -198554421 -794506438 63739564 819427920 817068725 -328876165 -271170456 1498555832 -1398202827
REM
CELL 1.54180   50.00000   50.00000   50.00000   90.00000   90.00000   90.00000
LATT -1
SFAC C  
C      1  0.5380040000000  0.4855710000000  0.5150440000000 1.0
C      1  0.4246230000000  0.5143160000000  0.5105150000000 1.0
C      1  0.5213170000000  0.4811540000000  0.5351580000000 1.0
C      1  0.4790530000000  0.5206210000000  0.4641820000000 1.0
C      1  0.3991910000000  0.5177780000000  0.5167100000000 1.0
C      1  0.5841960000000  0.4944090000000  0.4583460000000 1.0
C      1  0.4741590000000  0.4679970000000  0.5423880000000 1.0
C      1  0.5989120000000  0.4725610000000  0.4695810000000 1.0
C      1  0.4568180000000  0.4910140000000  0.5482810000000 1.0
C      1  0.5467810000000  0.4925920000000  0.4900260000000 1.0
C      1  0.5059370000000  0.5142370000000  0.4641910000000 1.0
C      1  0.4824050000000  0.5027570000000  0.5568030000000 1.0
C      1  0.5925100000000  0.4763570000000  0.4972350000000 1.0
C      1  0.4339540000000  0.5222630000000  0.4860220000000 1.0
C      1  0.4995900000000  0.4793860000000  0.5518530000000 1.0
C      1  0.4416930000000  0.5027670000000  0.5285920000000 1.0
C      1  0.4491440000000  0.5279880000000  0.4635330000000 1.0
C      1  0.5290450000000  0.5050290000000  0.4732010000000 1.0
C      1  0.4672250000000  0.5327460000000  0.4417210000000 1.0
C      1  0.5754440000000  0.4984570000000  0.4866190000000 1.0
END
