TITL C-950533-5798-602 -1.43840170389182e-06 125000 -378.597283402387 0 0 62 (C1) n - 1
REM
REM in /home/bkarasulu/work/CARBON/AIRSS/Generating-Clusters/EDIP-Nigel-Params/with-SteepDescent/Only-C1/SD-CG/HFTN-CG
REM
REM
REM
REM
REM
REM ./C.cell (11c1c37f851c82e70ff6c80c92926a4b)
REM
REM compiler GCC version 9.2.1 20190827 (Red Hat 9.2.1-1)
REM options -cpp -mtune=generic -march=x86-64 -g -O0 -fpre-include=/usr/include/finclude/math-vector-fortran.h
REM seed 809340982 -6878123 871783739 1275422556 2045282030 466047008 450053801 234016242 -1043242602 37951615 -332475903 -1420850872 241104802 1860139556 788028998 2032547884 -618764462 597384923 -1118252301 553973416 1224987629 945372545 388804805 -14757351 1443373823 -1497922715 -1964383183 -947963773 2096385945 1408396829 2003889783 1501074067 -982561145
REM
CELL 1.54180   50.00000   50.00000   50.00000   90.00000   90.00000   90.00000
LATT -1
SFAC C  
C      1  0.4934700000000  0.5675560000000  0.5251240000000 1.0
C      1  0.5214930000000  0.4710640000000  0.4275240000000 1.0
C      1  0.5276280000000  0.4955070000000  0.4414500000000 1.0
C      1  0.5308960000000  0.4945730000000  0.5748950000000 1.0
C      1  0.5372030000000  0.5429750000000  0.4640620000000 1.0
C      1  0.4795320000000  0.5024330000000  0.5011040000000 1.0
C      1  0.5180860000000  0.5308560000000  0.5513850000000 1.0
C      1  0.5538340000000  0.4981100000000  0.4510540000000 1.0
C      1  0.4416190000000  0.5379930000000  0.4931810000000 1.0
C      1  0.4471550000000  0.5088520000000  0.5003270000000 1.0
C      1  0.4212340000000  0.4555520000000  0.5046770000000 1.0
C      1  0.4490530000000  0.4609180000000  0.5492090000000 1.0
C      1  0.4849500000000  0.4738440000000  0.4872380000000 1.0
C      1  0.4563220000000  0.5383970000000  0.4670560000000 1.0
C      1  0.4327710000000  0.4995330000000  0.5251080000000 1.0
C      1  0.4689410000000  0.4410780000000  0.5472520000000 1.0
C      1  0.4890810000000  0.4904150000000  0.5548140000000 1.0
C      1  0.4944060000000  0.5879640000000  0.5056210000000 1.0
C      1  0.5318440000000  0.4833890000000  0.4899360000000 1.0
C      1  0.4471160000000  0.5097310000000  0.5487550000000 1.0
C      1  0.5269510000000  0.5171850000000  0.4804040000000 1.0
C      1  0.4920770000000  0.5202480000000  0.5574630000000 1.0
C      1  0.5486930000000  0.4399220000000  0.4983480000000 1.0
C      1  0.5757780000000  0.4817880000000  0.5037730000000 1.0
C      1  0.5399540000000  0.5525940000000  0.5112410000000 1.0
C      1  0.4530870000000  0.5101410000000  0.4545660000000 1.0
C      1  0.4731520000000  0.4274890000000  0.4959920000000 1.0
C      1  0.4689760000000  0.5289750000000  0.5429050000000 1.0
C      1  0.5560970000000  0.4657890000000  0.4880190000000 1.0
C      1  0.5720900000000  0.5114630000000  0.4956910000000 1.0
C      1  0.4326850000000  0.4702110000000  0.5262770000000 1.0
C      1  0.5244230000000  0.4861770000000  0.5190840000000 1.0
C      1  0.4949570000000  0.4420330000000  0.5366730000000 1.0
C      1  0.4854470000000  0.4697650000000  0.4156430000000 1.0
C      1  0.4975540000000  0.5221310000000  0.4869050000000 1.0
C      1  0.5190210000000  0.5545550000000  0.5332430000000 1.0
C      1  0.5102610000000  0.4757460000000  0.5702660000000 1.0
C      1  0.4705500000000  0.4915810000000  0.4257790000000 1.0
C      1  0.4596770000000  0.4853820000000  0.5616890000000 1.0
C      1  0.5206470000000  0.4387930000000  0.4911730000000 1.0
C      1  0.4982140000000  0.4292700000000  0.5098060000000 1.0
C      1  0.4949910000000  0.4841500000000  0.5239510000000 1.0
C      1  0.5038500000000  0.5747730000000  0.4828410000000 1.0
C      1  0.5449640000000  0.5227870000000  0.5056350000000 1.0
C      1  0.4677660000000  0.5550810000000  0.5310430000000 1.0
C      1  0.5699790000000  0.4766620000000  0.5311930000000 1.0
C      1  0.5220420000000  0.5441710000000  0.4395860000000 1.0
C      1  0.4836360000000  0.5158590000000  0.4310210000000 1.0
C      1  0.5714730000000  0.5147590000000  0.4653880000000 1.0
C      1  0.5428560000000  0.4742710000000  0.5379690000000 1.0
C      1  0.5007710000000  0.4528080000000  0.4313290000000 1.0
C      1  0.5166650000000  0.4522380000000  0.5537330000000 1.0
C      1  0.4847510000000  0.5440510000000  0.4730440000000 1.0
C      1  0.4380760000000  0.4932240000000  0.4762070000000 1.0
C      1  0.4378130000000  0.4632080000000  0.4827510000000 1.0
C      1  0.4651580000000  0.4526950000000  0.4858170000000 1.0
C      1  0.5660380000000  0.5416230000000  0.4587910000000 1.0
C      1  0.5313530000000  0.5647690000000  0.4843270000000 1.0
C      1  0.4477400000000  0.5581970000000  0.5119140000000 1.0
C      1  0.5120980000000  0.5187050000000  0.4332850000000 1.0
C      1  0.5118610000000  0.4648870000000  0.4794510000000 1.0
C      1  0.5391960000000  0.5191030000000  0.5660160000000 1.0
END
