TITL C-951348-1603-96 -9.35858559513904e-07 125000 -463.938764438079 0 0 76 (C1) n - 1
REM
REM in /home/bkarasulu/work/CARBON/AIRSS/Generating-Clusters/EDIP-Nigel-Params/with-SteepDescent/Only-C1/SD-CG/HFTN-CG
REM
REM
REM
REM
REM
REM ./C.cell (11c1c37f851c82e70ff6c80c92926a4b)
REM
REM compiler GCC version 9.2.1 20190827 (Red Hat 9.2.1-1)
REM options -cpp -mtune=generic -march=x86-64 -g -O0 -fpre-include=/usr/include/finclude/math-vector-fortran.h
REM seed 658031221 1037203221 953623492 18800282 113048925 1287111208 -1719167146 -1221590015 -552710878 672938834 -1432844133 -1650706535 841729158 -332490894 -135967666 -1095061900 338935607 2129775531 962817641 -192376246 -1997869456 1059424600 -1183383771 1863505069 1363550673 1282527910 -975837293 -1119039400 -1118290005 1203645822 750071578 81161553 -2094341581
REM
CELL 1.54180   50.00000   50.00000   50.00000   90.00000   90.00000   90.00000
LATT -1
SFAC C  
C      1  0.5123950000000  0.4240120000000  0.4488820000000 1.0
C      1  0.5421650000000  0.5230640000000  0.4285050000000 1.0
C      1  0.4479720000000  0.5121470000000  0.5418130000000 1.0
C      1  0.4608480000000  0.5222160000000  0.4639340000000 1.0
C      1  0.5537440000000  0.4679500000000  0.5605110000000 1.0
C      1  0.5195280000000  0.5072020000000  0.5235870000000 1.0
C      1  0.4382300000000  0.4377720000000  0.4959500000000 1.0
C      1  0.4987980000000  0.5724610000000  0.4681580000000 1.0
C      1  0.4968790000000  0.5562480000000  0.5164300000000 1.0
C      1  0.5292620000000  0.4666840000000  0.5730370000000 1.0
C      1  0.4830020000000  0.4163080000000  0.4919570000000 1.0
C      1  0.5103510000000  0.5261860000000  0.4790450000000 1.0
C      1  0.5533030000000  0.4740180000000  0.4746400000000 1.0
C      1  0.4740140000000  0.5221660000000  0.5396000000000 1.0
C      1  0.4761050000000  0.4961590000000  0.5041020000000 1.0
C      1  0.5143520000000  0.4375320000000  0.5002520000000 1.0
C      1  0.5516430000000  0.5195590000000  0.5640060000000 1.0
C      1  0.5322330000000  0.5412800000000  0.4502190000000 1.0
C      1  0.4870470000000  0.4328110000000  0.4426690000000 1.0
C      1  0.5580360000000  0.5008810000000  0.4395840000000 1.0
C      1  0.5001900000000  0.4839710000000  0.5170680000000 1.0
C      1  0.5398120000000  0.5663480000000  0.4903630000000 1.0
C      1  0.5225030000000  0.5140480000000  0.4103280000000 1.0
C      1  0.4258730000000  0.5070350000000  0.4672910000000 1.0
C      1  0.4642550000000  0.4749560000000  0.5712440000000 1.0
C      1  0.5084320000000  0.4666610000000  0.4945780000000 1.0
C      1  0.4478250000000  0.5434400000000  0.4843640000000 1.0
C      1  0.5121850000000  0.5401640000000  0.5629570000000 1.0
C      1  0.5086820000000  0.5600310000000  0.4447750000000 1.0
C      1  0.5533370000000  0.5692100000000  0.5143900000000 1.0
C      1  0.4933000000000  0.4384020000000  0.5500410000000 1.0
C      1  0.4344870000000  0.5043710000000  0.5159520000000 1.0
C      1  0.5014260000000  0.6051310000000  0.5221730000000 1.0
C      1  0.5142920000000  0.4441430000000  0.5675110000000 1.0
C      1  0.5417550000000  0.4776160000000  0.4479880000000 1.0
C      1  0.4444940000000  0.4437170000000  0.5411930000000 1.0
C      1  0.5304710000000  0.5619560000000  0.5620570000000 1.0
C      1  0.4634040000000  0.4360750000000  0.4834270000000 1.0
C      1  0.5130160000000  0.4903120000000  0.5736420000000 1.0
C      1  0.4417680000000  0.4834180000000  0.4695710000000 1.0
C      1  0.5598530000000  0.4487740000000  0.4849600000000 1.0
C      1  0.5291850000000  0.5131780000000  0.4960900000000 1.0
C      1  0.4876500000000  0.5487450000000  0.4307730000000 1.0
C      1  0.4873220000000  0.5832670000000  0.5269740000000 1.0
C      1  0.4205110000000  0.4776150000000  0.5172240000000 1.0
C      1  0.5629860000000  0.4797130000000  0.5383260000000 1.0
C      1  0.5036540000000  0.4963840000000  0.4216700000000 1.0
C      1  0.5008480000000  0.4095830000000  0.4695480000000 1.0
C      1  0.4846620000000  0.5075220000000  0.4775170000000 1.0
C      1  0.4607700000000  0.5809580000000  0.5172270000000 1.0
C      1  0.4571040000000  0.4825220000000  0.4250310000000 1.0
C      1  0.4683680000000  0.5289270000000  0.4348710000000 1.0
C      1  0.4871340000000  0.4859920000000  0.5822390000000 1.0
C      1  0.4746020000000  0.5038710000000  0.4197720000000 1.0
C      1  0.4734160000000  0.4524200000000  0.4601740000000 1.0
C      1  0.4602390000000  0.5540690000000  0.5080880000000 1.0
C      1  0.4453210000000  0.4936680000000  0.5626980000000 1.0
C      1  0.5553750000000  0.5485270000000  0.5581500000000 1.0
C      1  0.5249810000000  0.5167780000000  0.5763970000000 1.0
C      1  0.5513420000000  0.5060400000000  0.5369670000000 1.0
C      1  0.5425950000000  0.4321100000000  0.4974180000000 1.0
C      1  0.4675600000000  0.4521230000000  0.5537200000000 1.0
C      1  0.5680740000000  0.5237260000000  0.5186580000000 1.0
C      1  0.4512180000000  0.4676260000000  0.4475020000000 1.0
C      1  0.5127880000000  0.4818020000000  0.4457240000000 1.0
C      1  0.4942620000000  0.4749620000000  0.4687140000000 1.0
C      1  0.5525220000000  0.5469550000000  0.4727500000000 1.0
C      1  0.4271620000000  0.5231060000000  0.4916970000000 1.0
C      1  0.5004800000000  0.4258290000000  0.5248130000000 1.0
C      1  0.5570290000000  0.5216480000000  0.4902850000000 1.0
C      1  0.5695020000000  0.4989900000000  0.4748640000000 1.0
C      1  0.4281430000000  0.4494680000000  0.5195920000000 1.0
C      1  0.5665360000000  0.5507370000000  0.5306120000000 1.0
C      1  0.5010750000000  0.5314900000000  0.5359210000000 1.0
C      1  0.5110430000000  0.5563350000000  0.4890210000000 1.0
C      1  0.4532730000000  0.4768770000000  0.4962220000000 1.0
END
