TITL C-950522-5749-277 -4.30252103024672e-06 125000 -707.487588974441 0 0 114 (C1) n - 1
REM
REM in /home/bkarasulu/work/CARBON/AIRSS/Generating-Clusters/EDIP-Nigel-Params/with-SteepDescent/Only-C1/SD-CG/HFTN-CG
REM
REM
REM
REM
REM
REM ./C.cell (11c1c37f851c82e70ff6c80c92926a4b)
REM
REM compiler GCC version 9.2.1 20190827 (Red Hat 9.2.1-1)
REM options -cpp -mtune=generic -march=x86-64 -g -O0 -fpre-include=/usr/include/finclude/math-vector-fortran.h
REM seed -881949656 2084732439 1816562767 1742992031 -1772973824 -978948722 -2125854002 -1316601175 1040435894 1365327861 -1326205465 2117656150 1041555641 560989276 -517345729 -2137701000 1069807470 930053673 -1341547406 -1480596079 1884293327 1677219653 -204337949 744104391 -984450115 -24693238 -460784397 525815126 1972457415 728528578 -1859913987 -1127299234 21554878
REM
CELL 1.54180   50.00000   50.00000   50.00000   90.00000   90.00000   90.00000
LATT -1
SFAC C  
C      1  0.4773420000000  0.4563450000000  0.4186960000000 1.0
C      1  0.5065780000000  0.4752250000000  0.5607670000000 1.0
C      1  0.4775790000000  0.5878820000000  0.5533540000000 1.0
C      1  0.4499480000000  0.4769080000000  0.5738690000000 1.0
C      1  0.5326500000000  0.5180030000000  0.5135900000000 1.0
C      1  0.5166030000000  0.4195500000000  0.5371350000000 1.0
C      1  0.4129310000000  0.5059870000000  0.4835240000000 1.0
C      1  0.4530860000000  0.4730280000000  0.4140890000000 1.0
C      1  0.5823050000000  0.4916080000000  0.5169470000000 1.0
C      1  0.4878020000000  0.4730170000000  0.5402600000000 1.0
C      1  0.5638380000000  0.5443930000000  0.4491570000000 1.0
C      1  0.5824400000000  0.5145630000000  0.4967270000000 1.0
C      1  0.4252530000000  0.5322290000000  0.5255380000000 1.0
C      1  0.4999790000000  0.4189810000000  0.4465660000000 1.0
C      1  0.4646410000000  0.4994710000000  0.5866120000000 1.0
C      1  0.5039590000000  0.4322990000000  0.5028110000000 1.0
C      1  0.5519080000000  0.4574960000000  0.4777950000000 1.0
C      1  0.5147040000000  0.4502000000000  0.5743990000000 1.0
C      1  0.4178710000000  0.4549820000000  0.4797980000000 1.0
C      1  0.5124010000000  0.5140320000000  0.5350530000000 1.0
C      1  0.5041160000000  0.4885100000000  0.4970720000000 1.0
C      1  0.4724640000000  0.5436780000000  0.4789800000000 1.0
C      1  0.4900560000000  0.4992850000000  0.5996680000000 1.0
C      1  0.5325650000000  0.4609770000000  0.5953850000000 1.0
C      1  0.5506510000000  0.4814190000000  0.5864200000000 1.0
C      1  0.4850400000000  0.5583820000000  0.4264620000000 1.0
C      1  0.5143950000000  0.5541940000000  0.4698680000000 1.0
C      1  0.5066230000000  0.5964870000000  0.5163670000000 1.0
C      1  0.5708200000000  0.5423050000000  0.5000260000000 1.0
C      1  0.4626690000000  0.4800810000000  0.4839890000000 1.0
C      1  0.4641540000000  0.4593510000000  0.5525240000000 1.0
C      1  0.4463680000000  0.4924930000000  0.5074490000000 1.0
C      1  0.4910100000000  0.4968490000000  0.5229590000000 1.0
C      1  0.4750830000000  0.4527260000000  0.4780110000000 1.0
C      1  0.5463130000000  0.5837240000000  0.4784300000000 1.0
C      1  0.5371840000000  0.5041550000000  0.4234370000000 1.0
C      1  0.5625500000000  0.4443090000000  0.5187720000000 1.0
C      1  0.5177950000000  0.5254890000000  0.4615410000000 1.0
C      1  0.4533120000000  0.4961050000000  0.3978420000000 1.0
C      1  0.5976230000000  0.4808320000000  0.4675280000000 1.0
C      1  0.5324630000000  0.5315400000000  0.4351780000000 1.0
C      1  0.4475590000000  0.5778310000000  0.5188530000000 1.0
C      1  0.4651070000000  0.5133650000000  0.5215820000000 1.0
C      1  0.4642030000000  0.4140270000000  0.4795640000000 1.0
C      1  0.5040410000000  0.5880670000000  0.5440830000000 1.0
C      1  0.5558070000000  0.5314230000000  0.5666600000000 1.0
C      1  0.5795900000000  0.5198920000000  0.5575120000000 1.0
C      1  0.5154490000000  0.4598250000000  0.4916900000000 1.0
C      1  0.4437000000000  0.5167460000000  0.4147790000000 1.0
C      1  0.5795310000000  0.5200230000000  0.4474390000000 1.0
C      1  0.4128130000000  0.5114120000000  0.5110510000000 1.0
C      1  0.4340190000000  0.5541810000000  0.5070760000000 1.0
C      1  0.5165440000000  0.5566240000000  0.4998070000000 1.0
C      1  0.4979170000000  0.4115250000000  0.4774550000000 1.0
C      1  0.5366930000000  0.4138300000000  0.4808700000000 1.0
C      1  0.4554370000000  0.5240940000000  0.5750380000000 1.0
C      1  0.5087330000000  0.5418660000000  0.4167020000000 1.0
C      1  0.4282010000000  0.5230310000000  0.4633700000000 1.0
C      1  0.4542910000000  0.4255270000000  0.5055450000000 1.0
C      1  0.4339670000000  0.4755160000000  0.4359640000000 1.0
C      1  0.5083610000000  0.4935220000000  0.4237210000000 1.0
C      1  0.5010820000000  0.4897620000000  0.4532040000000 1.0
C      1  0.4750410000000  0.4309860000000  0.4344860000000 1.0
C      1  0.5271440000000  0.5055560000000  0.4853130000000 1.0
C      1  0.4749420000000  0.4978820000000  0.4651700000000 1.0
C      1  0.5428110000000  0.4844560000000  0.4672740000000 1.0
C      1  0.4308560000000  0.4875550000000  0.5532180000000 1.0
C      1  0.4783840000000  0.4356140000000  0.5184500000000 1.0
C      1  0.5271120000000  0.5787260000000  0.4563350000000 1.0
C      1  0.5187520000000  0.5642600000000  0.5840740000000 1.0
C      1  0.5233490000000  0.4972810000000  0.5554340000000 1.0
C      1  0.4049020000000  0.4797900000000  0.4787840000000 1.0
C      1  0.5930640000000  0.5083020000000  0.4703430000000 1.0
C      1  0.5301230000000  0.5827180000000  0.5051280000000 1.0
C      1  0.4319490000000  0.4462280000000  0.5058970000000 1.0
C      1  0.4727490000000  0.5854410000000  0.5029440000000 1.0
C      1  0.4992760000000  0.5392370000000  0.5475320000000 1.0
C      1  0.5649460000000  0.4730940000000  0.5609410000000 1.0
C      1  0.5543550000000  0.4499580000000  0.5456460000000 1.0
C      1  0.4599680000000  0.5683040000000  0.5432770000000 1.0
C      1  0.4571830000000  0.5690310000000  0.4720570000000 1.0
C      1  0.5119040000000  0.5174630000000  0.5970090000000 1.0
C      1  0.4573860000000  0.4350000000000  0.4578520000000 1.0
C      1  0.5033950000000  0.4604520000000  0.4626300000000 1.0
C      1  0.4621160000000  0.5230600000000  0.4594980000000 1.0
C      1  0.5838300000000  0.4593290000000  0.4792700000000 1.0
C      1  0.5321060000000  0.4347980000000  0.5557830000000 1.0
C      1  0.5194560000000  0.4405570000000  0.4450340000000 1.0
C      1  0.5006310000000  0.5440320000000  0.5913550000000 1.0
C      1  0.4751690000000  0.5445420000000  0.5774080000000 1.0
C      1  0.4296560000000  0.5537590000000  0.4768490000000 1.0
C      1  0.5775300000000  0.4948760000000  0.5455280000000 1.0
C      1  0.5455740000000  0.5517980000000  0.5468170000000 1.0
C      1  0.4924130000000  0.5167560000000  0.4135540000000 1.0
C      1  0.5181900000000  0.5625300000000  0.5549000000000 1.0
C      1  0.4856710000000  0.5568580000000  0.5039720000000 1.0
C      1  0.5654150000000  0.5591460000000  0.4752080000000 1.0
C      1  0.5364610000000  0.5090720000000  0.5788190000000 1.0
C      1  0.4259180000000  0.5054860000000  0.4360150000000 1.0
C      1  0.4383210000000  0.4699330000000  0.5271610000000 1.0
C      1  0.5506870000000  0.4230670000000  0.5037050000000 1.0
C      1  0.5553050000000  0.4918500000000  0.4420730000000 1.0
C      1  0.5460430000000  0.5434400000000  0.5171930000000 1.0
C      1  0.4900540000000  0.5723600000000  0.4520280000000 1.0
C      1  0.5039870000000  0.4663840000000  0.4107530000000 1.0
C      1  0.4832300000000  0.4380310000000  0.5672830000000 1.0
C      1  0.4755680000000  0.5447940000000  0.5297760000000 1.0
C      1  0.5245780000000  0.4487830000000  0.4176040000000 1.0
C      1  0.5431710000000  0.4337340000000  0.4612290000000 1.0
C      1  0.4320370000000  0.4513080000000  0.4544130000000 1.0
C      1  0.5827190000000  0.4628890000000  0.5082790000000 1.0
C      1  0.4676350000000  0.5296520000000  0.4288110000000 1.0
C      1  0.4387320000000  0.5168730000000  0.5504800000000 1.0
C      1  0.4880930000000  0.4217970000000  0.5428470000000 1.0
END
