TITL C-951342-2639-230 -1.97293782322546e-06 125000 -1187.65581420894 0 0 191 (C1) n - 1
REM
REM in /home/bkarasulu/work/CARBON/AIRSS/Generating-Clusters/EDIP-Nigel-Params/with-SteepDescent/Only-C1/SD-CG/HFTN-CG
REM
REM
REM
REM
REM
REM ./C.cell (11c1c37f851c82e70ff6c80c92926a4b)
REM
REM compiler GCC version 9.2.1 20190827 (Red Hat 9.2.1-1)
REM options -cpp -mtune=generic -march=x86-64 -g -O0 -fpre-include=/usr/include/finclude/math-vector-fortran.h
REM seed 1869835069 -79677827 -1049387998 1558915567 1438406304 -940558881 -1158432386 355085807 270810989 -1186683122 250542755 25271119 -1846927771 -1554651864 -332099703 1635618298 -1730638571 -1658808897 1589670512 1427257516 -1856899891 689050407 5953052 661673120 731514112 -1609638586 -1718338370 1522760805 1111051737 -2078197028 1245764791 876821078 523522241
REM
CELL 1.54180   50.00000   50.00000   50.00000   90.00000   90.00000   90.00000
LATT -1
SFAC C  
C      1  0.6065690000000  0.4652710000000  0.5098070000000 1.0
C      1  0.5761280000000  0.4988420000000  0.4070290000000 1.0
C      1  0.4743610000000  0.3852330000000  0.5011500000000 1.0
C      1  0.5025410000000  0.5432430000000  0.4009760000000 1.0
C      1  0.4642150000000  0.4655970000000  0.4422480000000 1.0
C      1  0.5087860000000  0.4790490000000  0.4560050000000 1.0
C      1  0.5851020000000  0.4114920000000  0.4938960000000 1.0
C      1  0.5324200000000  0.4964970000000  0.4532420000000 1.0
C      1  0.5325500000000  0.5097650000000  0.5408290000000 1.0
C      1  0.5022280000000  0.5625410000000  0.5281360000000 1.0
C      1  0.4821400000000  0.5647520000000  0.4337130000000 1.0
C      1  0.5627670000000  0.4699130000000  0.5074200000000 1.0
C      1  0.5589970000000  0.4580970000000  0.4112510000000 1.0
C      1  0.4955850000000  0.4569700000000  0.5575780000000 1.0
C      1  0.4723440000000  0.4641250000000  0.5408570000000 1.0
C      1  0.4471470000000  0.4808160000000  0.4621710000000 1.0
C      1  0.4459280000000  0.5111290000000  0.4534630000000 1.0
C      1  0.5976050000000  0.5528270000000  0.4998040000000 1.0
C      1  0.5406210000000  0.5096780000000  0.5110890000000 1.0
C      1  0.4499670000000  0.3978400000000  0.5101470000000 1.0
C      1  0.5516660000000  0.4506120000000  0.4396000000000 1.0
C      1  0.5458970000000  0.4639910000000  0.5337740000000 1.0
C      1  0.4833730000000  0.4260630000000  0.5158790000000 1.0
C      1  0.4811020000000  0.5804750000000  0.4095420000000 1.0
C      1  0.5268030000000  0.5249660000000  0.6011290000000 1.0
C      1  0.4661760000000  0.4242390000000  0.5768700000000 1.0
C      1  0.4587290000000  0.4420410000000  0.5259050000000 1.0
C      1  0.5782520000000  0.5717730000000  0.4891920000000 1.0
C      1  0.4860060000000  0.6054790000000  0.5551070000000 1.0
C      1  0.4397960000000  0.5717980000000  0.5008750000000 1.0
C      1  0.4034660000000  0.5050430000000  0.5131470000000 1.0
C      1  0.5342430000000  0.5343020000000  0.4959030000000 1.0
C      1  0.4469350000000  0.4888930000000  0.4033450000000 1.0
C      1  0.4251560000000  0.4659520000000  0.4792640000000 1.0
C      1  0.4276310000000  0.5076670000000  0.4197550000000 1.0
C      1  0.3938390000000  0.4964940000000  0.4850620000000 1.0
C      1  0.4113800000000  0.4400790000000  0.4682260000000 1.0
C      1  0.4270570000000  0.5602970000000  0.5516360000000 1.0
C      1  0.4362290000000  0.5443140000000  0.4275440000000 1.0
C      1  0.4959320000000  0.4928130000000  0.4103160000000 1.0
C      1  0.5777240000000  0.5133690000000  0.5758810000000 1.0
C      1  0.3937550000000  0.4801650000000  0.5367370000000 1.0
C      1  0.5699090000000  0.5127280000000  0.4743660000000 1.0
C      1  0.4917180000000  0.6106240000000  0.5044050000000 1.0
C      1  0.4045120000000  0.5398270000000  0.4637250000000 1.0
C      1  0.5170980000000  0.4424770000000  0.5382670000000 1.0
C      1  0.5916990000000  0.4717710000000  0.5577530000000 1.0
C      1  0.5273970000000  0.3984060000000  0.4412610000000 1.0
C      1  0.4093120000000  0.4566520000000  0.5253690000000 1.0
C      1  0.5040170000000  0.6123540000000  0.5761210000000 1.0
C      1  0.4654780000000  0.4860830000000  0.4842980000000 1.0
C      1  0.5057220000000  0.4822120000000  0.5677300000000 1.0
C      1  0.5928240000000  0.4530380000000  0.5348800000000 1.0
C      1  0.5321490000000  0.4773560000000  0.5770080000000 1.0
C      1  0.4865690000000  0.5001430000000  0.5835820000000 1.0
C      1  0.5133550000000  0.5560710000000  0.4982770000000 1.0
C      1  0.5701530000000  0.4288900000000  0.4498240000000 1.0
C      1  0.6129930000000  0.5383210000000  0.4804900000000 1.0
C      1  0.4608650000000  0.3999370000000  0.4524940000000 1.0
C      1  0.4859750000000  0.4867150000000  0.4385890000000 1.0
C      1  0.5404330000000  0.5465310000000  0.4494000000000 1.0
C      1  0.5531120000000  0.4753320000000  0.4581590000000 1.0
C      1  0.4672350000000  0.4814600000000  0.5982830000000 1.0
C      1  0.5934920000000  0.5406410000000  0.5264450000000 1.0
C      1  0.5076740000000  0.4673510000000  0.4021030000000 1.0
C      1  0.4938130000000  0.4057700000000  0.5357530000000 1.0
C      1  0.5530580000000  0.4053870000000  0.4557130000000 1.0
C      1  0.4469900000000  0.4965820000000  0.5544860000000 1.0
C      1  0.3866220000000  0.4708200000000  0.4727660000000 1.0
C      1  0.5808470000000  0.5552630000000  0.5487610000000 1.0
C      1  0.4730780000000  0.5310750000000  0.4065180000000 1.0
C      1  0.4480990000000  0.5963760000000  0.5161580000000 1.0
C      1  0.4974770000000  0.5242590000000  0.5988550000000 1.0
C      1  0.4323580000000  0.4656090000000  0.5096650000000 1.0
C      1  0.4043100000000  0.4289490000000  0.5170900000000 1.0
C      1  0.6038090000000  0.4538760000000  0.4819840000000 1.0
C      1  0.5492610000000  0.5912810000000  0.4408570000000 1.0
C      1  0.5001100000000  0.4418240000000  0.4977070000000 1.0
C      1  0.5686960000000  0.4936110000000  0.5960160000000 1.0
C      1  0.5171740000000  0.4264460000000  0.5841080000000 1.0
C      1  0.4475010000000  0.4739080000000  0.5754860000000 1.0
C      1  0.4750390000000  0.5164290000000  0.4421180000000 1.0
C      1  0.4706970000000  0.4039010000000  0.5553180000000 1.0
C      1  0.4834730000000  0.4477160000000  0.4023330000000 1.0
C      1  0.5917300000000  0.5189550000000  0.4551460000000 1.0
C      1  0.4283690000000  0.4231200000000  0.5462090000000 1.0
C      1  0.4819580000000  0.5746730000000  0.5894960000000 1.0
C      1  0.5376310000000  0.5268310000000  0.4036920000000 1.0
C      1  0.4837720000000  0.5380240000000  0.5263120000000 1.0
C      1  0.5129660000000  0.4767680000000  0.5204940000000 1.0
C      1  0.4464450000000  0.5378430000000  0.5980550000000 1.0
C      1  0.5165000000000  0.4179680000000  0.4229080000000 1.0
C      1  0.5296780000000  0.5720540000000  0.5734900000000 1.0
C      1  0.4402520000000  0.5855610000000  0.5584830000000 1.0
C      1  0.4558950000000  0.4607650000000  0.4140790000000 1.0
C      1  0.4909400000000  0.4413410000000  0.5834960000000 1.0
C      1  0.4123760000000  0.5579100000000  0.4419160000000 1.0
C      1  0.4899670000000  0.4199440000000  0.4122050000000 1.0
C      1  0.5497640000000  0.5006310000000  0.3944160000000 1.0
C      1  0.6219240000000  0.5107500000000  0.4851940000000 1.0
C      1  0.5446310000000  0.4152190000000  0.4833860000000 1.0
C      1  0.4718040000000  0.5130340000000  0.5610280000000 1.0
C      1  0.5358510000000  0.4949400000000  0.6042070000000 1.0
C      1  0.4902240000000  0.5454070000000  0.4806180000000 1.0
C      1  0.4569070000000  0.5612210000000  0.4482330000000 1.0
C      1  0.5410090000000  0.5354650000000  0.5490700000000 1.0
C      1  0.5249620000000  0.5825780000000  0.4282870000000 1.0
C      1  0.5174560000000  0.4492180000000  0.4540480000000 1.0
C      1  0.4533220000000  0.5090320000000  0.5019460000000 1.0
C      1  0.6057820000000  0.4968780000000  0.5075710000000 1.0
C      1  0.4461780000000  0.4015880000000  0.5388630000000 1.0
C      1  0.4476590000000  0.4297540000000  0.4905100000000 1.0
C      1  0.4807140000000  0.3869880000000  0.4717950000000 1.0
C      1  0.5731040000000  0.4301250000000  0.5367870000000 1.0
C      1  0.4176720000000  0.4217140000000  0.4913660000000 1.0
C      1  0.4690250000000  0.5837280000000  0.5647120000000 1.0
C      1  0.5711870000000  0.4081420000000  0.5178140000000 1.0
C      1  0.5083460000000  0.5872910000000  0.5887680000000 1.0
C      1  0.5097990000000  0.5803710000000  0.4028950000000 1.0
C      1  0.5847490000000  0.4328070000000  0.4758270000000 1.0
C      1  0.5191880000000  0.5540170000000  0.5518010000000 1.0
C      1  0.5428010000000  0.4465210000000  0.5832160000000 1.0
C      1  0.5666800000000  0.5866300000000  0.5108880000000 1.0
C      1  0.5250620000000  0.5828210000000  0.4855910000000 1.0
C      1  0.5252590000000  0.4172290000000  0.5556000000000 1.0
C      1  0.5293450000000  0.6041730000000  0.5328010000000 1.0
C      1  0.4596260000000  0.5749710000000  0.3924720000000 1.0
C      1  0.4327770000000  0.4944990000000  0.5186880000000 1.0
C      1  0.4439570000000  0.5263540000000  0.4789680000000 1.0
C      1  0.5419220000000  0.5226740000000  0.4682520000000 1.0
C      1  0.5078540000000  0.5683440000000  0.4474770000000 1.0
C      1  0.4320630000000  0.5507890000000  0.5226830000000 1.0
C      1  0.4841040000000  0.4650310000000  0.4899540000000 1.0
C      1  0.5428830000000  0.4679620000000  0.4859700000000 1.0
C      1  0.4063010000000  0.5367980000000  0.5134150000000 1.0
C      1  0.4684450000000  0.6043650000000  0.4675340000000 1.0
C      1  0.4633120000000  0.4272160000000  0.4639350000000 1.0
C      1  0.5839450000000  0.4718680000000  0.4103330000000 1.0
C      1  0.4385520000000  0.4361380000000  0.5713880000000 1.0
C      1  0.4889080000000  0.4625680000000  0.6072710000000 1.0
C      1  0.5751640000000  0.4681350000000  0.5816030000000 1.0
C      1  0.5132870000000  0.5189600000000  0.4204940000000 1.0
C      1  0.5474970000000  0.3919240000000  0.5161270000000 1.0
C      1  0.5374290000000  0.4730370000000  0.3974050000000 1.0
C      1  0.6095950000000  0.4716500000000  0.4616000000000 1.0
C      1  0.4028680000000  0.4891130000000  0.5640780000000 1.0
C      1  0.4340350000000  0.6046610000000  0.5388070000000 1.0
C      1  0.5123970000000  0.4776380000000  0.6166430000000 1.0
C      1  0.4559900000000  0.5323210000000  0.5211480000000 1.0
C      1  0.5411580000000  0.5988750000000  0.5062790000000 1.0
C      1  0.4141520000000  0.5778840000000  0.4861550000000 1.0
C      1  0.4636080000000  0.6161750000000  0.5032780000000 1.0
C      1  0.5268000000000  0.4414490000000  0.4828460000000 1.0
C      1  0.4193780000000  0.5839010000000  0.4565340000000 1.0
C      1  0.4498940000000  0.5498140000000  0.4001160000000 1.0
C      1  0.5537730000000  0.4287920000000  0.5588400000000 1.0
C      1  0.5001910000000  0.5312240000000  0.4555470000000 1.0
C      1  0.5688330000000  0.5803620000000  0.5397180000000 1.0
C      1  0.4710080000000  0.4043860000000  0.4263930000000 1.0
C      1  0.5106490000000  0.3916430000000  0.4671630000000 1.0
C      1  0.4072120000000  0.4955350000000  0.4384770000000 1.0
C      1  0.5443850000000  0.5495140000000  0.5910590000000 1.0
C      1  0.5790360000000  0.5210120000000  0.4269030000000 1.0
C      1  0.3985320000000  0.5526190000000  0.4890350000000 1.0
C      1  0.4841900000000  0.4855270000000  0.5234040000000 1.0
C      1  0.4218830000000  0.5115420000000  0.5581970000000 1.0
C      1  0.5912140000000  0.5001590000000  0.5539580000000 1.0
C      1  0.4185180000000  0.4681290000000  0.5790100000000 1.0
C      1  0.5747640000000  0.4988250000000  0.5017520000000 1.0
C      1  0.4976590000000  0.5986170000000  0.4777960000000 1.0
C      1  0.6035060000000  0.5138650000000  0.5317970000000 1.0
C      1  0.4489370000000  0.5891670000000  0.4510790000000 1.0
C      1  0.5005740000000  0.5966210000000  0.5301180000000 1.0
C      1  0.5503570000000  0.4862870000000  0.5551360000000 1.0
C      1  0.5460600000000  0.5917170000000  0.5550670000000 1.0
C      1  0.4947610000000  0.3804910000000  0.5209020000000 1.0
C      1  0.4714990000000  0.5030370000000  0.3950670000000 1.0
C      1  0.5490660000000  0.5735540000000  0.4642960000000 1.0
C      1  0.4597390000000  0.5521460000000  0.4781850000000 1.0
C      1  0.5635220000000  0.5390780000000  0.5688510000000 1.0
C      1  0.4021380000000  0.5112370000000  0.4619500000000 1.0
C      1  0.4938690000000  0.5124310000000  0.5380230000000 1.0
C      1  0.3979810000000  0.4688190000000  0.4454110000000 1.0
C      1  0.5559190000000  0.5393310000000  0.4239610000000 1.0
C      1  0.5243600000000  0.4887070000000  0.4962180000000 1.0
C      1  0.4960440000000  0.4252280000000  0.4550220000000 1.0
C      1  0.4619400000000  0.5406000000000  0.5696860000000 1.0
C      1  0.4257560000000  0.5380210000000  0.5728510000000 1.0
C      1  0.5279320000000  0.3924250000000  0.4940830000000 1.0
C      1  0.6151480000000  0.4985610000000  0.4587180000000 1.0
C      1  0.4770100000000  0.5471360000000  0.6016340000000 1.0
END
