TITL C-951340-9809-243 2.1444745317255e-06 125000 -750.831475429115 0 0 119 (C1) n - 1
REM
REM in /home/bkarasulu/work/CARBON/AIRSS/Generating-Clusters/EDIP-Nigel-Params/with-SteepDescent/Only-C1/SD-CG/HFTN-CG
REM
REM
REM
REM
REM
REM ./C.cell (11c1c37f851c82e70ff6c80c92926a4b)
REM
REM compiler GCC version 9.2.1 20190827 (Red Hat 9.2.1-1)
REM options -cpp -mtune=generic -march=x86-64 -g -O0 -fpre-include=/usr/include/finclude/math-vector-fortran.h
REM seed -684467668 -1547636347 1920347705 -2111681845 1826901046 -1620544137 362910264 1191728502 945241176 -879073339 1120576270 -1364629631 -195902794 -201464537 1861516967 1636294561 543738701 -662648715 2025779557 1680639525 1271744924 -874014620 -1257587801 -1495620670 1514413437 -2039023216 1564534206 -1041516556 -1047329088 2014891026 594745324 2020696927 1865035623
REM
CELL 1.54180   50.00000   50.00000   50.00000   90.00000   90.00000   90.00000
LATT -1
SFAC C  
C      1  0.4467020000000  0.5728750000000  0.4566580000000 1.0
C      1  0.4584850000000  0.3894500000000  0.5051040000000 1.0
C      1  0.4257380000000  0.4606700000000  0.4709820000000 1.0
C      1  0.4678540000000  0.5689400000000  0.5166800000000 1.0
C      1  0.5041000000000  0.5508160000000  0.5511990000000 1.0
C      1  0.5627080000000  0.4426240000000  0.4577790000000 1.0
C      1  0.4868950000000  0.4679390000000  0.5466260000000 1.0
C      1  0.5489200000000  0.5591730000000  0.4539760000000 1.0
C      1  0.4923430000000  0.4733610000000  0.4120130000000 1.0
C      1  0.4572590000000  0.5432460000000  0.5198830000000 1.0
C      1  0.5079140000000  0.5447740000000  0.4226190000000 1.0
C      1  0.4846170000000  0.4206240000000  0.4781960000000 1.0
C      1  0.4362930000000  0.4034600000000  0.5107770000000 1.0
C      1  0.5394630000000  0.5976100000000  0.4851390000000 1.0
C      1  0.5349720000000  0.4960460000000  0.4794040000000 1.0
C      1  0.5894320000000  0.4965550000000  0.4836500000000 1.0
C      1  0.5235480000000  0.5123390000000  0.5787210000000 1.0
C      1  0.4643220000000  0.4296200000000  0.4559480000000 1.0
C      1  0.4667310000000  0.4377950000000  0.5719320000000 1.0
C      1  0.5142190000000  0.4848070000000  0.5827460000000 1.0
C      1  0.4628740000000  0.4649620000000  0.5871520000000 1.0
C      1  0.5343940000000  0.4172790000000  0.4842510000000 1.0
C      1  0.4137250000000  0.5430570000000  0.5428220000000 1.0
C      1  0.4968200000000  0.4675410000000  0.4872910000000 1.0
C      1  0.4966430000000  0.5173740000000  0.4254510000000 1.0
C      1  0.4606440000000  0.4459110000000  0.5118360000000 1.0
C      1  0.5236320000000  0.4535130000000  0.5198830000000 1.0
C      1  0.5215490000000  0.4156660000000  0.4567240000000 1.0
C      1  0.4929550000000  0.4393710000000  0.5547510000000 1.0
C      1  0.5566700000000  0.4681370000000  0.5533980000000 1.0
C      1  0.4164450000000  0.5535180000000  0.4894690000000 1.0
C      1  0.5182010000000  0.4801180000000  0.5030640000000 1.0
C      1  0.5565900000000  0.5003520000000  0.5448050000000 1.0
C      1  0.5301460000000  0.5251420000000  0.5196920000000 1.0
C      1  0.4657890000000  0.4812510000000  0.4512100000000 1.0
C      1  0.5665230000000  0.4508010000000  0.5082160000000 1.0
C      1  0.5880940000000  0.4774260000000  0.5415900000000 1.0
C      1  0.4836100000000  0.3947570000000  0.4944060000000 1.0
C      1  0.4026690000000  0.5229590000000  0.5261260000000 1.0
C      1  0.5497130000000  0.4489570000000  0.5309950000000 1.0
C      1  0.5772430000000  0.5605810000000  0.5099800000000 1.0
C      1  0.4188620000000  0.4473820000000  0.5285220000000 1.0
C      1  0.4353740000000  0.4313870000000  0.5096480000000 1.0
C      1  0.4408930000000  0.4498910000000  0.5520380000000 1.0
C      1  0.5519000000000  0.4716510000000  0.4226740000000 1.0
C      1  0.6038580000000  0.4756850000000  0.4952130000000 1.0
C      1  0.4890170000000  0.5945580000000  0.4780480000000 1.0
C      1  0.5057050000000  0.5077380000000  0.5227050000000 1.0
C      1  0.5115940000000  0.5911910000000  0.5241430000000 1.0
C      1  0.5454990000000  0.5207970000000  0.4942440000000 1.0
C      1  0.4942120000000  0.4286460000000  0.4414840000000 1.0
C      1  0.5097970000000  0.5045980000000  0.4602010000000 1.0
C      1  0.4413350000000  0.5367480000000  0.5425890000000 1.0
C      1  0.5326610000000  0.4633220000000  0.5742400000000 1.0
C      1  0.4750030000000  0.5267470000000  0.5920210000000 1.0
C      1  0.5018120000000  0.5587080000000  0.5803570000000 1.0
C      1  0.5792400000000  0.5434330000000  0.5366810000000 1.0
C      1  0.5817320000000  0.5137730000000  0.5301510000000 1.0
C      1  0.4469930000000  0.4897410000000  0.5238680000000 1.0
C      1  0.5697860000000  0.4947470000000  0.4618490000000 1.0
C      1  0.5114250000000  0.6039890000000  0.4966790000000 1.0
C      1  0.4904440000000  0.5641330000000  0.4364440000000 1.0
C      1  0.4327370000000  0.4696980000000  0.5746970000000 1.0
C      1  0.4183390000000  0.4770060000000  0.5186540000000 1.0
C      1  0.5111100000000  0.4971590000000  0.4098130000000 1.0
C      1  0.4846970000000  0.4818010000000  0.5727050000000 1.0
C      1  0.5900520000000  0.5488870000000  0.4856380000000 1.0
C      1  0.4504130000000  0.4562690000000  0.4578870000000 1.0
C      1  0.4951500000000  0.4773470000000  0.4593620000000 1.0
C      1  0.4270050000000  0.5124750000000  0.4544540000000 1.0
C      1  0.5345090000000  0.5863520000000  0.4575060000000 1.0
C      1  0.4104970000000  0.5275190000000  0.4979690000000 1.0
C      1  0.5049030000000  0.4570080000000  0.4343400000000 1.0
C      1  0.4627260000000  0.5832400000000  0.4907160000000 1.0
C      1  0.5053890000000  0.4017870000000  0.5140010000000 1.0
C      1  0.5510100000000  0.5170420000000  0.5689360000000 1.0
C      1  0.4692010000000  0.5306740000000  0.4646280000000 1.0
C      1  0.5019570000000  0.4315290000000  0.5215290000000 1.0
C      1  0.5050970000000  0.5749160000000  0.4612330000000 1.0
C      1  0.4535380000000  0.5054430000000  0.4673910000000 1.0
C      1  0.5371080000000  0.5777570000000  0.5288010000000 1.0
C      1  0.5170020000000  0.4401340000000  0.5709120000000 1.0
C      1  0.4731760000000  0.5559650000000  0.5873910000000 1.0
C      1  0.5703040000000  0.4690880000000  0.4458240000000 1.0
C      1  0.4130970000000  0.4790280000000  0.4883980000000 1.0
C      1  0.5375030000000  0.5439350000000  0.4768730000000 1.0
C      1  0.5306250000000  0.3970570000000  0.5033040000000 1.0
C      1  0.4674090000000  0.5145870000000  0.4158880000000 1.0
C      1  0.4471210000000  0.5089400000000  0.5499870000000 1.0
C      1  0.4829370000000  0.5185550000000  0.5049030000000 1.0
C      1  0.4462610000000  0.5315040000000  0.4273460000000 1.0
C      1  0.5523630000000  0.5211590000000  0.4249590000000 1.0
C      1  0.4234330000000  0.4965780000000  0.5640770000000 1.0
C      1  0.4660700000000  0.4853950000000  0.4210390000000 1.0
C      1  0.5328090000000  0.5496110000000  0.5394510000000 1.0
C      1  0.5594240000000  0.4334260000000  0.4853240000000 1.0
C      1  0.5764850000000  0.5174790000000  0.5002080000000 1.0
C      1  0.4940200000000  0.5222550000000  0.5474020000000 1.0
C      1  0.4943820000000  0.5264810000000  0.4773870000000 1.0
C      1  0.5374040000000  0.4964420000000  0.4221130000000 1.0
C      1  0.5915080000000  0.4626070000000  0.5161250000000 1.0
C      1  0.5328470000000  0.4494450000000  0.4238910000000 1.0
C      1  0.5740900000000  0.5199950000000  0.4447640000000 1.0
C      1  0.4103910000000  0.5064350000000  0.4779900000000 1.0
C      1  0.5563790000000  0.5440060000000  0.5572710000000 1.0
C      1  0.4743390000000  0.5097950000000  0.5664010000000 1.0
C      1  0.4601710000000  0.5003430000000  0.4986710000000 1.0
C      1  0.5433810000000  0.4284530000000  0.4409410000000 1.0
C      1  0.4856170000000  0.4422640000000  0.4983710000000 1.0
C      1  0.4629730000000  0.5513490000000  0.4445180000000 1.0
C      1  0.5085860000000  0.5319970000000  0.5948120000000 1.0
C      1  0.5777790000000  0.5480210000000  0.4579760000000 1.0
C      1  0.5375660000000  0.5462760000000  0.4285560000000 1.0
C      1  0.5101120000000  0.5510240000000  0.4788280000000 1.0
C      1  0.4605030000000  0.4649790000000  0.5332630000000 1.0
C      1  0.5534890000000  0.5785730000000  0.5054740000000 1.0
C      1  0.4320820000000  0.5752680000000  0.4810250000000 1.0
C      1  0.4916330000000  0.5718460000000  0.5325370000000 1.0
C      1  0.4047070000000  0.4955340000000  0.5385990000000 1.0
END
