TITL C-950534-5965-462 3.22934439962728e-07 125000 -609.89383189127 0 0 100 (C1) n - 1
REM
REM in /home/bkarasulu/work/CARBON/AIRSS/Generating-Clusters/EDIP-Nigel-Params/with-SteepDescent/Only-C1/SD-CG/HFTN-CG
REM
REM
REM
REM
REM
REM ./C.cell (11c1c37f851c82e70ff6c80c92926a4b)
REM
REM compiler GCC version 9.2.1 20190827 (Red Hat 9.2.1-1)
REM options -cpp -mtune=generic -march=x86-64 -g -O0 -fpre-include=/usr/include/finclude/math-vector-fortran.h
REM seed 472276281 1595948483 -1666197474 -1063545527 340561300 1935615988 -1320182703 -2014900811 433289875 -704958222 87154616 383786705 393453626 -1005210856 710082970 -1754520711 2007203827 -558830607 1793461939 1794793109 1893234521 -1677152068 1955455715 1133973640 -423033307 -1049279358 1266285658 -1117360935 -344730850 -1765966274 -1134792791 -1792467524 19155292
REM
CELL 1.54180   50.00000   50.00000   50.00000   90.00000   90.00000   90.00000
LATT -1
SFAC C  
C      1  0.4667490000000  0.4835260000000  0.4882600000000 1.0
C      1  0.4555380000000  0.4950290000000  0.5403060000000 1.0
C      1  0.4940880000000  0.5737200000000  0.5026030000000 1.0
C      1  0.4234940000000  0.4408080000000  0.5270670000000 1.0
C      1  0.5290360000000  0.5276810000000  0.5850710000000 1.0
C      1  0.5015690000000  0.5281390000000  0.4614480000000 1.0
C      1  0.5537760000000  0.4613840000000  0.4466430000000 1.0
C      1  0.4981670000000  0.4474320000000  0.4458480000000 1.0
C      1  0.5714900000000  0.4824950000000  0.4572230000000 1.0
C      1  0.5765010000000  0.4538460000000  0.5015950000000 1.0
C      1  0.4830690000000  0.4867000000000  0.4175950000000 1.0
C      1  0.4740050000000  0.5177350000000  0.4584010000000 1.0
C      1  0.4651430000000  0.4649430000000  0.5325510000000 1.0
C      1  0.5123700000000  0.4846780000000  0.5719490000000 1.0
C      1  0.5219620000000  0.5530570000000  0.4291270000000 1.0
C      1  0.5414100000000  0.4515190000000  0.5362190000000 1.0
C      1  0.4386040000000  0.4628330000000  0.5714730000000 1.0
C      1  0.4508920000000  0.5668220000000  0.4514900000000 1.0
C      1  0.5376130000000  0.5755710000000  0.4758310000000 1.0
C      1  0.5721470000000  0.5441340000000  0.4869880000000 1.0
C      1  0.5523670000000  0.5668150000000  0.5240520000000 1.0
C      1  0.5192550000000  0.4819370000000  0.5247010000000 1.0
C      1  0.5334570000000  0.4986140000000  0.5870700000000 1.0
C      1  0.4889550000000  0.5141700000000  0.4151850000000 1.0
C      1  0.4468740000000  0.5497740000000  0.4967650000000 1.0
C      1  0.5386170000000  0.5049900000000  0.4292640000000 1.0
C      1  0.5055100000000  0.5976600000000  0.5720030000000 1.0
C      1  0.5660190000000  0.5027770000000  0.5572400000000 1.0
C      1  0.5607230000000  0.5359330000000  0.4607620000000 1.0
C      1  0.5028890000000  0.5414640000000  0.5824520000000 1.0
C      1  0.5441290000000  0.4389810000000  0.4642900000000 1.0
C      1  0.4556680000000  0.5253250000000  0.4834560000000 1.0
C      1  0.5430750000000  0.5864610000000  0.5415640000000 1.0
C      1  0.4673110000000  0.5019110000000  0.5847380000000 1.0
C      1  0.4406150000000  0.5428560000000  0.5233680000000 1.0
C      1  0.5527020000000  0.5287510000000  0.5555870000000 1.0
C      1  0.4791560000000  0.5255180000000  0.5144370000000 1.0
C      1  0.4884040000000  0.4840840000000  0.5875830000000 1.0
C      1  0.4633560000000  0.5680390000000  0.4795850000000 1.0
C      1  0.4885880000000  0.5012310000000  0.4998560000000 1.0
C      1  0.4896340000000  0.4284610000000  0.5561140000000 1.0
C      1  0.5005870000000  0.4713430000000  0.4626500000000 1.0
C      1  0.5281520000000  0.5324530000000  0.5111740000000 1.0
C      1  0.4291800000000  0.5470630000000  0.4490530000000 1.0
C      1  0.5404940000000  0.5559640000000  0.4531020000000 1.0
C      1  0.5084540000000  0.5011650000000  0.5461460000000 1.0
C      1  0.5797210000000  0.4771430000000  0.4842640000000 1.0
C      1  0.5300920000000  0.5841030000000  0.5663370000000 1.0
C      1  0.5245590000000  0.4882890000000  0.4665510000000 1.0
C      1  0.4368580000000  0.5143360000000  0.5219170000000 1.0
C      1  0.4207240000000  0.4762530000000  0.4359470000000 1.0
C      1  0.5800270000000  0.5309410000000  0.5124010000000 1.0
C      1  0.4667900000000  0.5289730000000  0.4304350000000 1.0
C      1  0.5430630000000  0.4969040000000  0.5120680000000 1.0
C      1  0.4709740000000  0.5595130000000  0.4304320000000 1.0
C      1  0.5698370000000  0.4617340000000  0.5298840000000 1.0
C      1  0.5345510000000  0.4325410000000  0.5132420000000 1.0
C      1  0.5125950000000  0.5117040000000  0.4837930000000 1.0
C      1  0.4283630000000  0.5015000000000  0.4472930000000 1.0
C      1  0.4878360000000  0.4410130000000  0.4942310000000 1.0
C      1  0.4366100000000  0.5244580000000  0.4315650000000 1.0
C      1  0.5685000000000  0.5455950000000  0.5353810000000 1.0
C      1  0.4612730000000  0.4123390000000  0.5184750000000 1.0
C      1  0.4877770000000  0.4123900000000  0.5046130000000 1.0
C      1  0.5263720000000  0.5251410000000  0.5411210000000 1.0
C      1  0.5139430000000  0.5234300000000  0.4312410000000 1.0
C      1  0.4206890000000  0.5036340000000  0.4992160000000 1.0
C      1  0.4776390000000  0.4599410000000  0.4260090000000 1.0
C      1  0.5583580000000  0.5686780000000  0.4953890000000 1.0
C      1  0.4196660000000  0.5168350000000  0.4717320000000 1.0
C      1  0.4452970000000  0.4903840000000  0.5680050000000 1.0
C      1  0.4623720000000  0.4207190000000  0.5484170000000 1.0
C      1  0.4834710000000  0.4304550000000  0.4651210000000 1.0
C      1  0.4454480000000  0.4470760000000  0.5474730000000 1.0
C      1  0.4979260000000  0.5585670000000  0.4657760000000 1.0
C      1  0.4423000000000  0.4327700000000  0.5053640000000 1.0
C      1  0.5914550000000  0.5051560000000  0.5165050000000 1.0
C      1  0.5687350000000  0.4915710000000  0.5295940000000 1.0
C      1  0.5242770000000  0.4202030000000  0.4541690000000 1.0
C      1  0.5152040000000  0.5876110000000  0.4889060000000 1.0
C      1  0.5594140000000  0.5089620000000  0.4492910000000 1.0
C      1  0.4051430000000  0.4813230000000  0.5038810000000 1.0
C      1  0.5586490000000  0.4886840000000  0.5800650000000 1.0
C      1  0.5346420000000  0.4765090000000  0.4309010000000 1.0
C      1  0.4632100000000  0.4567650000000  0.5030170000000 1.0
C      1  0.5006380000000  0.5460460000000  0.5117060000000 1.0
C      1  0.5020400000000  0.4072280000000  0.4695190000000 1.0
C      1  0.4495450000000  0.4522760000000  0.4269340000000 1.0
C      1  0.4797890000000  0.5128410000000  0.5428630000000 1.0
C      1  0.4981840000000  0.5698790000000  0.4375080000000 1.0
C      1  0.4911430000000  0.4539670000000  0.5437940000000 1.0
C      1  0.5040770000000  0.5686260000000  0.5708660000000 1.0
C      1  0.4302590000000  0.4656220000000  0.4122590000000 1.0
C      1  0.5169320000000  0.4537130000000  0.4999330000000 1.0
C      1  0.4052120000000  0.4598580000000  0.5193760000000 1.0
C      1  0.4769670000000  0.5286130000000  0.5777330000000 1.0
C      1  0.4745510000000  0.4857820000000  0.4586150000000 1.0
C      1  0.5557830000000  0.4342710000000  0.4916830000000 1.0
C      1  0.5177530000000  0.4553650000000  0.5592960000000 1.0
C      1  0.5409750000000  0.4759760000000  0.4880060000000 1.0
END
