TITL C-951338-5626-754 -3.83051825734858e-07 125000 -975.158167176254 0 0 157 (C1) n - 1
REM
REM in /home/bkarasulu/work/CARBON/AIRSS/Generating-Clusters/EDIP-Nigel-Params/with-SteepDescent/Only-C1/SD-CG/HFTN-CG
REM
REM
REM
REM
REM
REM ./C.cell (11c1c37f851c82e70ff6c80c92926a4b)
REM
REM compiler GCC version 9.2.1 20190827 (Red Hat 9.2.1-1)
REM options -cpp -mtune=generic -march=x86-64 -g -O0 -fpre-include=/usr/include/finclude/math-vector-fortran.h
REM seed 1810611320 -212623294 -1696254372 -254042138 -1337738079 697799223 1390173836 1240778429 1321670175 -1002585963 198549198 356012947 -1446037737 1648263413 1966251983 2140673547 968282066 1136632653 503249723 -1659480094 -1230422288 499831180 38560979 -781030961 1394076220 620671 -1324282721 1762129991 978270815 784145179 -94221282 538793991 1322400409
REM
CELL 1.54180   50.00000   50.00000   50.00000   90.00000   90.00000   90.00000
LATT -1
SFAC C  
C      1  0.5265470000000  0.4161600000000  0.4516060000000 1.0
C      1  0.4698220000000  0.5586880000000  0.4400790000000 1.0
C      1  0.4813260000000  0.5161930000000  0.6025730000000 1.0
C      1  0.6001200000000  0.4918040000000  0.5070470000000 1.0
C      1  0.4070550000000  0.5104280000000  0.4367700000000 1.0
C      1  0.5560410000000  0.4154450000000  0.5465810000000 1.0
C      1  0.5275940000000  0.5742260000000  0.4201290000000 1.0
C      1  0.4410920000000  0.5461160000000  0.4421230000000 1.0
C      1  0.5435500000000  0.5791460000000  0.5604890000000 1.0
C      1  0.4492040000000  0.4969230000000  0.4615440000000 1.0
C      1  0.5380890000000  0.4707890000000  0.5407040000000 1.0
C      1  0.5148650000000  0.5594040000000  0.5337830000000 1.0
C      1  0.5496930000000  0.4998850000000  0.4662920000000 1.0
C      1  0.3991290000000  0.4543770000000  0.5015640000000 1.0
C      1  0.4660870000000  0.5500230000000  0.4831630000000 1.0
C      1  0.4667400000000  0.5867750000000  0.4484470000000 1.0
C      1  0.5073420000000  0.5373370000000  0.5539090000000 1.0
C      1  0.4989620000000  0.6076320000000  0.5367290000000 1.0
C      1  0.5222640000000  0.4959990000000  0.4488270000000 1.0
C      1  0.4366230000000  0.4639050000000  0.5792840000000 1.0
C      1  0.4380730000000  0.4548070000000  0.4804680000000 1.0
C      1  0.5177200000000  0.4644700000000  0.4583880000000 1.0
C      1  0.4367180000000  0.4111510000000  0.4968930000000 1.0
C      1  0.5978370000000  0.4707840000000  0.4863310000000 1.0
C      1  0.5808050000000  0.5020580000000  0.5491340000000 1.0
C      1  0.4503050000000  0.5077650000000  0.4088730000000 1.0
C      1  0.5228270000000  0.4466730000000  0.5315160000000 1.0
C      1  0.4463940000000  0.5292100000000  0.4823610000000 1.0
C      1  0.4921990000000  0.5984830000000  0.4473650000000 1.0
C      1  0.4657220000000  0.4050490000000  0.4878020000000 1.0
C      1  0.4177990000000  0.4327030000000  0.4840630000000 1.0
C      1  0.5449590000000  0.5214050000000  0.4847360000000 1.0
C      1  0.4824350000000  0.6174840000000  0.4663860000000 1.0
C      1  0.5571870000000  0.5911700000000  0.5114200000000 1.0
C      1  0.4197340000000  0.4932850000000  0.5597930000000 1.0
C      1  0.4581570000000  0.6059890000000  0.5089500000000 1.0
C      1  0.5031070000000  0.4903020000000  0.4017430000000 1.0
C      1  0.5264450000000  0.5278380000000  0.5982060000000 1.0
C      1  0.3988090000000  0.4859790000000  0.4255830000000 1.0
C      1  0.4653900000000  0.4473690000000  0.5174930000000 1.0
C      1  0.4039030000000  0.5389260000000  0.4776950000000 1.0
C      1  0.4745540000000  0.4946830000000  0.4430930000000 1.0
C      1  0.4332510000000  0.5215210000000  0.4287570000000 1.0
C      1  0.5038600000000  0.4637880000000  0.4141460000000 1.0
C      1  0.4520440000000  0.5483230000000  0.5308920000000 1.0
C      1  0.5547750000000  0.4639190000000  0.5655790000000 1.0
C      1  0.5085160000000  0.5049450000000  0.6034780000000 1.0
C      1  0.6025880000000  0.5197080000000  0.5571670000000 1.0
C      1  0.4732900000000  0.4039030000000  0.4588440000000 1.0
C      1  0.4468770000000  0.4924690000000  0.5133560000000 1.0
C      1  0.5683000000000  0.4497350000000  0.4594680000000 1.0
C      1  0.5529380000000  0.4944270000000  0.4082370000000 1.0
C      1  0.4626980000000  0.5005110000000  0.4896400000000 1.0
C      1  0.5353660000000  0.5442750000000  0.4705940000000 1.0
C      1  0.4387450000000  0.5857480000000  0.5019040000000 1.0
C      1  0.5007980000000  0.6119050000000  0.4885160000000 1.0
C      1  0.4411440000000  0.5579040000000  0.5563260000000 1.0
C      1  0.4575990000000  0.5521120000000  0.5782190000000 1.0
C      1  0.5328890000000  0.3836040000000  0.5201010000000 1.0
C      1  0.4415380000000  0.4375650000000  0.5652200000000 1.0
C      1  0.5272660000000  0.4645170000000  0.4865090000000 1.0
C      1  0.5081330000000  0.5485990000000  0.5823110000000 1.0
C      1  0.5922630000000  0.4454700000000  0.5005610000000 1.0
C      1  0.4606770000000  0.4453000000000  0.4305530000000 1.0
C      1  0.5733030000000  0.5105840000000  0.4230690000000 1.0
C      1  0.5482810000000  0.5948150000000  0.5371260000000 1.0
C      1  0.4543520000000  0.4187660000000  0.4432430000000 1.0
C      1  0.5166290000000  0.4885140000000  0.5547540000000 1.0
C      1  0.5486180000000  0.5179650000000  0.5797480000000 1.0
C      1  0.5363350000000  0.5093480000000  0.5105720000000 1.0
C      1  0.4284750000000  0.5805960000000  0.4762790000000 1.0
C      1  0.5541440000000  0.4665960000000  0.4064100000000 1.0
C      1  0.5416560000000  0.5491740000000  0.4145810000000 1.0
C      1  0.5893790000000  0.5440360000000  0.5597900000000 1.0
C      1  0.4900520000000  0.5271920000000  0.5121860000000 1.0
C      1  0.5556200000000  0.5593160000000  0.4552400000000 1.0
C      1  0.5567370000000  0.4856360000000  0.5135580000000 1.0
C      1  0.5826680000000  0.5140010000000  0.5067590000000 1.0
C      1  0.5685470000000  0.5406720000000  0.4237390000000 1.0
C      1  0.4943980000000  0.5393680000000  0.4091390000000 1.0
C      1  0.4984520000000  0.5675450000000  0.4163290000000 1.0
C      1  0.4806000000000  0.5115750000000  0.4084490000000 1.0
C      1  0.4427450000000  0.4816930000000  0.4027060000000 1.0
C      1  0.5951360000000  0.4803170000000  0.5332110000000 1.0
C      1  0.4846750000000  0.4651430000000  0.4381750000000 1.0
C      1  0.5878910000000  0.5571970000000  0.4852000000000 1.0
C      1  0.4993210000000  0.4100950000000  0.4495990000000 1.0
C      1  0.4956740000000  0.5115030000000  0.4570900000000 1.0
C      1  0.4685580000000  0.4242070000000  0.5627530000000 1.0
C      1  0.4801200000000  0.5436030000000  0.5922740000000 1.0
C      1  0.4856590000000  0.4630880000000  0.5878510000000 1.0
C      1  0.5721080000000  0.4412490000000  0.5515380000000 1.0
C      1  0.4641990000000  0.5000370000000  0.5390470000000 1.0
C      1  0.5385330000000  0.5842780000000  0.4462860000000 1.0
C      1  0.4138980000000  0.5524820000000  0.5591890000000 1.0
C      1  0.5190370000000  0.4313530000000  0.5777680000000 1.0
C      1  0.4594700000000  0.4719470000000  0.5970420000000 1.0
C      1  0.4475370000000  0.4968890000000  0.5627440000000 1.0
C      1  0.4419650000000  0.4637790000000  0.5100270000000 1.0
C      1  0.5147290000000  0.5875210000000  0.4656400000000 1.0
C      1  0.5763690000000  0.4303130000000  0.4816060000000 1.0
C      1  0.5034100000000  0.5530280000000  0.5068610000000 1.0
C      1  0.4206320000000  0.5580760000000  0.4608770000000 1.0
C      1  0.4596590000000  0.4986940000000  0.6053320000000 1.0
C      1  0.5030700000000  0.4999130000000  0.5115070000000 1.0
C      1  0.3977590000000  0.5139560000000  0.4639530000000 1.0
C      1  0.4246710000000  0.4322900000000  0.5413460000000 1.0
C      1  0.4371430000000  0.4597810000000  0.4192620000000 1.0
C      1  0.5334310000000  0.4567870000000  0.5859380000000 1.0
C      1  0.4880210000000  0.4833300000000  0.4899070000000 1.0
C      1  0.4894620000000  0.4358460000000  0.5798830000000 1.0
C      1  0.5113190000000  0.4788630000000  0.5856610000000 1.0
C      1  0.5835260000000  0.5563650000000  0.5334550000000 1.0
C      1  0.4183470000000  0.5032610000000  0.5104330000000 1.0
C      1  0.5568460000000  0.3990860000000  0.5198830000000 1.0
C      1  0.5365220000000  0.4030140000000  0.4748280000000 1.0
C      1  0.5701610000000  0.5785010000000  0.4910230000000 1.0
C      1  0.4156150000000  0.4669640000000  0.4378990000000 1.0
C      1  0.4926790000000  0.4875240000000  0.5371230000000 1.0
C      1  0.5105610000000  0.5581630000000  0.4771810000000 1.0
C      1  0.4832740000000  0.4510620000000  0.4926310000000 1.0
C      1  0.5322640000000  0.4529740000000  0.4178990000000 1.0
C      1  0.5768310000000  0.5039090000000  0.4524450000000 1.0
C      1  0.5535270000000  0.5532500000000  0.5340290000000 1.0
C      1  0.5010280000000  0.5823310000000  0.5486260000000 1.0
C      1  0.4066590000000  0.5366540000000  0.5376530000000 1.0
C      1  0.5660390000000  0.5406630000000  0.5749970000000 1.0
C      1  0.5934030000000  0.5411280000000  0.5092850000000 1.0
C      1  0.4881580000000  0.5431690000000  0.4623570000000 1.0
C      1  0.5881460000000  0.4752430000000  0.4578310000000 1.0
C      1  0.5837620000000  0.4540160000000  0.5279030000000 1.0
C      1  0.4635590000000  0.4449760000000  0.4696740000000 1.0
C      1  0.5214950000000  0.5299840000000  0.4105470000000 1.0
C      1  0.5290780000000  0.5163680000000  0.5554390000000 1.0
C      1  0.5369260000000  0.4443170000000  0.4459680000000 1.0
C      1  0.4813780000000  0.3957010000000  0.5124190000000 1.0
C      1  0.4060520000000  0.5071990000000  0.5377790000000 1.0
C      1  0.5498230000000  0.5223550000000  0.5352450000000 1.0
C      1  0.4034850000000  0.4846860000000  0.4875530000000 1.0
C      1  0.5063010000000  0.4225380000000  0.4896930000000 1.0
C      1  0.5262570000000  0.4227960000000  0.5496890000000 1.0
C      1  0.4620270000000  0.5671110000000  0.5088830000000 1.0
C      1  0.5667050000000  0.4910350000000  0.5732130000000 1.0
C      1  0.4165710000000  0.4566070000000  0.5260680000000 1.0
C      1  0.4259680000000  0.4768550000000  0.4647070000000 1.0
C      1  0.5247920000000  0.4415250000000  0.5031110000000 1.0
C      1  0.5090170000000  0.3889740000000  0.5062530000000 1.0
C      1  0.5535530000000  0.4753730000000  0.4846160000000 1.0
C      1  0.4866520000000  0.6025970000000  0.5118670000000 1.0
C      1  0.5260990000000  0.5022130000000  0.4171980000000 1.0
C      1  0.4735990000000  0.5288340000000  0.5365920000000 1.0
C      1  0.5565080000000  0.4125120000000  0.4930680000000 1.0
C      1  0.4732020000000  0.4022840000000  0.5415450000000 1.0
C      1  0.5171360000000  0.5777780000000  0.5738860000000 1.0
C      1  0.5838060000000  0.5412110000000  0.4598020000000 1.0
C      1  0.4474700000000  0.4219810000000  0.5239930000000 1.0
C      1  0.4219660000000  0.5328710000000  0.5021480000000 1.0
END
