TITL C-950525-1983-639 -2.01675670671139e-06 125000 -1208.45097779953 0 0 192 (C1) n - 1
REM
REM in /home/bkarasulu/work/CARBON/AIRSS/Generating-Clusters/EDIP-Nigel-Params/with-SteepDescent/Only-C1/SD-CG/HFTN-CG
REM
REM
REM
REM
REM
REM ./C.cell (11c1c37f851c82e70ff6c80c92926a4b)
REM
REM compiler GCC version 9.2.1 20190827 (Red Hat 9.2.1-1)
REM options -cpp -mtune=generic -march=x86-64 -g -O0 -fpre-include=/usr/include/finclude/math-vector-fortran.h
REM seed 1945211847 1414982669 -1834262382 838658321 -192576636 -960903919 116139163 41334872 -1773509555 -620987236 658045613 -1700311637 785223626 -596803195 -2003858969 -1838084001 -1217010228 -926789692 786031548 -244045443 1189150621 -139630530 -1096056286 808939532 1918698856 1648119187 1718815701 -499398146 891431343 -2009171562 -1109258423 -2006241232 -1844711683
REM
CELL 1.54180   50.00000   50.00000   50.00000   90.00000   90.00000   90.00000
LATT -1
SFAC C  
C      1  0.4130340000000  0.4604640000000  0.4888120000000 1.0
C      1  0.4734310000000  0.4777990000000  0.5710770000000 1.0
C      1  0.5207120000000  0.4041470000000  0.5678210000000 1.0
C      1  0.4765230000000  0.4121130000000  0.4501410000000 1.0
C      1  0.5233840000000  0.6118590000000  0.5451320000000 1.0
C      1  0.5737840000000  0.4851010000000  0.4448780000000 1.0
C      1  0.4718290000000  0.5532180000000  0.5923880000000 1.0
C      1  0.4429110000000  0.5393170000000  0.5291980000000 1.0
C      1  0.4286090000000  0.5388080000000  0.5766260000000 1.0
C      1  0.5198480000000  0.4146040000000  0.4964670000000 1.0
C      1  0.5017030000000  0.4195900000000  0.3940180000000 1.0
C      1  0.5405760000000  0.4412980000000  0.5981870000000 1.0
C      1  0.5663370000000  0.5269790000000  0.5051670000000 1.0
C      1  0.4248300000000  0.5231390000000  0.4357310000000 1.0
C      1  0.4956960000000  0.5772260000000  0.4072350000000 1.0
C      1  0.5224660000000  0.4867730000000  0.5641330000000 1.0
C      1  0.5093090000000  0.4409810000000  0.4858270000000 1.0
C      1  0.4831690000000  0.5905410000000  0.5659870000000 1.0
C      1  0.4739190000000  0.4980450000000  0.5231270000000 1.0
C      1  0.4773740000000  0.5094390000000  0.3817160000000 1.0
C      1  0.4664970000000  0.5247200000000  0.5975570000000 1.0
C      1  0.5907430000000  0.4265230000000  0.4942350000000 1.0
C      1  0.5003470000000  0.6075790000000  0.4939800000000 1.0
C      1  0.5965520000000  0.4762010000000  0.4625730000000 1.0
C      1  0.5304230000000  0.4315870000000  0.5714280000000 1.0
C      1  0.3839970000000  0.5005450000000  0.5392960000000 1.0
C      1  0.4440020000000  0.5168750000000  0.5502890000000 1.0
C      1  0.4476490000000  0.5360350000000  0.4971730000000 1.0
C      1  0.3975560000000  0.4800440000000  0.4725910000000 1.0
C      1  0.4398010000000  0.5064970000000  0.4820780000000 1.0
C      1  0.4673510000000  0.4098350000000  0.5555910000000 1.0
C      1  0.4573440000000  0.5803170000000  0.5555030000000 1.0
C      1  0.4489530000000  0.4289950000000  0.5705960000000 1.0
C      1  0.4597610000000  0.4305900000000  0.4340970000000 1.0
C      1  0.4000120000000  0.4788530000000  0.4429760000000 1.0
C      1  0.5118790000000  0.5195470000000  0.4119100000000 1.0
C      1  0.4300710000000  0.4881060000000  0.5912180000000 1.0
C      1  0.5063660000000  0.5359750000000  0.5352430000000 1.0
C      1  0.5358300000000  0.5977250000000  0.5240480000000 1.0
C      1  0.4906700000000  0.5293090000000  0.5606360000000 1.0
C      1  0.5183330000000  0.3790800000000  0.5282720000000 1.0
C      1  0.5491070000000  0.4398050000000  0.5479860000000 1.0
C      1  0.4618240000000  0.4575950000000  0.4799170000000 1.0
C      1  0.4299410000000  0.4684600000000  0.4058710000000 1.0
C      1  0.4847790000000  0.5950510000000  0.4261660000000 1.0
C      1  0.5576160000000  0.4137870000000  0.5313270000000 1.0
C      1  0.4572340000000  0.4733310000000  0.4062590000000 1.0
C      1  0.5312240000000  0.5255880000000  0.4547280000000 1.0
C      1  0.4671260000000  0.5544700000000  0.5416580000000 1.0
C      1  0.5847070000000  0.5596240000000  0.5563650000000 1.0
C      1  0.5629100000000  0.5082950000000  0.5816220000000 1.0
C      1  0.5048400000000  0.3937820000000  0.5085360000000 1.0
C      1  0.5480510000000  0.4224960000000  0.4105500000000 1.0
C      1  0.4444600000000  0.5221810000000  0.4136750000000 1.0
C      1  0.4129610000000  0.5452450000000  0.5355960000000 1.0
C      1  0.5044150000000  0.4849020000000  0.4806750000000 1.0
C      1  0.5934560000000  0.5237010000000  0.5501630000000 1.0
C      1  0.5306840000000  0.6099180000000  0.4980400000000 1.0
C      1  0.5230550000000  0.5696200000000  0.4162660000000 1.0
C      1  0.5627090000000  0.4593230000000  0.5902260000000 1.0
C      1  0.4586050000000  0.4360320000000  0.5972250000000 1.0
C      1  0.5963940000000  0.4898600000000  0.4889420000000 1.0
C      1  0.5413160000000  0.5105740000000  0.4983340000000 1.0
C      1  0.6072910000000  0.5631620000000  0.5097510000000 1.0
C      1  0.4357460000000  0.4426250000000  0.4470130000000 1.0
C      1  0.6116580000000  0.5360900000000  0.5017720000000 1.0
C      1  0.5219480000000  0.5354970000000  0.4802520000000 1.0
C      1  0.5686350000000  0.5708210000000  0.5784110000000 1.0
C      1  0.4774250000000  0.4031320000000  0.5052150000000 1.0
C      1  0.5107690000000  0.4440950000000  0.4537640000000 1.0
C      1  0.4828340000000  0.5064970000000  0.6126060000000 1.0
C      1  0.5300350000000  0.4008420000000  0.4560060000000 1.0
C      1  0.4972390000000  0.4465390000000  0.3994380000000 1.0
C      1  0.4921330000000  0.4661170000000  0.4402660000000 1.0
C      1  0.5294370000000  0.4580950000000  0.5317610000000 1.0
C      1  0.4906630000000  0.5585050000000  0.5201710000000 1.0
C      1  0.5377740000000  0.5226700000000  0.3739440000000 1.0
C      1  0.5697030000000  0.4863040000000  0.5305930000000 1.0
C      1  0.4373540000000  0.4130570000000  0.4864670000000 1.0
C      1  0.4781530000000  0.4768400000000  0.4652890000000 1.0
C      1  0.5230340000000  0.4603620000000  0.6160710000000 1.0
C      1  0.5864150000000  0.4759890000000  0.5520260000000 1.0
C      1  0.4239310000000  0.4356510000000  0.4728660000000 1.0
C      1  0.5551030000000  0.5958780000000  0.4476620000000 1.0
C      1  0.4931670000000  0.5276150000000  0.4822350000000 1.0
C      1  0.4221110000000  0.4765800000000  0.5638110000000 1.0
C      1  0.4956490000000  0.5308080000000  0.3886970000000 1.0
C      1  0.4799210000000  0.5542710000000  0.3993690000000 1.0
C      1  0.5207770000000  0.4615760000000  0.4041050000000 1.0
C      1  0.4752010000000  0.4528290000000  0.4188130000000 1.0
C      1  0.5027060000000  0.5857230000000  0.4729880000000 1.0
C      1  0.4823940000000  0.6016710000000  0.5189340000000 1.0
C      1  0.5316000000000  0.4894270000000  0.6132060000000 1.0
C      1  0.5833370000000  0.5684990000000  0.5284750000000 1.0
C      1  0.4982200000000  0.5043030000000  0.5057600000000 1.0
C      1  0.5393940000000  0.5130970000000  0.4002900000000 1.0
C      1  0.5148360000000  0.5358840000000  0.3673530000000 1.0
C      1  0.3941270000000  0.4271390000000  0.5207600000000 1.0
C      1  0.5578150000000  0.5289620000000  0.4196100000000 1.0
C      1  0.4230490000000  0.5510170000000  0.4445480000000 1.0
C      1  0.5195820000000  0.4113250000000  0.4140870000000 1.0
C      1  0.4949860000000  0.5682800000000  0.5806750000000 1.0
C      1  0.5731610000000  0.4521290000000  0.5638770000000 1.0
C      1  0.4587020000000  0.4003040000000  0.5284940000000 1.0
C      1  0.5750540000000  0.4753810000000  0.5036530000000 1.0
C      1  0.5730020000000  0.4648870000000  0.4216180000000 1.0
C      1  0.5914750000000  0.5204140000000  0.4882660000000 1.0
C      1  0.5491660000000  0.4804950000000  0.4898620000000 1.0
C      1  0.4597810000000  0.5005710000000  0.4602960000000 1.0
C      1  0.4765200000000  0.5493590000000  0.4934060000000 1.0
C      1  0.4007550000000  0.5073190000000  0.4361110000000 1.0
C      1  0.4226740000000  0.4637620000000  0.4322780000000 1.0
C      1  0.5475080000000  0.4779930000000  0.4596100000000 1.0
C      1  0.5473480000000  0.4138990000000  0.5029310000000 1.0
C      1  0.4906380000000  0.5034450000000  0.4287780000000 1.0
C      1  0.4646420000000  0.4053240000000  0.4773730000000 1.0
C      1  0.4477560000000  0.4686100000000  0.6064750000000 1.0
C      1  0.4967200000000  0.6038140000000  0.5440520000000 1.0
C      1  0.5390280000000  0.4498550000000  0.4484750000000 1.0
C      1  0.4400600000000  0.4760860000000  0.4928650000000 1.0
C      1  0.5273510000000  0.4618880000000  0.5015550000000 1.0
C      1  0.5686570000000  0.5734260000000  0.4866300000000 1.0
C      1  0.5144040000000  0.5155690000000  0.5772620000000 1.0
C      1  0.3837590000000  0.4716010000000  0.5337820000000 1.0
C      1  0.4462780000000  0.5624790000000  0.5797910000000 1.0
C      1  0.5418880000000  0.5294690000000  0.5727430000000 1.0
C      1  0.4092510000000  0.5085320000000  0.4738950000000 1.0
C      1  0.5869680000000  0.4182060000000  0.5218160000000 1.0
C      1  0.4922330000000  0.4010700000000  0.5669900000000 1.0
C      1  0.4569630000000  0.5899240000000  0.4698100000000 1.0
C      1  0.5220380000000  0.5729460000000  0.5907880000000 1.0
C      1  0.4664740000000  0.5016640000000  0.4076440000000 1.0
C      1  0.4820900000000  0.4543740000000  0.5229970000000 1.0
C      1  0.5363380000000  0.3926320000000  0.5452570000000 1.0
C      1  0.4327070000000  0.5840550000000  0.4808280000000 1.0
C      1  0.4491650000000  0.4583170000000  0.5602110000000 1.0
C      1  0.3927150000000  0.4699130000000  0.5614460000000 1.0
C      1  0.3940280000000  0.5241190000000  0.4949210000000 1.0
C      1  0.5466680000000  0.4847620000000  0.5871040000000 1.0
C      1  0.5445250000000  0.4517530000000  0.4182420000000 1.0
C      1  0.5460850000000  0.5528910000000  0.5920000000000 1.0
C      1  0.5717650000000  0.5728450000000  0.4377590000000 1.0
C      1  0.5252800000000  0.5662220000000  0.4852690000000 1.0
C      1  0.5239370000000  0.4964280000000  0.4566450000000 1.0
C      1  0.5111810000000  0.5114070000000  0.6071850000000 1.0
C      1  0.4756080000000  0.4791350000000  0.6033120000000 1.0
C      1  0.5315240000000  0.6021740000000  0.4334340000000 1.0
C      1  0.5607570000000  0.5573960000000  0.5112610000000 1.0
C      1  0.5909760000000  0.5600870000000  0.4574960000000 1.0
C      1  0.5503020000000  0.5954720000000  0.4770220000000 1.0
C      1  0.4548240000000  0.5490440000000  0.4134460000000 1.0
C      1  0.4385790000000  0.5172930000000  0.5939390000000 1.0
C      1  0.5287580000000  0.5685950000000  0.5168900000000 1.0
C      1  0.4811140000000  0.4409870000000  0.4970100000000 1.0
C      1  0.5759360000000  0.5146630000000  0.4391730000000 1.0
C      1  0.5707400000000  0.5156890000000  0.5320000000000 1.0
C      1  0.3990740000000  0.4538150000000  0.5153560000000 1.0
C      1  0.5436590000000  0.5873680000000  0.5756170000000 1.0
C      1  0.5875870000000  0.4409010000000  0.4345570000000 1.0
C      1  0.4807590000000  0.5198500000000  0.4542940000000 1.0
C      1  0.5450030000000  0.5698890000000  0.3967940000000 1.0
C      1  0.4723990000000  0.5056670000000  0.5527670000000 1.0
C      1  0.5003300000000  0.4631990000000  0.5685600000000 1.0
C      1  0.5379840000000  0.5345170000000  0.5416640000000 1.0
C      1  0.5219870000000  0.5406860000000  0.4303420000000 1.0
C      1  0.4088760000000  0.4055050000000  0.5267540000000 1.0
C      1  0.4076400000000  0.5666910000000  0.5163890000000 1.0
C      1  0.5895020000000  0.5015860000000  0.5695710000000 1.0
C      1  0.4944310000000  0.4571800000000  0.6118560000000 1.0
C      1  0.4237890000000  0.5565810000000  0.4744170000000 1.0
C      1  0.5645990000000  0.4234910000000  0.4830080000000 1.0
C      1  0.4545720000000  0.4566640000000  0.5318460000000 1.0
C      1  0.5651650000000  0.5577330000000  0.4129640000000 1.0
C      1  0.5516210000000  0.4218440000000  0.4562600000000 1.0
C      1  0.5879920000000  0.5306990000000  0.4603780000000 1.0
C      1  0.5989450000000  0.5776280000000  0.4848900000000 1.0
C      1  0.4274280000000  0.4951370000000  0.5396500000000 1.0
C      1  0.5080020000000  0.4151360000000  0.4427580000000 1.0
C      1  0.4474670000000  0.4820700000000  0.5205870000000 1.0
C      1  0.5694200000000  0.4169470000000  0.4323680000000 1.0
C      1  0.4774240000000  0.5714820000000  0.4732350000000 1.0
C      1  0.5284700000000  0.5018520000000  0.5285980000000 1.0
C      1  0.4537010000000  0.5939630000000  0.5270160000000 1.0
C      1  0.4879300000000  0.4365200000000  0.5934920000000 1.0
C      1  0.5962070000000  0.4468380000000  0.4626840000000 1.0
C      1  0.3988430000000  0.5527510000000  0.4905980000000 1.0
C      1  0.5033320000000  0.4507520000000  0.5420710000000 1.0
C      1  0.4011760000000  0.5191290000000  0.5238570000000 1.0
C      1  0.4323250000000  0.5825200000000  0.5097530000000 1.0
C      1  0.4342040000000  0.4094550000000  0.5155910000000 1.0
C      1  0.4395000000000  0.5674120000000  0.4281770000000 1.0
C      1  0.5056490000000  0.5980780000000  0.4451620000000 1.0
END
