TITL C-951339-9237-458 -1.4674728869807e-06 125000 -1008.25784629056 0 0 162 (C1) n - 1
REM
REM in /home/bkarasulu/work/CARBON/AIRSS/Generating-Clusters/EDIP-Nigel-Params/with-SteepDescent/Only-C1/SD-CG/HFTN-CG
REM
REM
REM
REM
REM
REM ./C.cell (11c1c37f851c82e70ff6c80c92926a4b)
REM
REM compiler GCC version 9.2.1 20190827 (Red Hat 9.2.1-1)
REM options -cpp -mtune=generic -march=x86-64 -g -O0 -fpre-include=/usr/include/finclude/math-vector-fortran.h
REM seed -803572276 -1713750963 482491604 868520747 1201908172 -537544671 1962277203 -1590101433 -1345281517 344569560 1187061513 1416118545 -1246354551 1215897720 -1072964221 1664535419 -382727837 540142292 -1148273625 788918565 352022386 -1633991683 -1971587098 -782979526 160210748 -570761443 -356280859 494305936 1660431017 -44854020 -1356601672 1846980195 792444539
REM
CELL 1.54180   50.00000   50.00000   50.00000   90.00000   90.00000   90.00000
LATT -1
SFAC C  
C      1  0.3813370000000  0.4895800000000  0.4831760000000 1.0
C      1  0.4037900000000  0.4797480000000  0.4648500000000 1.0
C      1  0.4339420000000  0.4452250000000  0.4459770000000 1.0
C      1  0.4953980000000  0.4706960000000  0.4543540000000 1.0
C      1  0.4153160000000  0.5265550000000  0.5577560000000 1.0
C      1  0.5075320000000  0.4889280000000  0.4777980000000 1.0
C      1  0.4575640000000  0.5680370000000  0.4305950000000 1.0
C      1  0.4287950000000  0.4211170000000  0.5027370000000 1.0
C      1  0.4944520000000  0.4470420000000  0.5051130000000 1.0
C      1  0.4886300000000  0.4140870000000  0.5458790000000 1.0
C      1  0.4736570000000  0.4098370000000  0.4609160000000 1.0
C      1  0.4170660000000  0.5747120000000  0.4967270000000 1.0
C      1  0.5618450000000  0.5035720000000  0.4485740000000 1.0
C      1  0.5481660000000  0.5820620000000  0.5181560000000 1.0
C      1  0.4800510000000  0.5388770000000  0.4965240000000 1.0
C      1  0.4647630000000  0.4626290000000  0.4627110000000 1.0
C      1  0.4437090000000  0.5727940000000  0.5379520000000 1.0
C      1  0.4584180000000  0.4259360000000  0.4411430000000 1.0
C      1  0.5678410000000  0.5292850000000  0.4052250000000 1.0
C      1  0.5453830000000  0.4794200000000  0.6004780000000 1.0
C      1  0.5719430000000  0.4524900000000  0.5664550000000 1.0
C      1  0.4905230000000  0.6107540000000  0.4467480000000 1.0
C      1  0.5420520000000  0.4416460000000  0.4934410000000 1.0
C      1  0.5857320000000  0.5635340000000  0.4560430000000 1.0
C      1  0.5573300000000  0.4285130000000  0.5583210000000 1.0
C      1  0.4240920000000  0.5204720000000  0.4280170000000 1.0
C      1  0.5012930000000  0.4656250000000  0.5508580000000 1.0
C      1  0.4984650000000  0.4889890000000  0.4274750000000 1.0
C      1  0.4708110000000  0.4931060000000  0.4017520000000 1.0
C      1  0.5688130000000  0.5743970000000  0.4753640000000 1.0
C      1  0.4572410000000  0.5563540000000  0.5593190000000 1.0
C      1  0.5377620000000  0.4685650000000  0.4256190000000 1.0
C      1  0.4957630000000  0.5443530000000  0.5226950000000 1.0
C      1  0.4758010000000  0.4225550000000  0.5764400000000 1.0
C      1  0.4384370000000  0.5223410000000  0.5170440000000 1.0
C      1  0.4581100000000  0.4474390000000  0.5769710000000 1.0
C      1  0.4955290000000  0.5213840000000  0.5707580000000 1.0
C      1  0.5438740000000  0.4934940000000  0.5513690000000 1.0
C      1  0.5748990000000  0.4066130000000  0.4482030000000 1.0
C      1  0.5179000000000  0.5274720000000  0.4034750000000 1.0
C      1  0.4690510000000  0.5302150000000  0.4483840000000 1.0
C      1  0.5864520000000  0.4390750000000  0.5268160000000 1.0
C      1  0.5783560000000  0.4830210000000  0.4904450000000 1.0
C      1  0.4991650000000  0.4588320000000  0.5986500000000 1.0
C      1  0.4344050000000  0.4960120000000  0.5017560000000 1.0
C      1  0.4320410000000  0.5450530000000  0.5746920000000 1.0
C      1  0.5328790000000  0.5823170000000  0.4417290000000 1.0
C      1  0.4380120000000  0.5011350000000  0.5910700000000 1.0
C      1  0.3889640000000  0.5191800000000  0.5151060000000 1.0
C      1  0.4165880000000  0.4751670000000  0.5161100000000 1.0
C      1  0.5230000000000  0.5323690000000  0.5065220000000 1.0
C      1  0.4609720000000  0.5748520000000  0.4628730000000 1.0
C      1  0.5540250000000  0.4886310000000  0.5057160000000 1.0
C      1  0.4397700000000  0.5639450000000  0.4837780000000 1.0
C      1  0.4658760000000  0.5382310000000  0.6074370000000 1.0
C      1  0.4659640000000  0.4928210000000  0.5959230000000 1.0
C      1  0.4833440000000  0.5904980000000  0.5458000000000 1.0
C      1  0.5703590000000  0.5692930000000  0.5037330000000 1.0
C      1  0.5379820000000  0.4652710000000  0.5129450000000 1.0
C      1  0.4217810000000  0.4482500000000  0.4976600000000 1.0
C      1  0.5706370000000  0.4665550000000  0.5920960000000 1.0
C      1  0.5504440000000  0.4008370000000  0.4622450000000 1.0
C      1  0.5047930000000  0.6300240000000  0.4842000000000 1.0
C      1  0.5308240000000  0.4228810000000  0.5651440000000 1.0
C      1  0.5430360000000  0.5642750000000  0.5673560000000 1.0
C      1  0.4654170000000  0.3884260000000  0.4769270000000 1.0
C      1  0.5041490000000  0.5865870000000  0.4352500000000 1.0
C      1  0.3849170000000  0.5209550000000  0.4844910000000 1.0
C      1  0.4648620000000  0.4571680000000  0.4933690000000 1.0
C      1  0.4827030000000  0.5173730000000  0.5980220000000 1.0
C      1  0.5446000000000  0.5888090000000  0.4685070000000 1.0
C      1  0.5086070000000  0.5523180000000  0.4633260000000 1.0
C      1  0.4681390000000  0.6043070000000  0.4655490000000 1.0
C      1  0.6169620000000  0.4915800000000  0.5093160000000 1.0
C      1  0.5711590000000  0.4784860000000  0.4621800000000 1.0
C      1  0.5685420000000  0.5029600000000  0.4187460000000 1.0
C      1  0.5072170000000  0.5627480000000  0.5813760000000 1.0
C      1  0.5421110000000  0.5449090000000  0.4040790000000 1.0
C      1  0.5324580000000  0.4084830000000  0.5207740000000 1.0
C      1  0.5070120000000  0.6318460000000  0.4562470000000 1.0
C      1  0.5841200000000  0.5463170000000  0.5141920000000 1.0
C      1  0.4180360000000  0.4904940000000  0.4305480000000 1.0
C      1  0.5270080000000  0.5339870000000  0.4768230000000 1.0
C      1  0.5170700000000  0.4262920000000  0.4971450000000 1.0
C      1  0.4193990000000  0.5639990000000  0.5231730000000 1.0
C      1  0.4517400000000  0.5432420000000  0.5005300000000 1.0
C      1  0.5935030000000  0.4501290000000  0.5018710000000 1.0
C      1  0.5873010000000  0.5344030000000  0.5394270000000 1.0
C      1  0.5550300000000  0.5068900000000  0.5278570000000 1.0
C      1  0.5469050000000  0.5602600000000  0.4287230000000 1.0
C      1  0.5515280000000  0.4391690000000  0.4638100000000 1.0
C      1  0.4513460000000  0.5343410000000  0.4245030000000 1.0
C      1  0.5691900000000  0.4963910000000  0.5682740000000 1.0
C      1  0.4258930000000  0.4993900000000  0.5638370000000 1.0
C      1  0.4962750000000  0.4295210000000  0.5980840000000 1.0
C      1  0.4561750000000  0.4430770000000  0.5288030000000 1.0
C      1  0.4917000000000  0.5411390000000  0.3967210000000 1.0
C      1  0.4834870000000  0.6104270000000  0.4907600000000 1.0
C      1  0.5234480000000  0.5098970000000  0.5675610000000 1.0
C      1  0.6170270000000  0.4656510000000  0.4674380000000 1.0
C      1  0.4879160000000  0.5631380000000  0.4795570000000 1.0
C      1  0.5060370000000  0.4362140000000  0.4392570000000 1.0
C      1  0.5304040000000  0.5952050000000  0.4950920000000 1.0
C      1  0.4713620000000  0.4898390000000  0.5284300000000 1.0
C      1  0.4812400000000  0.5745150000000  0.5715610000000 1.0
C      1  0.5809880000000  0.4328100000000  0.4586990000000 1.0
C      1  0.4573670000000  0.5972880000000  0.5351290000000 1.0
C      1  0.4672700000000  0.5229940000000  0.4008740000000 1.0
C      1  0.4715950000000  0.3989170000000  0.5248770000000 1.0
C      1  0.5287650000000  0.6241220000000  0.4980820000000 1.0
C      1  0.5262580000000  0.4609090000000  0.5862180000000 1.0
C      1  0.4951660000000  0.5399860000000  0.4410260000000 1.0
C      1  0.4103080000000  0.5262190000000  0.4698340000000 1.0
C      1  0.5333280000000  0.4635860000000  0.5484110000000 1.0
C      1  0.3890430000000  0.4875760000000  0.5128380000000 1.0
C      1  0.5170340000000  0.4071430000000  0.5460510000000 1.0
C      1  0.4586050000000  0.5138480000000  0.5378450000000 1.0
C      1  0.5953320000000  0.4527200000000  0.5503970000000 1.0
C      1  0.6180060000000  0.4645610000000  0.4960580000000 1.0
C      1  0.5414320000000  0.5100510000000  0.5923100000000 1.0
C      1  0.4470700000000  0.4159090000000  0.5231840000000 1.0
C      1  0.5218370000000  0.3949850000000  0.4673200000000 1.0
C      1  0.5162210000000  0.4746660000000  0.4088180000000 1.0
C      1  0.5980820000000  0.5050530000000  0.4927050000000 1.0
C      1  0.5921260000000  0.5093540000000  0.5520610000000 1.0
C      1  0.5347560000000  0.4438770000000  0.4388990000000 1.0
C      1  0.4069600000000  0.5355910000000  0.4436530000000 1.0
C      1  0.4823260000000  0.5055520000000  0.4850170000000 1.0
C      1  0.5236240000000  0.4224220000000  0.5923000000000 1.0
C      1  0.4778070000000  0.4693330000000  0.5817750000000 1.0
C      1  0.6094500000000  0.4928090000000  0.5367310000000 1.0
C      1  0.4700920000000  0.5063490000000  0.4596650000000 1.0
C      1  0.4614030000000  0.4684230000000  0.4161890000000 1.0
C      1  0.4985870000000  0.5747910000000  0.5252630000000 1.0
C      1  0.4331750000000  0.4654370000000  0.4229310000000 1.0
C      1  0.4769780000000  0.4434490000000  0.4252130000000 1.0
C      1  0.4772450000000  0.5337720000000  0.5479210000000 1.0
C      1  0.4132580000000  0.5338660000000  0.5285150000000 1.0
C      1  0.4481300000000  0.4893320000000  0.4556670000000 1.0
C      1  0.5128600000000  0.5163320000000  0.4317770000000 1.0
C      1  0.4874600000000  0.5636360000000  0.4218640000000 1.0
C      1  0.5317400000000  0.5108570000000  0.4572260000000 1.0
C      1  0.5385790000000  0.5618910000000  0.5387570000000 1.0
C      1  0.5544670000000  0.4810800000000  0.4063050000000 1.0
C      1  0.4829510000000  0.3892550000000  0.4991690000000 1.0
C      1  0.5604240000000  0.4238380000000  0.5296960000000 1.0
C      1  0.4999830000000  0.5857560000000  0.4974760000000 1.0
C      1  0.4633250000000  0.4865370000000  0.5010990000000 1.0
C      1  0.5099340000000  0.4734670000000  0.5058580000000 1.0
C      1  0.4413610000000  0.4519550000000  0.5526070000000 1.0
C      1  0.5929870000000  0.4597350000000  0.4528620000000 1.0
C      1  0.4239310000000  0.4748680000000  0.5465260000000 1.0
C      1  0.5130010000000  0.3875190000000  0.4952220000000 1.0
C      1  0.4251060000000  0.4995840000000  0.4734610000000 1.0
C      1  0.4991910000000  0.4871880000000  0.5306830000000 1.0
C      1  0.4147290000000  0.4524840000000  0.4696480000000 1.0
C      1  0.5017840000000  0.4139710000000  0.4575900000000 1.0
C      1  0.5321140000000  0.5476640000000  0.5885570000000 1.0
C      1  0.4868240000000  0.4423350000000  0.5345020000000 1.0
C      1  0.5750360000000  0.5558260000000  0.4318380000000 1.0
C      1  0.4401170000000  0.5301210000000  0.5986430000000 1.0
C      1  0.5477290000000  0.5365420000000  0.5228300000000 1.0
END
