TITL C-951348-1603-426 9.4726628463809e-08 125000 -111.149686403628 0 0 19 (C1) n - 1
REM
REM in /home/bkarasulu/work/CARBON/AIRSS/Generating-Clusters/EDIP-Nigel-Params/with-SteepDescent/Only-C1/SD-CG/HFTN-CG
REM
REM
REM
REM
REM
REM ./C.cell (11c1c37f851c82e70ff6c80c92926a4b)
REM
REM compiler GCC version 9.2.1 20190827 (Red Hat 9.2.1-1)
REM options -cpp -mtune=generic -march=x86-64 -g -O0 -fpre-include=/usr/include/finclude/math-vector-fortran.h
REM seed 982030595 172551398 1527533032 1478828597 -428858793 -2145304179 819476671 -329425484 -1639619156 -1605406869 830753813 -1400750168 -970623816 1296988720 1804667715 971131545 -249419177 1515824222 -102048444 1853701849 1564520414 1310117190 -631111029 176520499 -1294811935 261393089 -1309433421 -513879195 -766562213 -68948831 697451708 1987047413 757828841
REM
CELL 1.54180   50.00000   50.00000   50.00000   90.00000   90.00000   90.00000
LATT -1
SFAC C  
C      1  0.4773590000000  0.4789770000000  0.4591910000000 1.0
C      1  0.5300860000000  0.4800140000000  0.5084130000000 1.0
C      1  0.4559930000000  0.4927520000000  0.4682060000000 1.0
C      1  0.5293010000000  0.5178930000000  0.4805740000000 1.0
C      1  0.4883930000000  0.5395370000000  0.4593160000000 1.0
C      1  0.5489510000000  0.5231740000000  0.4999380000000 1.0
C      1  0.5034000000000  0.4773320000000  0.4654430000000 1.0
C      1  0.5080980000000  0.4960640000000  0.5439580000000 1.0
C      1  0.4621340000000  0.4697080000000  0.5179720000000 1.0
C      1  0.5130340000000  0.5398690000000  0.4719770000000 1.0
C      1  0.4870080000000  0.4592160000000  0.5215560000000 1.0
C      1  0.5446170000000  0.5034290000000  0.5197800000000 1.0
C      1  0.4647240000000  0.5089450000000  0.4895370000000 1.0
C      1  0.5171830000000  0.4919050000000  0.4848010000000 1.0
C      1  0.4655350000000  0.4976460000000  0.5164020000000 1.0
C      1  0.5118240000000  0.4698100000000  0.5301860000000 1.0
C      1  0.5318780000000  0.5114570000000  0.5437190000000 1.0
C      1  0.4766530000000  0.5344110000000  0.4838780000000 1.0
C      1  0.4838280000000  0.5078610000000  0.5351540000000 1.0
END
