TITL C-950521-2237-455 -1.95220954092258e-06 125000 -518.150631100542 0 0 84 (C1) n - 1
REM
REM in /home/bkarasulu/work/CARBON/AIRSS/Generating-Clusters/EDIP-Nigel-Params/with-SteepDescent/Only-C1/SD-CG/HFTN-CG
REM
REM
REM
REM
REM
REM ./C.cell (11c1c37f851c82e70ff6c80c92926a4b)
REM
REM compiler GCC version 9.2.1 20190827 (Red Hat 9.2.1-1)
REM options -cpp -mtune=generic -march=x86-64 -g -O0 -fpre-include=/usr/include/finclude/math-vector-fortran.h
REM seed -58361868 895852954 1616865985 1386175395 -1904989345 -2014024593 424687806 1919066686 -792972264 904014370 -1943099606 1975191605 -612866192 -743182137 -926764422 804655199 549764136 871633762 1578563734 -176927311 573367861 -2074289987 1883391465 -185130397 -440631876 -1900626192 -1915789840 -81899812 625006425 487277837 858154962 -394328392 -1987706113
REM
CELL 1.54180   50.00000   50.00000   50.00000   90.00000   90.00000   90.00000
LATT -1
SFAC C  
C      1  0.4681200000000  0.5805980000000  0.5026500000000 1.0
C      1  0.5786710000000  0.5140750000000  0.5110360000000 1.0
C      1  0.5405720000000  0.5024190000000  0.5416000000000 1.0
C      1  0.4122950000000  0.4881510000000  0.4964370000000 1.0
C      1  0.4316620000000  0.5555720000000  0.4996270000000 1.0
C      1  0.4452870000000  0.5196020000000  0.4395530000000 1.0
C      1  0.4415460000000  0.5098230000000  0.5574090000000 1.0
C      1  0.5281000000000  0.4955560000000  0.4346080000000 1.0
C      1  0.4890830000000  0.4572010000000  0.5075710000000 1.0
C      1  0.4520760000000  0.4524560000000  0.5448500000000 1.0
C      1  0.5256120000000  0.4582940000000  0.4715970000000 1.0
C      1  0.5189340000000  0.4910920000000  0.5235090000000 1.0
C      1  0.4557480000000  0.5467500000000  0.4514060000000 1.0
C      1  0.5216440000000  0.4145800000000  0.4986600000000 1.0
C      1  0.5172080000000  0.4702750000000  0.5908490000000 1.0
C      1  0.5311750000000  0.5738630000000  0.4561960000000 1.0
C      1  0.5533520000000  0.5739090000000  0.4749100000000 1.0
C      1  0.5531490000000  0.4912490000000  0.4513750000000 1.0
C      1  0.5039070000000  0.5746190000000  0.4690940000000 1.0
C      1  0.4860500000000  0.4340890000000  0.4539530000000 1.0
C      1  0.5903100000000  0.5138940000000  0.4613000000000 1.0
C      1  0.5167770000000  0.5319640000000  0.4928070000000 1.0
C      1  0.5641750000000  0.4675640000000  0.5152990000000 1.0
C      1  0.4795390000000  0.4769710000000  0.4873690000000 1.0
C      1  0.5367980000000  0.4632250000000  0.5716830000000 1.0
C      1  0.5739100000000  0.4701540000000  0.4874780000000 1.0
C      1  0.5779530000000  0.5010360000000  0.4394960000000 1.0
C      1  0.5651010000000  0.5398090000000  0.5079860000000 1.0
C      1  0.4669440000000  0.4987420000000  0.5016460000000 1.0
C      1  0.5868790000000  0.5413040000000  0.4659690000000 1.0
C      1  0.4671450000000  0.4910090000000  0.5301690000000 1.0
C      1  0.4735500000000  0.5327660000000  0.4712240000000 1.0
C      1  0.4402450000000  0.4447410000000  0.4968610000000 1.0
C      1  0.4441370000000  0.4493700000000  0.4691120000000 1.0
C      1  0.5115750000000  0.5744430000000  0.5222920000000 1.0
C      1  0.4773440000000  0.4769480000000  0.4346380000000 1.0
C      1  0.5071600000000  0.4724710000000  0.4323140000000 1.0
C      1  0.5092430000000  0.4956270000000  0.5844780000000 1.0
C      1  0.4141210000000  0.5137230000000  0.5113960000000 1.0
C      1  0.4945740000000  0.4748550000000  0.5309000000000 1.0
C      1  0.4434070000000  0.5479610000000  0.5252750000000 1.0
C      1  0.4372750000000  0.5033190000000  0.4631750000000 1.0
C      1  0.4809190000000  0.4169690000000  0.5245520000000 1.0
C      1  0.4912630000000  0.5124030000000  0.4556880000000 1.0
C      1  0.4689820000000  0.4646570000000  0.5659280000000 1.0
C      1  0.4118260000000  0.4908960000000  0.4678020000000 1.0
C      1  0.4696160000000  0.5594320000000  0.5226970000000 1.0
C      1  0.4938690000000  0.5576810000000  0.5386630000000 1.0
C      1  0.5124650000000  0.4464800000000  0.4473340000000 1.0
C      1  0.4496980000000  0.5700000000000  0.4813300000000 1.0
C      1  0.4963410000000  0.4565730000000  0.5555980000000 1.0
C      1  0.5167370000000  0.5227580000000  0.4418430000000 1.0
C      1  0.4152040000000  0.5342620000000  0.4913130000000 1.0
C      1  0.4637810000000  0.4409960000000  0.5180470000000 1.0
C      1  0.4945730000000  0.4078820000000  0.4994580000000 1.0
C      1  0.5323400000000  0.4432340000000  0.5489860000000 1.0
C      1  0.5874490000000  0.4984500000000  0.4869930000000 1.0
C      1  0.4655330000000  0.4969070000000  0.5689670000000 1.0
C      1  0.5503950000000  0.5063470000000  0.4785100000000 1.0
C      1  0.4984360000000  0.4268330000000  0.5467900000000 1.0
C      1  0.5734720000000  0.5566630000000  0.4853620000000 1.0
C      1  0.4497990000000  0.5180820000000  0.4865440000000 1.0
C      1  0.5546140000000  0.4645970000000  0.4649720000000 1.0
C      1  0.4657550000000  0.4545480000000  0.4514350000000 1.0
C      1  0.4348220000000  0.5209890000000  0.5320360000000 1.0
C      1  0.4236080000000  0.4651510000000  0.5105510000000 1.0
C      1  0.5482400000000  0.5504320000000  0.5297880000000 1.0
C      1  0.4934390000000  0.5492700000000  0.4874520000000 1.0
C      1  0.5321830000000  0.5495490000000  0.4386420000000 1.0
C      1  0.5049460000000  0.5335950000000  0.5524480000000 1.0
C      1  0.5205170000000  0.4437830000000  0.4992840000000 1.0
C      1  0.4974700000000  0.5867010000000  0.4977730000000 1.0
C      1  0.5397180000000  0.4520620000000  0.5212150000000 1.0
C      1  0.5195970000000  0.5011730000000  0.4949920000000 1.0
C      1  0.5345120000000  0.5312740000000  0.5480230000000 1.0
C      1  0.5387180000000  0.5340560000000  0.4726720000000 1.0
C      1  0.5027900000000  0.4873070000000  0.4736470000000 1.0
C      1  0.5386720000000  0.5768140000000  0.5285020000000 1.0
C      1  0.5505990000000  0.4868740000000  0.5644030000000 1.0
C      1  0.4919360000000  0.5129620000000  0.5709970000000 1.0
C      1  0.5685870000000  0.4934550000000  0.5303960000000 1.0
C      1  0.4831240000000  0.4157110000000  0.4751790000000 1.0
C      1  0.4340210000000  0.4722500000000  0.5361260000000 1.0
C      1  0.4670780000000  0.5038750000000  0.4273060000000 1.0
END
