TITL C-950527-2551-282 -1.34609233339876e-06 125000 -485.949993219769 0 0 79 (C1) n - 1
REM
REM in /home/bkarasulu/work/CARBON/AIRSS/Generating-Clusters/EDIP-Nigel-Params/with-SteepDescent/Only-C1/SD-CG/HFTN-CG
REM
REM
REM
REM
REM
REM ./C.cell (11c1c37f851c82e70ff6c80c92926a4b)
REM
REM compiler GCC version 9.2.1 20190827 (Red Hat 9.2.1-1)
REM options -cpp -mtune=generic -march=x86-64 -g -O0 -fpre-include=/usr/include/finclude/math-vector-fortran.h
REM seed -1006957288 -351834186 -1795228451 953174902 1913229289 -556059814 -1498878829 -240170303 -510831337 1825252953 -1232848148 -1492381826 -1339823620 -996377244 -2048165238 761147177 -1555046364 -508984806 8490208 1746254815 -476178170 367639747 207729974 2033223523 -2050569161 150399209 1499213098 -535819882 -1329561069 1196957369 -1357208400 1149617565 670306815
REM
CELL 1.54180   50.00000   50.00000   50.00000   90.00000   90.00000   90.00000
LATT -1
SFAC C  
C      1  0.4990510000000  0.5104240000000  0.5818140000000 1.0
C      1  0.5145490000000  0.4676110000000  0.5189920000000 1.0
C      1  0.4716660000000  0.5286080000000  0.4982250000000 1.0
C      1  0.4875530000000  0.5024110000000  0.4602480000000 1.0
C      1  0.4998940000000  0.4683940000000  0.4308110000000 1.0
C      1  0.5127700000000  0.4988710000000  0.5216820000000 1.0
C      1  0.4355570000000  0.4487400000000  0.5244320000000 1.0
C      1  0.5528850000000  0.4726460000000  0.4848290000000 1.0
C      1  0.4260330000000  0.4970980000000  0.5193950000000 1.0
C      1  0.5597380000000  0.4865230000000  0.5481750000000 1.0
C      1  0.4342340000000  0.4712710000000  0.4528810000000 1.0
C      1  0.5476050000000  0.4779850000000  0.4388600000000 1.0
C      1  0.4938450000000  0.5847030000000  0.5177930000000 1.0
C      1  0.4472090000000  0.5416910000000  0.5248370000000 1.0
C      1  0.5309170000000  0.4877710000000  0.5543280000000 1.0
C      1  0.4861900000000  0.4375160000000  0.5350510000000 1.0
C      1  0.4814980000000  0.5039950000000  0.5152570000000 1.0
C      1  0.5250640000000  0.4594920000000  0.5645680000000 1.0
C      1  0.5109000000000  0.5445210000000  0.4433680000000 1.0
C      1  0.4989390000000  0.5691840000000  0.5409900000000 1.0
C      1  0.4643370000000  0.4780520000000  0.5518230000000 1.0
C      1  0.4414980000000  0.4240280000000  0.4820390000000 1.0
C      1  0.5259760000000  0.5095500000000  0.5736040000000 1.0
C      1  0.4690260000000  0.4784390000000  0.4682390000000 1.0
C      1  0.5289020000000  0.5555340000000  0.4662370000000 1.0
C      1  0.5381440000000  0.5063420000000  0.4466720000000 1.0
C      1  0.5673010000000  0.5084430000000  0.5306170000000 1.0
C      1  0.5586340000000  0.5034430000000  0.5016010000000 1.0
C      1  0.4710920000000  0.5270510000000  0.4670800000000 1.0
C      1  0.4737090000000  0.4264200000000  0.4428080000000 1.0
C      1  0.4435940000000  0.5201800000000  0.4569940000000 1.0
C      1  0.4504410000000  0.5606340000000  0.5041380000000 1.0
C      1  0.5252680000000  0.5416460000000  0.4938310000000 1.0
C      1  0.5309490000000  0.5609810000000  0.5155490000000 1.0
C      1  0.5240890000000  0.4597470000000  0.4483450000000 1.0
C      1  0.4219190000000  0.4732060000000  0.5359250000000 1.0
C      1  0.5156740000000  0.5826690000000  0.4735330000000 1.0
C      1  0.5320810000000  0.5352060000000  0.5597940000000 1.0
C      1  0.4861820000000  0.5755810000000  0.4705220000000 1.0
C      1  0.5759720000000  0.5190430000000  0.4829510000000 1.0
C      1  0.4194930000000  0.4957150000000  0.4920020000000 1.0
C      1  0.5663740000000  0.5589660000000  0.5310470000000 1.0
C      1  0.4360960000000  0.4827540000000  0.5605000000000 1.0
C      1  0.5804100000000  0.5030610000000  0.4601560000000 1.0
C      1  0.5060010000000  0.5427420000000  0.5476550000000 1.0
C      1  0.4734980000000  0.4760930000000  0.5012860000000 1.0
C      1  0.5037480000000  0.4328140000000  0.4889530000000 1.0
C      1  0.4592090000000  0.4365120000000  0.4644840000000 1.0
C      1  0.5689410000000  0.4771560000000  0.4592310000000 1.0
C      1  0.4757280000000  0.4528470000000  0.4338330000000 1.0
C      1  0.4274820000000  0.4706490000000  0.4804760000000 1.0
C      1  0.4281070000000  0.5221270000000  0.5339890000000 1.0
C      1  0.4681030000000  0.5077870000000  0.5436840000000 1.0
C      1  0.5223350000000  0.4746480000000  0.4754130000000 1.0
C      1  0.4450920000000  0.4952570000000  0.4427210000000 1.0
C      1  0.4864290000000  0.5247230000000  0.5609880000000 1.0
C      1  0.5015320000000  0.4624490000000  0.4938540000000 1.0
C      1  0.5380780000000  0.4477350000000  0.5203520000000 1.0
C      1  0.4647770000000  0.4585490000000  0.5278930000000 1.0
C      1  0.4762050000000  0.5722090000000  0.4979850000000 1.0
C      1  0.4288750000000  0.4454650000000  0.4955290000000 1.0
C      1  0.5479530000000  0.4430880000000  0.5571080000000 1.0
C      1  0.5706490000000  0.5483630000000  0.4803560000000 1.0
C      1  0.5555110000000  0.5342010000000  0.5407760000000 1.0
C      1  0.5677820000000  0.5651140000000  0.5038230000000 1.0
C      1  0.5011900000000  0.4477560000000  0.5562060000000 1.0
C      1  0.5292920000000  0.4308340000000  0.4737780000000 1.0
C      1  0.4234950000000  0.5184450000000  0.4763630000000 1.0
C      1  0.5022880000000  0.4238020000000  0.5158420000000 1.0
C      1  0.4932990000000  0.4985130000000  0.4308490000000 1.0
C      1  0.5199380000000  0.5877630000000  0.5035400000000 1.0
C      1  0.4336890000000  0.5121960000000  0.5604550000000 1.0
C      1  0.5289640000000  0.5128880000000  0.4985300000000 1.0
C      1  0.5167980000000  0.5177130000000  0.4292700000000 1.0
C      1  0.5180100000000  0.5026460000000  0.4711240000000 1.0
C      1  0.5639960000000  0.4591460000000  0.5385670000000 1.0
C      1  0.5569950000000  0.5576420000000  0.4575100000000 1.0
C      1  0.5493330000000  0.4429120000000  0.4921280000000 1.0
C      1  0.4834220000000  0.5510690000000  0.4529050000000 1.0
END
