TITL C-951335-1172-527 -4.24974851146639e-06 125000 -1167.25401057255 0 0 186 (C1) n - 1
REM
REM in /home/bkarasulu/work/CARBON/AIRSS/Generating-Clusters/EDIP-Nigel-Params/with-SteepDescent/Only-C1/SD-CG/HFTN-CG
REM
REM
REM
REM
REM
REM ./C.cell (11c1c37f851c82e70ff6c80c92926a4b)
REM
REM compiler GCC version 9.2.1 20190827 (Red Hat 9.2.1-1)
REM options -cpp -mtune=generic -march=x86-64 -g -O0 -fpre-include=/usr/include/finclude/math-vector-fortran.h
REM seed -196332490 1319192615 1749193263 1722595117 2117655868 -868068737 -1943046419 7506536 2102959800 907509503 1435422209 1321659026 -36454497 -692583962 -1857692034 2071157050 1523084205 -182248731 -1074134353 -1507260795 1969342059 1983166458 2066711341 -679179884 2035802595 849967287 -2023836495 -593398666 1128601837 1884158592 -1245733913 -1466533130 114164624
REM
CELL 1.54180   50.00000   50.00000   50.00000   90.00000   90.00000   90.00000
LATT -1
SFAC C  
C      1  0.4478010000000  0.3946480000000  0.4949000000000 1.0
C      1  0.4323730000000  0.4215860000000  0.5485100000000 1.0
C      1  0.5648720000000  0.5128620000000  0.4887150000000 1.0
C      1  0.5917500000000  0.5153240000000  0.5594410000000 1.0
C      1  0.4189320000000  0.4937520000000  0.5365040000000 1.0
C      1  0.4989950000000  0.5276400000000  0.6189900000000 1.0
C      1  0.5561200000000  0.4202270000000  0.4554640000000 1.0
C      1  0.5540650000000  0.6067910000000  0.5100120000000 1.0
C      1  0.5484100000000  0.5357490000000  0.4004970000000 1.0
C      1  0.4909380000000  0.5128210000000  0.4765120000000 1.0
C      1  0.4864680000000  0.4558010000000  0.5271530000000 1.0
C      1  0.4301230000000  0.5011810000000  0.4145250000000 1.0
C      1  0.3972770000000  0.4991910000000  0.4535380000000 1.0
C      1  0.5167850000000  0.5796960000000  0.5078100000000 1.0
C      1  0.4259040000000  0.5186780000000  0.5525740000000 1.0
C      1  0.5617190000000  0.5080490000000  0.3989400000000 1.0
C      1  0.4224370000000  0.5469930000000  0.4935960000000 1.0
C      1  0.4435510000000  0.5900560000000  0.4755970000000 1.0
C      1  0.4792170000000  0.5094440000000  0.5400130000000 1.0
C      1  0.5714730000000  0.5512410000000  0.4080140000000 1.0
C      1  0.5319720000000  0.4024760000000  0.4578820000000 1.0
C      1  0.5008560000000  0.4668220000000  0.5685250000000 1.0
C      1  0.4268230000000  0.5764970000000  0.4960760000000 1.0
C      1  0.4958020000000  0.5051690000000  0.5139800000000 1.0
C      1  0.4767790000000  0.5750110000000  0.5357450000000 1.0
C      1  0.3800920000000  0.4879480000000  0.5104860000000 1.0
C      1  0.4572890000000  0.6120950000000  0.4901430000000 1.0
C      1  0.4735750000000  0.4172790000000  0.5652610000000 1.0
C      1  0.6138110000000  0.5130280000000  0.5110120000000 1.0
C      1  0.4066310000000  0.4200940000000  0.5126670000000 1.0
C      1  0.5307470000000  0.4479790000000  0.5313630000000 1.0
C      1  0.4529690000000  0.5444550000000  0.3942250000000 1.0
C      1  0.4717280000000  0.4467630000000  0.6037110000000 1.0
C      1  0.4947510000000  0.5846200000000  0.5605790000000 1.0
C      1  0.5431230000000  0.4907340000000  0.6073570000000 1.0
C      1  0.5500020000000  0.4846080000000  0.4144370000000 1.0
C      1  0.5233500000000  0.4868590000000  0.5682240000000 1.0
C      1  0.4206940000000  0.4212800000000  0.4631830000000 1.0
C      1  0.5354700000000  0.5059130000000  0.4536480000000 1.0
C      1  0.4067940000000  0.5398360000000  0.4682670000000 1.0
C      1  0.5758360000000  0.4658900000000  0.5029050000000 1.0
C      1  0.4387200000000  0.4676850000000  0.5660750000000 1.0
C      1  0.4826240000000  0.5131520000000  0.4308420000000 1.0
C      1  0.5112190000000  0.4924180000000  0.4659240000000 1.0
C      1  0.5032560000000  0.4061340000000  0.5179330000000 1.0
C      1  0.4817110000000  0.4739560000000  0.3889440000000 1.0
C      1  0.5055770000000  0.4161850000000  0.4501200000000 1.0
C      1  0.5269530000000  0.6029620000000  0.5235650000000 1.0
C      1  0.4905520000000  0.5670260000000  0.5111000000000 1.0
C      1  0.4437040000000  0.4106810000000  0.4480240000000 1.0
C      1  0.4713940000000  0.5460810000000  0.5731620000000 1.0
C      1  0.4928270000000  0.5268110000000  0.5612290000000 1.0
C      1  0.6098080000000  0.4980950000000  0.4841530000000 1.0
C      1  0.4537900000000  0.5328840000000  0.5933590000000 1.0
C      1  0.5299690000000  0.3915930000000  0.4855340000000 1.0
C      1  0.4117750000000  0.5437290000000  0.5429580000000 1.0
C      1  0.4948380000000  0.4517040000000  0.4022800000000 1.0
C      1  0.4631390000000  0.5595260000000  0.4349420000000 1.0
C      1  0.4420060000000  0.4872880000000  0.5878620000000 1.0
C      1  0.4343990000000  0.4389740000000  0.5725700000000 1.0
C      1  0.5369570000000  0.4960730000000  0.5459390000000 1.0
C      1  0.5089680000000  0.5539690000000  0.6024470000000 1.0
C      1  0.4959140000000  0.4086840000000  0.4237270000000 1.0
C      1  0.4323100000000  0.5878380000000  0.5229420000000 1.0
C      1  0.3901040000000  0.4667720000000  0.4928680000000 1.0
C      1  0.5663670000000  0.5879250000000  0.5418320000000 1.0
C      1  0.3897580000000  0.4843660000000  0.5383490000000 1.0
C      1  0.4982240000000  0.4525280000000  0.5956110000000 1.0
C      1  0.5395500000000  0.5837910000000  0.4629330000000 1.0
C      1  0.5856860000000  0.5166630000000  0.4151750000000 1.0
C      1  0.5827080000000  0.5076230000000  0.4424180000000 1.0
C      1  0.5811640000000  0.5660970000000  0.4730250000000 1.0
C      1  0.4063040000000  0.5059210000000  0.5103220000000 1.0
C      1  0.4556010000000  0.4327880000000  0.4320620000000 1.0
C      1  0.4358880000000  0.4543020000000  0.4322560000000 1.0
C      1  0.5666050000000  0.4241270000000  0.5088730000000 1.0
C      1  0.5865940000000  0.4760490000000  0.5280230000000 1.0
C      1  0.4697540000000  0.5147010000000  0.4564940000000 1.0
C      1  0.5074480000000  0.5513460000000  0.4474290000000 1.0
C      1  0.4769750000000  0.4368190000000  0.4854300000000 1.0
C      1  0.5010500000000  0.5407890000000  0.4747820000000 1.0
C      1  0.3881640000000  0.5187580000000  0.4717740000000 1.0
C      1  0.5219830000000  0.5741770000000  0.5555780000000 1.0
C      1  0.4482380000000  0.4963080000000  0.4589630000000 1.0
C      1  0.5143850000000  0.4348280000000  0.5084330000000 1.0
C      1  0.4876060000000  0.5432590000000  0.4272620000000 1.0
C      1  0.4079650000000  0.4115270000000  0.5389000000000 1.0
C      1  0.5499540000000  0.4169310000000  0.5565740000000 1.0
C      1  0.5190120000000  0.5044140000000  0.6196790000000 1.0
C      1  0.5347530000000  0.3982760000000  0.5371660000000 1.0
C      1  0.4693570000000  0.4902440000000  0.5962830000000 1.0
C      1  0.5294850000000  0.5375110000000  0.5847950000000 1.0
C      1  0.5586720000000  0.4372490000000  0.5363380000000 1.0
C      1  0.4331250000000  0.5147000000000  0.5815080000000 1.0
C      1  0.5005520000000  0.6305450000000  0.4962690000000 1.0
C      1  0.5634710000000  0.4371340000000  0.4220560000000 1.0
C      1  0.4099750000000  0.5150040000000  0.4316920000000 1.0
C      1  0.4667130000000  0.4971090000000  0.3846730000000 1.0
C      1  0.4895960000000  0.5942140000000  0.4587930000000 1.0
C      1  0.5825900000000  0.5508550000000  0.5177570000000 1.0
C      1  0.4427950000000  0.4999600000000  0.4882640000000 1.0
C      1  0.4582940000000  0.4292350000000  0.5862630000000 1.0
C      1  0.5049980000000  0.6237000000000  0.5231320000000 1.0
C      1  0.5523090000000  0.4446420000000  0.4724530000000 1.0
C      1  0.4969210000000  0.5472790000000  0.3990090000000 1.0
C      1  0.5054260000000  0.4438310000000  0.5496590000000 1.0
C      1  0.5488880000000  0.6036470000000  0.4817480000000 1.0
C      1  0.5125130000000  0.5101410000000  0.5818590000000 1.0
C      1  0.4143530000000  0.5419540000000  0.4408660000000 1.0
C      1  0.3955400000000  0.4697800000000  0.4622910000000 1.0
C      1  0.5593130000000  0.4895490000000  0.4428940000000 1.0
C      1  0.4860760000000  0.4098450000000  0.4729950000000 1.0
C      1  0.5838160000000  0.4962630000000  0.5808910000000 1.0
C      1  0.5224420000000  0.4481700000000  0.3976690000000 1.0
C      1  0.4164980000000  0.4491420000000  0.4531630000000 1.0
C      1  0.5903660000000  0.4319610000000  0.4900480000000 1.0
C      1  0.5871550000000  0.4448320000000  0.4383860000000 1.0
C      1  0.5151970000000  0.5803610000000  0.4453310000000 1.0
C      1  0.4575030000000  0.5545760000000  0.5466080000000 1.0
C      1  0.4764020000000  0.5523150000000  0.3801680000000 1.0
C      1  0.5581840000000  0.5614940000000  0.4553110000000 1.0
C      1  0.4337950000000  0.4474460000000  0.5128040000000 1.0
C      1  0.4742870000000  0.4817490000000  0.5590320000000 1.0
C      1  0.5432750000000  0.5931640000000  0.5568950000000 1.0
C      1  0.4718410000000  0.5160950000000  0.6096440000000 1.0
C      1  0.5016930000000  0.3924860000000  0.4923860000000 1.0
C      1  0.5239980000000  0.4768870000000  0.4887670000000 1.0
C      1  0.4918050000000  0.4704070000000  0.4533010000000 1.0
C      1  0.5264490000000  0.5381280000000  0.4902300000000 1.0
C      1  0.5602260000000  0.5705010000000  0.4259640000000 1.0
C      1  0.5398670000000  0.5219270000000  0.5343400000000 1.0
C      1  0.5253470000000  0.5559370000000  0.3966800000000 1.0
C      1  0.4566710000000  0.4058220000000  0.5453310000000 1.0
C      1  0.4807180000000  0.6132630000000  0.5382760000000 1.0
C      1  0.5253850000000  0.5441080000000  0.5553560000000 1.0
C      1  0.5482270000000  0.4561370000000  0.4058860000000 1.0
C      1  0.5886360000000  0.4221560000000  0.4611040000000 1.0
C      1  0.5400530000000  0.4345060000000  0.5808210000000 1.0
C      1  0.4798500000000  0.4300220000000  0.4155580000000 1.0
C      1  0.5682800000000  0.5234410000000  0.5181930000000 1.0
C      1  0.4840630000000  0.6159640000000  0.4788110000000 1.0
C      1  0.4725180000000  0.4637090000000  0.4765930000000 1.0
C      1  0.5100190000000  0.4459920000000  0.4531100000000 1.0
C      1  0.5539450000000  0.4846100000000  0.4928600000000 1.0
C      1  0.5730250000000  0.4640160000000  0.4583460000000 1.0
C      1  0.4678030000000  0.4060710000000  0.5180430000000 1.0
C      1  0.5467510000000  0.4009590000000  0.5095140000000 1.0
C      1  0.5006400000000  0.4111000000000  0.5697880000000 1.0
C      1  0.5321980000000  0.5781110000000  0.4165630000000 1.0
C      1  0.5763050000000  0.4589050000000  0.5478770000000 1.0
C      1  0.5803570000000  0.5623940000000  0.5448900000000 1.0
C      1  0.5135980000000  0.4273280000000  0.5899880000000 1.0
C      1  0.4458800000000  0.4727510000000  0.5278520000000 1.0
C      1  0.5904370000000  0.5162680000000  0.4710170000000 1.0
C      1  0.5378430000000  0.5619630000000  0.5013040000000 1.0
C      1  0.5674750000000  0.5704630000000  0.4996910000000 1.0
C      1  0.4561770000000  0.5282790000000  0.5300880000000 1.0
C      1  0.5042210000000  0.4777020000000  0.5122860000000 1.0
C      1  0.4506540000000  0.5317620000000  0.4983990000000 1.0
C      1  0.4546420000000  0.6090660000000  0.5200610000000 1.0
C      1  0.4654730000000  0.4359930000000  0.5117200000000 1.0
C      1  0.4607120000000  0.3949270000000  0.4672470000000 1.0
C      1  0.4867930000000  0.5681290000000  0.5857890000000 1.0
C      1  0.5596510000000  0.5361500000000  0.5897460000000 1.0
C      1  0.5461410000000  0.5279870000000  0.4707120000000 1.0
C      1  0.4437780000000  0.5620500000000  0.4145530000000 1.0
C      1  0.4668040000000  0.5743130000000  0.4628200000000 1.0
C      1  0.5510600000000  0.4613560000000  0.5912300000000 1.0
C      1  0.6013160000000  0.5444370000000  0.4758200000000 1.0
C      1  0.5743230000000  0.4689210000000  0.5751460000000 1.0
C      1  0.4043680000000  0.5363200000000  0.5150650000000 1.0
C      1  0.4460580000000  0.4820830000000  0.4315690000000 1.0
C      1  0.4231330000000  0.4108080000000  0.4908450000000 1.0
C      1  0.4304230000000  0.5676180000000  0.5460180000000 1.0
C      1  0.4210640000000  0.4684750000000  0.4920930000000 1.0
C      1  0.4768190000000  0.4829270000000  0.4261340000000 1.0
C      1  0.4478070000000  0.5150740000000  0.3950960000000 1.0
C      1  0.5910670000000  0.5055760000000  0.5305440000000 1.0
C      1  0.5981890000000  0.4695830000000  0.4820970000000 1.0
C      1  0.6094650000000  0.5426200000000  0.5049460000000 1.0
C      1  0.5658430000000  0.5091060000000  0.6006820000000 1.0
C      1  0.4619030000000  0.4812880000000  0.5004400000000 1.0
C      1  0.5207980000000  0.5208320000000  0.5127320000000 1.0
C      1  0.5760610000000  0.5398680000000  0.5645660000000 1.0
C      1  0.4765020000000  0.5542200000000  0.4872130000000 1.0
C      1  0.5244140000000  0.4488780000000  0.4795350000000 1.0
END
