TITL C-950533-5798-233 -3.20506517160011e-06 125000 -582.227024361073 0 0 93 (C1) n - 1
REM
REM in /home/bkarasulu/work/CARBON/AIRSS/Generating-Clusters/EDIP-Nigel-Params/with-SteepDescent/Only-C1/SD-CG/HFTN-CG
REM
REM
REM
REM
REM
REM ./C.cell (11c1c37f851c82e70ff6c80c92926a4b)
REM
REM compiler GCC version 9.2.1 20190827 (Red Hat 9.2.1-1)
REM options -cpp -mtune=generic -march=x86-64 -g -O0 -fpre-include=/usr/include/finclude/math-vector-fortran.h
REM seed -905972437 -1380665059 -1575149726 -638283546 1965457141 433951602 -187365841 -1569736198 877207926 -1337470788 -2038450202 -2140325951 924174000 1204982712 -1641885132 604802056 520927063 -813165182 755645178 -246370255 -645966802 -2114705449 -1473692417 -1121483115 81848147 845402405 -678852713 1768766927 1983524122 796622612 -1089700515 -961970659 -1522707962
REM
CELL 1.54180   50.00000   50.00000   50.00000   90.00000   90.00000   90.00000
LATT -1
SFAC C  
C      1  0.4641610000000  0.5083740000000  0.4709620000000 1.0
C      1  0.4628150000000  0.5672160000000  0.5473040000000 1.0
C      1  0.4659270000000  0.4437080000000  0.5195710000000 1.0
C      1  0.5637740000000  0.4981530000000  0.5306600000000 1.0
C      1  0.4933950000000  0.4379020000000  0.5348280000000 1.0
C      1  0.5172680000000  0.4756610000000  0.5811830000000 1.0
C      1  0.4267890000000  0.4802000000000  0.5502390000000 1.0
C      1  0.4965920000000  0.4334280000000  0.4855040000000 1.0
C      1  0.4849890000000  0.5324010000000  0.5076980000000 1.0
C      1  0.5530520000000  0.5008330000000  0.5572950000000 1.0
C      1  0.5065220000000  0.4331910000000  0.4572600000000 1.0
C      1  0.4691730000000  0.4892070000000  0.5401000000000 1.0
C      1  0.4621430000000  0.4738340000000  0.5126730000000 1.0
C      1  0.5127240000000  0.4162070000000  0.5230180000000 1.0
C      1  0.4964370000000  0.5361730000000  0.4144470000000 1.0
C      1  0.5415270000000  0.4749650000000  0.5647460000000 1.0
C      1  0.5107120000000  0.5098850000000  0.4184870000000 1.0
C      1  0.4938210000000  0.5682860000000  0.5367150000000 1.0
C      1  0.4440450000000  0.4381620000000  0.5402940000000 1.0
C      1  0.4284560000000  0.5305160000000  0.5397090000000 1.0
C      1  0.5264100000000  0.5322640000000  0.4870600000000 1.0
C      1  0.4956230000000  0.5025070000000  0.5059060000000 1.0
C      1  0.4740310000000  0.5002230000000  0.5878280000000 1.0
C      1  0.5027790000000  0.5010630000000  0.5839430000000 1.0
C      1  0.4242990000000  0.5345960000000  0.4669170000000 1.0
C      1  0.5113050000000  0.5726510000000  0.5600480000000 1.0
C      1  0.5444490000000  0.5277580000000  0.5677320000000 1.0
C      1  0.4361690000000  0.5585660000000  0.4618250000000 1.0
C      1  0.5430770000000  0.5477610000000  0.5415750000000 1.0
C      1  0.5317220000000  0.4675350000000  0.4123270000000 1.0
C      1  0.4433460000000  0.5526900000000  0.5276110000000 1.0
C      1  0.4927550000000  0.4877110000000  0.4265630000000 1.0
C      1  0.4711080000000  0.5512450000000  0.5744750000000 1.0
C      1  0.4598780000000  0.5225370000000  0.5748100000000 1.0
C      1  0.4651580000000  0.4962870000000  0.4183800000000 1.0
C      1  0.4481240000000  0.4778900000000  0.4312430000000 1.0
C      1  0.4267730000000  0.5028040000000  0.5303010000000 1.0
C      1  0.4666410000000  0.4352310000000  0.4905880000000 1.0
C      1  0.4588760000000  0.5621550000000  0.4776730000000 1.0
C      1  0.5164080000000  0.5267550000000  0.5798480000000 1.0
C      1  0.5281050000000  0.5092370000000  0.5067700000000 1.0
C      1  0.4795740000000  0.4869600000000  0.4834180000000 1.0
C      1  0.5046800000000  0.5579170000000  0.4320530000000 1.0
C      1  0.4648250000000  0.5190370000000  0.5452140000000 1.0
C      1  0.4563550000000  0.5426340000000  0.5013860000000 1.0
C      1  0.5651210000000  0.4845690000000  0.4444360000000 1.0
C      1  0.4278720000000  0.4979460000000  0.5010120000000 1.0
C      1  0.4972950000000  0.4825160000000  0.4573880000000 1.0
C      1  0.5009790000000  0.5519460000000  0.5771620000000 1.0
C      1  0.5029740000000  0.4518600000000  0.5814430000000 1.0
C      1  0.5358670000000  0.5788220000000  0.4876810000000 1.0
C      1  0.5252410000000  0.4888350000000  0.4621530000000 1.0
C      1  0.5460040000000  0.5327900000000  0.4457940000000 1.0
C      1  0.5105470000000  0.4619800000000  0.5284320000000 1.0
C      1  0.5618650000000  0.4716800000000  0.5212020000000 1.0
C      1  0.4603630000000  0.4570480000000  0.4462620000000 1.0
C      1  0.5361500000000  0.4984250000000  0.4088210000000 1.0
C      1  0.4835530000000  0.5245550000000  0.4544890000000 1.0
C      1  0.5387780000000  0.4297730000000  0.5161670000000 1.0
C      1  0.4313130000000  0.4708060000000  0.4894320000000 1.0
C      1  0.5220240000000  0.5244300000000  0.5361830000000 1.0
C      1  0.4548900000000  0.4764250000000  0.5652970000000 1.0
C      1  0.4515110000000  0.4542180000000  0.4744630000000 1.0
C      1  0.5501160000000  0.5520360000000  0.4909040000000 1.0
C      1  0.4875770000000  0.4447770000000  0.4365750000000 1.0
C      1  0.5482900000000  0.4402540000000  0.4867460000000 1.0
C      1  0.4213700000000  0.4549060000000  0.5386280000000 1.0
C      1  0.4414280000000  0.5202610000000  0.4855120000000 1.0
C      1  0.5665600000000  0.4644320000000  0.4926230000000 1.0
C      1  0.5323420000000  0.5601990000000  0.4392110000000 1.0
C      1  0.5356840000000  0.4404730000000  0.4584170000000 1.0
C      1  0.5576320000000  0.5087020000000  0.4275570000000 1.0
C      1  0.5015790000000  0.4618300000000  0.4127470000000 1.0
C      1  0.5662360000000  0.5388470000000  0.4681640000000 1.0
C      1  0.5754880000000  0.5148740000000  0.4836360000000 1.0
C      1  0.5437620000000  0.4637780000000  0.4395610000000 1.0
C      1  0.5704640000000  0.4881070000000  0.4730050000000 1.0
C      1  0.4587120000000  0.4459440000000  0.5652820000000 1.0
C      1  0.5626260000000  0.5467240000000  0.5188970000000 1.0
C      1  0.5710970000000  0.5191660000000  0.5126880000000 1.0
C      1  0.4856920000000  0.5538430000000  0.4652020000000 1.0
C      1  0.5107450000000  0.4596490000000  0.4991120000000 1.0
C      1  0.4698160000000  0.5257260000000  0.4254690000000 1.0
C      1  0.5420170000000  0.4566120000000  0.5382090000000 1.0
C      1  0.5214480000000  0.5195550000000  0.4600610000000 1.0
C      1  0.4977660000000  0.4882980000000  0.5336500000000 1.0
C      1  0.5311570000000  0.4806650000000  0.4904390000000 1.0
C      1  0.5046060000000  0.4079580000000  0.4977240000000 1.0
C      1  0.5102090000000  0.5757260000000  0.5036670000000 1.0
C      1  0.4930050000000  0.5369820000000  0.5358660000000 1.0
C      1  0.4867900000000  0.4372880000000  0.5642190000000 1.0
C      1  0.5022980000000  0.5496620000000  0.4907840000000 1.0
C      1  0.5343520000000  0.5797850000000  0.4594370000000 1.0
END
