TITL C-951338-5626-293 -2.42333490614227e-06 125000 -593.426881157513 0 0 97 (C1) n - 1
REM
REM in /home/bkarasulu/work/CARBON/AIRSS/Generating-Clusters/EDIP-Nigel-Params/with-SteepDescent/Only-C1/SD-CG/HFTN-CG
REM
REM
REM
REM
REM
REM ./C.cell (11c1c37f851c82e70ff6c80c92926a4b)
REM
REM compiler GCC version 9.2.1 20190827 (Red Hat 9.2.1-1)
REM options -cpp -mtune=generic -march=x86-64 -g -O0 -fpre-include=/usr/include/finclude/math-vector-fortran.h
REM seed -717820868 -1448160715 835933520 169981221 -1888356046 -74849002 -1782761426 -361595434 1350966414 -1258115080 -127470656 442564571 -710480531 -2037479979 1204828227 1804286474 1901532703 -1386849367 -1346563161 -1847895561 -1489272139 123219630 1795674965 1236248647 -1637741706 -892005705 273553549 -793202939 -139377818 2055933055 -108828440 899987383 -1944415367
REM
CELL 1.54180   50.00000   50.00000   50.00000   90.00000   90.00000   90.00000
LATT -1
SFAC C  
C      1  0.5465560000000  0.4510420000000  0.5611590000000 1.0
C      1  0.5110450000000  0.4970280000000  0.5391330000000 1.0
C      1  0.4195150000000  0.4715440000000  0.5268150000000 1.0
C      1  0.4893510000000  0.4544510000000  0.4273760000000 1.0
C      1  0.4543810000000  0.5187540000000  0.4332930000000 1.0
C      1  0.5685130000000  0.4934350000000  0.4695930000000 1.0
C      1  0.4947890000000  0.5373880000000  0.5309250000000 1.0
C      1  0.5477680000000  0.4524320000000  0.4906990000000 1.0
C      1  0.5246310000000  0.5431060000000  0.4363360000000 1.0
C      1  0.4675970000000  0.5779570000000  0.5228310000000 1.0
C      1  0.5116710000000  0.5811480000000  0.4987800000000 1.0
C      1  0.4831030000000  0.5284020000000  0.4291590000000 1.0
C      1  0.4682270000000  0.5472220000000  0.5201660000000 1.0
C      1  0.4481270000000  0.5278330000000  0.5351100000000 1.0
C      1  0.5251150000000  0.4645710000000  0.5090800000000 1.0
C      1  0.4940440000000  0.4985720000000  0.5105550000000 1.0
C      1  0.4502990000000  0.4147670000000  0.5074650000000 1.0
C      1  0.4888780000000  0.4144880000000  0.4654660000000 1.0
C      1  0.4238360000000  0.5165630000000  0.4676740000000 1.0
C      1  0.5494310000000  0.5101470000000  0.4813030000000 1.0
C      1  0.5917750000000  0.4914280000000  0.4866180000000 1.0
C      1  0.5238480000000  0.4132840000000  0.5063220000000 1.0
C      1  0.4210300000000  0.5233820000000  0.5246980000000 1.0
C      1  0.4955630000000  0.5890440000000  0.5222860000000 1.0
C      1  0.4961760000000  0.5189440000000  0.4600170000000 1.0
C      1  0.5404460000000  0.5783110000000  0.5353330000000 1.0
C      1  0.4631390000000  0.4474730000000  0.4410050000000 1.0
C      1  0.5455510000000  0.5365930000000  0.5622290000000 1.0
C      1  0.4924880000000  0.4875340000000  0.4069740000000 1.0
C      1  0.4734460000000  0.4621040000000  0.5725900000000 1.0
C      1  0.5041060000000  0.4775960000000  0.4908440000000 1.0
C      1  0.5375200000000  0.4930140000000  0.4260190000000 1.0
C      1  0.4499170000000  0.4316290000000  0.5297120000000 1.0
C      1  0.4392100000000  0.5352270000000  0.4522370000000 1.0
C      1  0.4190080000000  0.4940640000000  0.4838370000000 1.0
C      1  0.5036280000000  0.5479740000000  0.5567360000000 1.0
C      1  0.4443220000000  0.4688130000000  0.4408590000000 1.0
C      1  0.5001140000000  0.5424170000000  0.4813820000000 1.0
C      1  0.5337180000000  0.4267930000000  0.4839090000000 1.0
C      1  0.4640680000000  0.5116730000000  0.4800710000000 1.0
C      1  0.4252350000000  0.4968510000000  0.5124900000000 1.0
C      1  0.4701670000000  0.5408630000000  0.4884690000000 1.0
C      1  0.5602330000000  0.5627320000000  0.4948050000000 1.0
C      1  0.5909990000000  0.4738040000000  0.5103630000000 1.0
C      1  0.4666520000000  0.4551610000000  0.5284210000000 1.0
C      1  0.5621280000000  0.4903680000000  0.5469980000000 1.0
C      1  0.4637710000000  0.4979280000000  0.5070040000000 1.0
C      1  0.5855340000000  0.5196510000000  0.5124220000000 1.0
C      1  0.4381750000000  0.5761310000000  0.4826810000000 1.0
C      1  0.4571590000000  0.4739130000000  0.5516210000000 1.0
C      1  0.5128610000000  0.5825910000000  0.5456020000000 1.0
C      1  0.4558640000000  0.5575330000000  0.4674580000000 1.0
C      1  0.4882760000000  0.4834860000000  0.4360430000000 1.0
C      1  0.5513060000000  0.4265360000000  0.5484670000000 1.0
C      1  0.5547680000000  0.4678460000000  0.4649040000000 1.0
C      1  0.5573320000000  0.5117250000000  0.5667510000000 1.0
C      1  0.4106540000000  0.5438250000000  0.5088830000000 1.0
C      1  0.5549970000000  0.5530510000000  0.5407220000000 1.0
C      1  0.4615830000000  0.5052810000000  0.5505120000000 1.0
C      1  0.5217920000000  0.4600630000000  0.5730260000000 1.0
C      1  0.5358500000000  0.4890470000000  0.5251220000000 1.0
C      1  0.4962490000000  0.5548770000000  0.4338870000000 1.0
C      1  0.4970720000000  0.4504010000000  0.5613530000000 1.0
C      1  0.5401620000000  0.5812690000000  0.5059600000000 1.0
C      1  0.4432750000000  0.4305440000000  0.4832410000000 1.0
C      1  0.4608880000000  0.4918120000000  0.4460880000000 1.0
C      1  0.4816650000000  0.5713210000000  0.4539460000000 1.0
C      1  0.4151050000000  0.5637550000000  0.4915600000000 1.0
C      1  0.4321980000000  0.4583440000000  0.4925620000000 1.0
C      1  0.5685480000000  0.4673630000000  0.5635780000000 1.0
C      1  0.5722040000000  0.4496950000000  0.5082020000000 1.0
C      1  0.5693940000000  0.5442400000000  0.5162440000000 1.0
C      1  0.4777910000000  0.5155260000000  0.5714690000000 1.0
C      1  0.5134580000000  0.5325430000000  0.5070210000000 1.0
C      1  0.5152280000000  0.4486990000000  0.4416580000000 1.0
C      1  0.5700090000000  0.4313040000000  0.5292170000000 1.0
C      1  0.5005580000000  0.4180920000000  0.5210510000000 1.0
C      1  0.4287510000000  0.4682380000000  0.5529610000000 1.0
C      1  0.5359440000000  0.5121300000000  0.5055710000000 1.0
C      1  0.4773860000000  0.4072440000000  0.5089820000000 1.0
C      1  0.5132030000000  0.4290340000000  0.4630740000000 1.0
C      1  0.4695320000000  0.4368030000000  0.4679920000000 1.0
C      1  0.4808650000000  0.4595870000000  0.4845600000000 1.0
C      1  0.4600780000000  0.4681690000000  0.5026320000000 1.0
C      1  0.5468000000000  0.5571580000000  0.4453090000000 1.0
C      1  0.4998150000000  0.5150780000000  0.4077700000000 1.0
C      1  0.5271170000000  0.5186520000000  0.4188380000000 1.0
C      1  0.5859960000000  0.4962020000000  0.5300970000000 1.0
C      1  0.5206980000000  0.4858070000000  0.5847750000000 1.0
C      1  0.5030760000000  0.5800920000000  0.4715500000000 1.0
C      1  0.5129890000000  0.4919300000000  0.4654010000000 1.0
C      1  0.4513910000000  0.5892650000000  0.5031300000000 1.0
C      1  0.4980830000000  0.4465990000000  0.5305550000000 1.0
C      1  0.5193800000000  0.5083710000000  0.5662230000000 1.0
C      1  0.4906290000000  0.5382970000000  0.5795050000000 1.0
C      1  0.5619900000000  0.5606730000000  0.4670570000000 1.0
C      1  0.5311910000000  0.4743500000000  0.4476260000000 1.0
END
