TITL C-951346-9544-203 -3.30174630334444e-06 125000 -546.347368140319 0 0 89 (C1) n - 1
REM
REM in /home/bkarasulu/work/CARBON/AIRSS/Generating-Clusters/EDIP-Nigel-Params/with-SteepDescent/Only-C1/SD-CG/HFTN-CG
REM
REM
REM
REM
REM
REM ./C.cell (11c1c37f851c82e70ff6c80c92926a4b)
REM
REM compiler GCC version 9.2.1 20190827 (Red Hat 9.2.1-1)
REM options -cpp -mtune=generic -march=x86-64 -g -O0 -fpre-include=/usr/include/finclude/math-vector-fortran.h
REM seed -892256994 -1754792805 -1995030260 2067078676 2071751260 -1027336454 1315630807 -214228664 -301034820 1095497264 -1315441504 -1705268810 1447735959 -1096362537 -924945791 -727691267 -455423030 -1128831474 -1003464731 1506382509 1330811241 1095359284 -413063596 -1330087210 -616381144 1452475989 -2010012023 2034254033 112297399 14027257 -1466511349 216636260 -1480367911
REM
CELL 1.54180   50.00000   50.00000   50.00000   90.00000   90.00000   90.00000
LATT -1
SFAC C  
C      1  0.4519510000000  0.5587060000000  0.5022110000000 1.0
C      1  0.4764120000000  0.4188840000000  0.4815930000000 1.0
C      1  0.4930530000000  0.5316740000000  0.4851340000000 1.0
C      1  0.5635420000000  0.5237450000000  0.5238970000000 1.0
C      1  0.5091370000000  0.4605710000000  0.5791090000000 1.0
C      1  0.5459450000000  0.5569630000000  0.4899560000000 1.0
C      1  0.5086440000000  0.4378850000000  0.5413910000000 1.0
C      1  0.4570280000000  0.4330900000000  0.5261820000000 1.0
C      1  0.4223280000000  0.4829150000000  0.4797180000000 1.0
C      1  0.5458060000000  0.4595670000000  0.5487580000000 1.0
C      1  0.4469130000000  0.5410900000000  0.5269740000000 1.0
C      1  0.4628600000000  0.5141510000000  0.5280870000000 1.0
C      1  0.4814310000000  0.5254780000000  0.4240280000000 1.0
C      1  0.4190990000000  0.5119350000000  0.4843360000000 1.0
C      1  0.4822140000000  0.4199580000000  0.5103870000000 1.0
C      1  0.4708370000000  0.4968450000000  0.5046230000000 1.0
C      1  0.5326070000000  0.4775560000000  0.5802300000000 1.0
C      1  0.5436100000000  0.5678850000000  0.5171620000000 1.0
C      1  0.4894690000000  0.4738890000000  0.5592030000000 1.0
C      1  0.4381230000000  0.5077260000000  0.4420060000000 1.0
C      1  0.4271040000000  0.4736560000000  0.5306040000000 1.0
C      1  0.4594810000000  0.5276670000000  0.5705110000000 1.0
C      1  0.5532140000000  0.4577260000000  0.4337510000000 1.0
C      1  0.4601400000000  0.4756250000000  0.5660630000000 1.0
C      1  0.4686220000000  0.5703440000000  0.4577820000000 1.0
C      1  0.5364920000000  0.5143840000000  0.4977010000000 1.0
C      1  0.5188520000000  0.5684970000000  0.5402490000000 1.0
C      1  0.5926660000000  0.5221020000000  0.5188020000000 1.0
C      1  0.4586890000000  0.5502690000000  0.5534980000000 1.0
C      1  0.4301890000000  0.4656430000000  0.5024680000000 1.0
C      1  0.5608580000000  0.4959210000000  0.4620690000000 1.0
C      1  0.5512640000000  0.4415320000000  0.5192740000000 1.0
C      1  0.5100820000000  0.5265220000000  0.5064660000000 1.0
C      1  0.5070990000000  0.4971130000000  0.5491570000000 1.0
C      1  0.5075540000000  0.5130050000000  0.4239720000000 1.0
C      1  0.5826390000000  0.4755570000000  0.5100740000000 1.0
C      1  0.4354850000000  0.4798010000000  0.4522570000000 1.0
C      1  0.5926630000000  0.5021650000000  0.4988180000000 1.0
C      1  0.5362770000000  0.5276390000000  0.5720790000000 1.0
C      1  0.4802890000000  0.4707600000000  0.4250060000000 1.0
C      1  0.4642340000000  0.4698760000000  0.4504360000000 1.0
C      1  0.4738860000000  0.5771800000000  0.5045360000000 1.0
C      1  0.5113560000000  0.4698050000000  0.4913190000000 1.0
C      1  0.4991530000000  0.5684140000000  0.4335610000000 1.0
C      1  0.5267080000000  0.5266120000000  0.4421960000000 1.0
C      1  0.4818060000000  0.5672310000000  0.5517290000000 1.0
C      1  0.5157270000000  0.4352570000000  0.5687890000000 1.0
C      1  0.5348530000000  0.4829310000000  0.5047590000000 1.0
C      1  0.5304130000000  0.5704680000000  0.4696880000000 1.0
C      1  0.4962570000000  0.4197750000000  0.4601690000000 1.0
C      1  0.4498340000000  0.4266570000000  0.4767580000000 1.0
C      1  0.5107980000000  0.4852500000000  0.4652010000000 1.0
C      1  0.5210590000000  0.5047270000000  0.5748820000000 1.0
C      1  0.4830710000000  0.4949880000000  0.4558240000000 1.0
C      1  0.5575510000000  0.4627380000000  0.4978600000000 1.0
C      1  0.5325010000000  0.4851220000000  0.5350610000000 1.0
C      1  0.4854590000000  0.5843510000000  0.5295500000000 1.0
C      1  0.4063380000000  0.5235710000000  0.5061620000000 1.0
C      1  0.5197060000000  0.5548340000000  0.4480040000000 1.0
C      1  0.5586590000000  0.5506680000000  0.5359650000000 1.0
C      1  0.4591300000000  0.5095890000000  0.4235450000000 1.0
C      1  0.5151510000000  0.4385810000000  0.4875690000000 1.0
C      1  0.4937730000000  0.5170550000000  0.5300830000000 1.0
C      1  0.4835730000000  0.5862330000000  0.4788610000000 1.0
C      1  0.5071820000000  0.4829180000000  0.4210570000000 1.0
C      1  0.4286990000000  0.5014020000000  0.5426500000000 1.0
C      1  0.5761470000000  0.4780990000000  0.5395470000000 1.0
C      1  0.5489990000000  0.4497200000000  0.4627800000000 1.0
C      1  0.5389960000000  0.5517620000000  0.5582330000000 1.0
C      1  0.5085340000000  0.4151100000000  0.5242150000000 1.0
C      1  0.5707710000000  0.4772590000000  0.4433570000000 1.0
C      1  0.4448140000000  0.4569860000000  0.5471970000000 1.0
C      1  0.4741530000000  0.5119680000000  0.4791560000000 1.0
C      1  0.5318800000000  0.4223340000000  0.5070980000000 1.0
C      1  0.4864430000000  0.4567750000000  0.5344020000000 1.0
C      1  0.4349290000000  0.5269120000000  0.4649600000000 1.0
C      1  0.5310430000000  0.4677610000000  0.4198670000000 1.0
C      1  0.4199860000000  0.5277140000000  0.5297010000000 1.0
C      1  0.5572760000000  0.5016210000000  0.5431180000000 1.0
C      1  0.4415740000000  0.4389740000000  0.5008140000000 1.0
C      1  0.4487520000000  0.5527160000000  0.4731900000000 1.0
C      1  0.5331610000000  0.5066170000000  0.4647060000000 1.0
C      1  0.5243540000000  0.4310250000000  0.4597430000000 1.0
C      1  0.5673090000000  0.5397990000000  0.4824060000000 1.0
C      1  0.4891500000000  0.4739730000000  0.5097280000000 1.0
C      1  0.4465740000000  0.5025340000000  0.5669010000000 1.0
C      1  0.5114720000000  0.5899730000000  0.4769290000000 1.0
C      1  0.4776790000000  0.5535110000000  0.4243410000000 1.0
C      1  0.5784560000000  0.5141840000000  0.4758100000000 1.0
END
