TITL C-950535-5962-728 -1.43493026687208e-07 125000 -348.464999092211 0 0 57 (C1) n - 1
REM
REM in /home/bkarasulu/work/CARBON/AIRSS/Generating-Clusters/EDIP-Nigel-Params/with-SteepDescent/Only-C1/SD-CG/HFTN-CG
REM
REM
REM
REM
REM
REM ./C.cell (11c1c37f851c82e70ff6c80c92926a4b)
REM
REM compiler GCC version 9.2.1 20190827 (Red Hat 9.2.1-1)
REM options -cpp -mtune=generic -march=x86-64 -g -O0 -fpre-include=/usr/include/finclude/math-vector-fortran.h
REM seed 31234136 -623835613 2039076624 990289341 -873143797 1034768301 -1372234027 477115003 49438954 1036022389 -1265051996 -1658778780 -860387515 541718412 -1107711129 -418602062 997948825 -1540280384 -1182921935 -904918797 -631100739 2076551065 666324965 -1208406626 -1149343768 647187120 -1027710007 -968740702 410138244 -1241477816 -1358046270 862941748 583049910
REM
CELL 1.54180   50.00000   50.00000   50.00000   90.00000   90.00000   90.00000
LATT -1
SFAC C  
C      1  0.5027570000000  0.4437350000000  0.5196830000000 1.0
C      1  0.4820960000000  0.5380470000000  0.5613000000000 1.0
C      1  0.5105430000000  0.5464630000000  0.4779280000000 1.0
C      1  0.5544200000000  0.5532540000000  0.4786980000000 1.0
C      1  0.4809900000000  0.4625380000000  0.4818300000000 1.0
C      1  0.4442110000000  0.5285860000000  0.5311770000000 1.0
C      1  0.4785340000000  0.5610210000000  0.5169800000000 1.0
C      1  0.4401810000000  0.4846220000000  0.4602050000000 1.0
C      1  0.5005270000000  0.4598730000000  0.5658070000000 1.0
C      1  0.4722530000000  0.4929470000000  0.5527840000000 1.0
C      1  0.4614380000000  0.5543510000000  0.4724710000000 1.0
C      1  0.4837510000000  0.4372390000000  0.4976860000000 1.0
C      1  0.5394870000000  0.4269260000000  0.4703040000000 1.0
C      1  0.5020950000000  0.5257180000000  0.5786470000000 1.0
C      1  0.5312320000000  0.4894480000000  0.4887710000000 1.0
C      1  0.5215280000000  0.5230380000000  0.4981680000000 1.0
C      1  0.4859940000000  0.4824120000000  0.5057350000000 1.0
C      1  0.4859560000000  0.4509720000000  0.5429440000000 1.0
C      1  0.4517110000000  0.4628520000000  0.4734920000000 1.0
C      1  0.4981940000000  0.4891260000000  0.5663560000000 1.0
C      1  0.5261330000000  0.5463070000000  0.5406300000000 1.0
C      1  0.4694040000000  0.4736320000000  0.5306170000000 1.0
C      1  0.5546840000000  0.4487440000000  0.5113510000000 1.0
C      1  0.4954550000000  0.5428400000000  0.5341380000000 1.0
C      1  0.4515250000000  0.5550080000000  0.5232160000000 1.0
C      1  0.5079970000000  0.5318580000000  0.4521140000000 1.0
C      1  0.4570710000000  0.4322050000000  0.5073490000000 1.0
C      1  0.4986940000000  0.4654950000000  0.4578100000000 1.0
C      1  0.5264160000000  0.4654330000000  0.5126610000000 1.0
C      1  0.5608050000000  0.4911370000000  0.4923850000000 1.0
C      1  0.5198780000000  0.4991060000000  0.5482640000000 1.0
C      1  0.4842920000000  0.5590780000000  0.4880270000000 1.0
C      1  0.4234840000000  0.5155880000000  0.4896110000000 1.0
C      1  0.5440710000000  0.4511000000000  0.4573720000000 1.0
C      1  0.5306500000000  0.5672990000000  0.4735890000000 1.0
C      1  0.4367920000000  0.5116100000000  0.4654150000000 1.0
C      1  0.5550800000000  0.5266970000000  0.4665790000000 1.0
C      1  0.5610890000000  0.5532770000000  0.5060240000000 1.0
C      1  0.5601930000000  0.4340180000000  0.4873370000000 1.0
C      1  0.5412660000000  0.5364570000000  0.5174040000000 1.0
C      1  0.4397930000000  0.4539460000000  0.4993240000000 1.0
C      1  0.5333370000000  0.4926650000000  0.4384070000000 1.0
C      1  0.5263270000000  0.5245010000000  0.5616190000000 1.0
C      1  0.4724560000000  0.5088820000000  0.4979970000000 1.0
C      1  0.4602110000000  0.5196500000000  0.5544610000000 1.0
C      1  0.5750830000000  0.5088030000000  0.4757080000000 1.0
C      1  0.5382330000000  0.4808930000000  0.5362390000000 1.0
C      1  0.4822910000000  0.5205580000000  0.4441680000000 1.0
C      1  0.4438680000000  0.5073880000000  0.5092280000000 1.0
C      1  0.5266970000000  0.4748960000000  0.4604140000000 1.0
C      1  0.4863990000000  0.4728530000000  0.4340570000000 1.0
C      1  0.4976690000000  0.5177340000000  0.5156700000000 1.0
C      1  0.4597660000000  0.5290260000000  0.4604830000000 1.0
C      1  0.4408410000000  0.4765480000000  0.5194340000000 1.0
C      1  0.4807240000000  0.4982900000000  0.4274750000000 1.0
C      1  0.5696890000000  0.4744900000000  0.5146590000000 1.0
C      1  0.5337410000000  0.5188210000000  0.4477970000000 1.0
END
