TITL C-950531-5884-61 -2.00368440734257e-06 125000 -936.390153888433 0 0 149 (C1) n - 1
REM
REM in /home/bkarasulu/work/CARBON/AIRSS/Generating-Clusters/EDIP-Nigel-Params/with-SteepDescent/Only-C1/SD-CG/HFTN-CG
REM
REM
REM
REM
REM
REM ./C.cell (11c1c37f851c82e70ff6c80c92926a4b)
REM
REM compiler GCC version 9.2.1 20190827 (Red Hat 9.2.1-1)
REM options -cpp -mtune=generic -march=x86-64 -g -O0 -fpre-include=/usr/include/finclude/math-vector-fortran.h
REM seed 594200222 -1308061588 111925090 1347923339 -453023211 -2146405001 -642884759 -1428229484 -1136092513 1090732998 1554773005 -233378864 -204682312 -1182829112 -860070205 1067143591 1197560728 -283285930 846828445 -726658352 -623888719 -271876537 -218907196 1066113079 -563932926 -1862927983 779411242 551567092 -388005370 202967427 -429527197 1163357863 1139465408
REM
CELL 1.54180   50.00000   50.00000   50.00000   90.00000   90.00000   90.00000
LATT -1
SFAC C  
C      1  0.5687670000000  0.4167350000000  0.4998340000000 1.0
C      1  0.5581170000000  0.5855790000000  0.5203380000000 1.0
C      1  0.5802240000000  0.5211770000000  0.4678610000000 1.0
C      1  0.5632690000000  0.5184320000000  0.4439120000000 1.0
C      1  0.5091660000000  0.5588140000000  0.4513540000000 1.0
C      1  0.5094860000000  0.4179800000000  0.5651110000000 1.0
C      1  0.4666100000000  0.5876470000000  0.5257210000000 1.0
C      1  0.5806330000000  0.4960870000000  0.4882480000000 1.0
C      1  0.4958320000000  0.5622710000000  0.4073290000000 1.0
C      1  0.5392810000000  0.4637870000000  0.4934230000000 1.0
C      1  0.4564150000000  0.5533200000000  0.5831980000000 1.0
C      1  0.4685250000000  0.3933640000000  0.4753580000000 1.0
C      1  0.4649050000000  0.3930500000000  0.5051710000000 1.0
C      1  0.4980050000000  0.4409650000000  0.5242940000000 1.0
C      1  0.5185240000000  0.5198310000000  0.6002750000000 1.0
C      1  0.5345270000000  0.5627380000000  0.4333380000000 1.0
C      1  0.5780760000000  0.5675090000000  0.4545250000000 1.0
C      1  0.4328480000000  0.4701310000000  0.4271330000000 1.0
C      1  0.5568890000000  0.4242850000000  0.5738860000000 1.0
C      1  0.5347970000000  0.4848660000000  0.5166200000000 1.0
C      1  0.5096670000000  0.5604370000000  0.5753290000000 1.0
C      1  0.4971090000000  0.5530790000000  0.5027710000000 1.0
C      1  0.5469800000000  0.4910050000000  0.4086730000000 1.0
C      1  0.5895460000000  0.5598460000000  0.5421740000000 1.0
C      1  0.4784690000000  0.4875080000000  0.6044430000000 1.0
C      1  0.5586290000000  0.5052910000000  0.5790630000000 1.0
C      1  0.4945520000000  0.4743600000000  0.4125280000000 1.0
C      1  0.4771310000000  0.5306280000000  0.4978220000000 1.0
C      1  0.5073650000000  0.5255580000000  0.5359740000000 1.0
C      1  0.4537110000000  0.5647010000000  0.4681090000000 1.0
C      1  0.5832360000000  0.5498930000000  0.4758730000000 1.0
C      1  0.4062710000000  0.4779480000000  0.4316430000000 1.0
C      1  0.6041210000000  0.4952680000000  0.5319790000000 1.0
C      1  0.4975550000000  0.4602110000000  0.4802580000000 1.0
C      1  0.4711650000000  0.4715080000000  0.3978220000000 1.0
C      1  0.5072950000000  0.5107160000000  0.4453660000000 1.0
C      1  0.4631750000000  0.4257420000000  0.5546360000000 1.0
C      1  0.4761490000000  0.4622300000000  0.5270490000000 1.0
C      1  0.4449490000000  0.5701270000000  0.5322990000000 1.0
C      1  0.4200470000000  0.5396110000000  0.5620360000000 1.0
C      1  0.5358500000000  0.4812380000000  0.4671610000000 1.0
C      1  0.5219090000000  0.5717250000000  0.5489510000000 1.0
C      1  0.4371820000000  0.5657620000000  0.5603820000000 1.0
C      1  0.4703130000000  0.4446150000000  0.5763150000000 1.0
C      1  0.4484240000000  0.4842910000000  0.4064990000000 1.0
C      1  0.4785460000000  0.4814760000000  0.4847080000000 1.0
C      1  0.5892890000000  0.4584440000000  0.5140570000000 1.0
C      1  0.5679140000000  0.4217650000000  0.4714390000000 1.0
C      1  0.4487580000000  0.5283070000000  0.4109320000000 1.0
C      1  0.5228020000000  0.5485250000000  0.5277840000000 1.0
C      1  0.4943830000000  0.5354810000000  0.4360590000000 1.0
C      1  0.4894550000000  0.4847880000000  0.5406430000000 1.0
C      1  0.4189380000000  0.5253380000000  0.5357940000000 1.0
C      1  0.5613440000000  0.4924270000000  0.4328550000000 1.0
C      1  0.5121110000000  0.4751280000000  0.5600180000000 1.0
C      1  0.4586820000000  0.4699880000000  0.5028170000000 1.0
C      1  0.4237410000000  0.4756790000000  0.5458480000000 1.0
C      1  0.5367710000000  0.4970070000000  0.5968150000000 1.0
C      1  0.4841610000000  0.5415700000000  0.5763420000000 1.0
C      1  0.4079730000000  0.4923350000000  0.5001670000000 1.0
C      1  0.4551660000000  0.5154640000000  0.4571330000000 1.0
C      1  0.4897590000000  0.4171700000000  0.5417810000000 1.0
C      1  0.4064390000000  0.5441350000000  0.4654750000000 1.0
C      1  0.5253740000000  0.4225770000000  0.4948620000000 1.0
C      1  0.5395140000000  0.5385190000000  0.4879980000000 1.0
C      1  0.4232910000000  0.5696110000000  0.5149650000000 1.0
C      1  0.5505310000000  0.5330380000000  0.5384400000000 1.0
C      1  0.5366090000000  0.4218590000000  0.5552230000000 1.0
C      1  0.5848660000000  0.4651200000000  0.5645950000000 1.0
C      1  0.4939180000000  0.4849880000000  0.4407120000000 1.0
C      1  0.4353450000000  0.4255270000000  0.4857050000000 1.0
C      1  0.4920840000000  0.5844850000000  0.4511990000000 1.0
C      1  0.5538710000000  0.5803800000000  0.4490630000000 1.0
C      1  0.5598390000000  0.5003180000000  0.5110440000000 1.0
C      1  0.5166400000000  0.5237710000000  0.3866610000000 1.0
C      1  0.4112760000000  0.4974260000000  0.5298500000000 1.0
C      1  0.5777950000000  0.4695810000000  0.4728050000000 1.0
C      1  0.5071600000000  0.5003730000000  0.5201550000000 1.0
C      1  0.5508810000000  0.5808180000000  0.5487370000000 1.0
C      1  0.5145390000000  0.3949970000000  0.5004930000000 1.0
C      1  0.5300360000000  0.5432950000000  0.5868720000000 1.0
C      1  0.4915210000000  0.5341190000000  0.3928870000000 1.0
C      1  0.4527430000000  0.5353290000000  0.4798710000000 1.0
C      1  0.4377970000000  0.5286880000000  0.5842300000000 1.0
C      1  0.4926880000000  0.4234980000000  0.4461100000000 1.0
C      1  0.4522740000000  0.5036680000000  0.5750250000000 1.0
C      1  0.6057250000000  0.4921570000000  0.5032660000000 1.0
C      1  0.5741280000000  0.5443000000000  0.5236990000000 1.0
C      1  0.5198870000000  0.5094700000000  0.4729480000000 1.0
C      1  0.4486300000000  0.4620780000000  0.4517610000000 1.0
C      1  0.3947850000000  0.5197070000000  0.4568700000000 1.0
C      1  0.5633560000000  0.4846200000000  0.5576880000000 1.0
C      1  0.3907440000000  0.5054090000000  0.4814180000000 1.0
C      1  0.5376820000000  0.4656310000000  0.4007330000000 1.0
C      1  0.5612280000000  0.4422960000000  0.5129390000000 1.0
C      1  0.4672920000000  0.4867600000000  0.4571270000000 1.0
C      1  0.4988760000000  0.4402830000000  0.5835350000000 1.0
C      1  0.4737480000000  0.5855790000000  0.4750780000000 1.0
C      1  0.4362510000000  0.4556150000000  0.4837890000000 1.0
C      1  0.4640880000000  0.4342240000000  0.4469970000000 1.0
C      1  0.4826700000000  0.5303420000000  0.5491670000000 1.0
C      1  0.5374790000000  0.5182240000000  0.4044010000000 1.0
C      1  0.5478090000000  0.5360890000000  0.4259040000000 1.0
C      1  0.5440510000000  0.5926890000000  0.4724190000000 1.0
C      1  0.5891190000000  0.4426430000000  0.4786110000000 1.0
C      1  0.5379960000000  0.5908620000000  0.5001000000000 1.0
C      1  0.5345410000000  0.4420480000000  0.5332830000000 1.0
C      1  0.5368810000000  0.4709790000000  0.5439380000000 1.0
C      1  0.4950410000000  0.4044780000000  0.4697110000000 1.0
C      1  0.5400120000000  0.4322010000000  0.4701990000000 1.0
C      1  0.5078410000000  0.5960740000000  0.5391280000000 1.0
C      1  0.5666260000000  0.4693560000000  0.4470140000000 1.0
C      1  0.4089480000000  0.4640540000000  0.4931680000000 1.0
C      1  0.4550000000000  0.5620270000000  0.4391670000000 1.0
C      1  0.5632660000000  0.5547440000000  0.4976830000000 1.0
C      1  0.5749050000000  0.5026380000000  0.5365800000000 1.0
C      1  0.4557310000000  0.4675830000000  0.5902360000000 1.0
C      1  0.4020040000000  0.4485140000000  0.5156230000000 1.0
C      1  0.4072010000000  0.5056930000000  0.4338450000000 1.0
C      1  0.5782580000000  0.4400470000000  0.5741990000000 1.0
C      1  0.4946250000000  0.5059680000000  0.4934830000000 1.0
C      1  0.4766940000000  0.5782180000000  0.4266570000000 1.0
C      1  0.4857560000000  0.5817980000000  0.5028190000000 1.0
C      1  0.4980140000000  0.4345910000000  0.4946270000000 1.0
C      1  0.5149510000000  0.4531500000000  0.4114320000000 1.0
C      1  0.4438330000000  0.4134690000000  0.5109850000000 1.0
C      1  0.4898260000000  0.5155450000000  0.5952350000000 1.0
C      1  0.4497600000000  0.4133270000000  0.4632480000000 1.0
C      1  0.5230540000000  0.5731960000000  0.4085150000000 1.0
C      1  0.4181910000000  0.4479880000000  0.5384710000000 1.0
C      1  0.6026730000000  0.4665630000000  0.5413200000000 1.0
C      1  0.4912370000000  0.3939150000000  0.5203250000000 1.0
C      1  0.5160730000000  0.5526060000000  0.4802180000000 1.0
C      1  0.4691930000000  0.5054180000000  0.5503470000000 1.0
C      1  0.5214780000000  0.4714220000000  0.5891690000000 1.0
C      1  0.4678520000000  0.5156640000000  0.3945920000000 1.0
C      1  0.5545280000000  0.5358160000000  0.5703770000000 1.0
C      1  0.5109270000000  0.5983950000000  0.5096450000000 1.0
C      1  0.4224720000000  0.5191690000000  0.4145680000000 1.0
C      1  0.4998400000000  0.4686950000000  0.6091350000000 1.0
C      1  0.4412010000000  0.4293230000000  0.5356880000000 1.0
C      1  0.4218770000000  0.5313050000000  0.4877100000000 1.0
C      1  0.4632080000000  0.5341700000000  0.4356640000000 1.0
C      1  0.5119670000000  0.4660190000000  0.4561720000000 1.0
C      1  0.5704030000000  0.5633350000000  0.5632620000000 1.0
C      1  0.4151730000000  0.5431850000000  0.5134010000000 1.0
C      1  0.4810590000000  0.5976780000000  0.5473770000000 1.0
C      1  0.4326870000000  0.4809820000000  0.5729200000000 1.0
C      1  0.5171270000000  0.4407990000000  0.4401610000000 1.0
END
