TITL C-950525-1983-373 -2.48245840523407e-06 125000 -756.841465531032 0 0 121 (C1) n - 1
REM
REM in /home/bkarasulu/work/CARBON/AIRSS/Generating-Clusters/EDIP-Nigel-Params/with-SteepDescent/Only-C1/SD-CG/HFTN-CG
REM
REM
REM
REM
REM
REM ./C.cell (11c1c37f851c82e70ff6c80c92926a4b)
REM
REM compiler GCC version 9.2.1 20190827 (Red Hat 9.2.1-1)
REM options -cpp -mtune=generic -march=x86-64 -g -O0 -fpre-include=/usr/include/finclude/math-vector-fortran.h
REM seed 1433810489 268663529 1753805512 1703730052 -557328857 68844427 306974122 178857167 -2021725184 -404390950 -392112329 -283775336 228025729 -724582265 1620912245 -1332615782 -1528964576 657529134 1353506612 -960713863 -227512790 -1189731570 2059143538 1027076612 2092825316 -347931158 608387088 -18495241 -1361162467 1120828721 1446673504 -818941944 341240819
REM
CELL 1.54180   50.00000   50.00000   50.00000   90.00000   90.00000   90.00000
LATT -1
SFAC C  
C      1  0.4296670000000  0.5063890000000  0.4868680000000 1.0
C      1  0.5005760000000  0.5355710000000  0.5785260000000 1.0
C      1  0.4695720000000  0.5795690000000  0.5146810000000 1.0
C      1  0.4116170000000  0.5325300000000  0.4915710000000 1.0
C      1  0.5422400000000  0.4925170000000  0.4519890000000 1.0
C      1  0.5247890000000  0.5260410000000  0.5164650000000 1.0
C      1  0.4526790000000  0.4566590000000  0.4301470000000 1.0
C      1  0.5029630000000  0.4144600000000  0.5398300000000 1.0
C      1  0.4673750000000  0.4645290000000  0.4777310000000 1.0
C      1  0.4510470000000  0.4940660000000  0.5229960000000 1.0
C      1  0.5258840000000  0.4113720000000  0.4765890000000 1.0
C      1  0.4215650000000  0.5220810000000  0.4475990000000 1.0
C      1  0.5924280000000  0.5025980000000  0.5309290000000 1.0
C      1  0.5591440000000  0.5627780000000  0.4845470000000 1.0
C      1  0.5549970000000  0.4765160000000  0.4732520000000 1.0
C      1  0.4457040000000  0.5349490000000  0.5557750000000 1.0
C      1  0.5415490000000  0.4967520000000  0.6003690000000 1.0
C      1  0.4395190000000  0.4632220000000  0.5678940000000 1.0
C      1  0.5668170000000  0.5508320000000  0.5566200000000 1.0
C      1  0.5251370000000  0.4449120000000  0.4343330000000 1.0
C      1  0.5703750000000  0.5480880000000  0.5282320000000 1.0
C      1  0.5632980000000  0.5072690000000  0.4363830000000 1.0
C      1  0.4232650000000  0.5489820000000  0.5136220000000 1.0
C      1  0.4456830000000  0.4521560000000  0.4592090000000 1.0
C      1  0.4428020000000  0.4842930000000  0.4248160000000 1.0
C      1  0.5238710000000  0.4701470000000  0.5039700000000 1.0
C      1  0.4428700000000  0.4470860000000  0.5433090000000 1.0
C      1  0.5720560000000  0.5268590000000  0.5734430000000 1.0
C      1  0.4333790000000  0.4504880000000  0.5141620000000 1.0
C      1  0.4441290000000  0.5618800000000  0.4741220000000 1.0
C      1  0.5157710000000  0.5982390000000  0.5054430000000 1.0
C      1  0.5490700000000  0.5115220000000  0.4101020000000 1.0
C      1  0.5209900000000  0.5196660000000  0.4697450000000 1.0
C      1  0.5191550000000  0.5732960000000  0.4256010000000 1.0
C      1  0.5012580000000  0.4924140000000  0.5377910000000 1.0
C      1  0.4931180000000  0.5534040000000  0.4952160000000 1.0
C      1  0.5317930000000  0.4383280000000  0.4638010000000 1.0
C      1  0.4869220000000  0.4841630000000  0.4094040000000 1.0
C      1  0.4428450000000  0.4242210000000  0.5003990000000 1.0
C      1  0.4759860000000  0.4091060000000  0.4632720000000 1.0
C      1  0.4875330000000  0.5866960000000  0.4671240000000 1.0
C      1  0.5906080000000  0.4873500000000  0.4529310000000 1.0
C      1  0.4057340000000  0.4763710000000  0.4878600000000 1.0
C      1  0.4506570000000  0.4241570000000  0.4716750000000 1.0
C      1  0.5766790000000  0.5015680000000  0.5563730000000 1.0
C      1  0.5649190000000  0.5338860000000  0.4497320000000 1.0
C      1  0.5653410000000  0.5342970000000  0.4795320000000 1.0
C      1  0.4726160000000  0.5305430000000  0.4986180000000 1.0
C      1  0.5249930000000  0.5799270000000  0.5508330000000 1.0
C      1  0.5813340000000  0.4820010000000  0.5093430000000 1.0
C      1  0.4233740000000  0.5034370000000  0.5292410000000 1.0
C      1  0.4858150000000  0.5431470000000  0.4409080000000 1.0
C      1  0.5094440000000  0.5903480000000  0.4478200000000 1.0
C      1  0.4805430000000  0.4592710000000  0.4232150000000 1.0
C      1  0.5667280000000  0.4492560000000  0.5224890000000 1.0
C      1  0.5121270000000  0.4571940000000  0.4798590000000 1.0
C      1  0.4551390000000  0.5610120000000  0.5591030000000 1.0
C      1  0.4235620000000  0.5321130000000  0.5378360000000 1.0
C      1  0.4666210000000  0.5016320000000  0.4221590000000 1.0
C      1  0.4057020000000  0.4621920000000  0.5130660000000 1.0
C      1  0.5089390000000  0.4643280000000  0.5286950000000 1.0
C      1  0.5940520000000  0.4950110000000  0.4823130000000 1.0
C      1  0.5298680000000  0.5776720000000  0.5203990000000 1.0
C      1  0.4994370000000  0.4761900000000  0.4589470000000 1.0
C      1  0.4239520000000  0.4933810000000  0.4451250000000 1.0
C      1  0.4716790000000  0.5149350000000  0.5262750000000 1.0
C      1  0.5830540000000  0.4589960000000  0.4516600000000 1.0
C      1  0.4751200000000  0.5158810000000  0.4501200000000 1.0
C      1  0.4029790000000  0.4818660000000  0.5348620000000 1.0
C      1  0.5110180000000  0.5450400000000  0.4255570000000 1.0
C      1  0.5488940000000  0.4873980000000  0.5009800000000 1.0
C      1  0.5578480000000  0.5692300000000  0.5123740000000 1.0
C      1  0.4562750000000  0.5194730000000  0.4749900000000 1.0
C      1  0.5188570000000  0.4897970000000  0.5832330000000 1.0
C      1  0.4476520000000  0.4746620000000  0.5003880000000 1.0
C      1  0.5220380000000  0.4758210000000  0.4368440000000 1.0
C      1  0.5413270000000  0.5170370000000  0.4931010000000 1.0
C      1  0.4945280000000  0.5084260000000  0.5882370000000 1.0
C      1  0.5429630000000  0.4093780000000  0.4987270000000 1.0
C      1  0.4457530000000  0.5654550000000  0.5026470000000 1.0
C      1  0.4864950000000  0.4147430000000  0.4380010000000 1.0
C      1  0.5911500000000  0.5293730000000  0.5180780000000 1.0
C      1  0.5452330000000  0.5672490000000  0.5666530000000 1.0
C      1  0.5148560000000  0.4599140000000  0.5770620000000 1.0
C      1  0.5541960000000  0.4624640000000  0.5449850000000 1.0
C      1  0.5503510000000  0.5575240000000  0.4410460000000 1.0
C      1  0.5503150000000  0.4238890000000  0.5217930000000 1.0
C      1  0.4652780000000  0.4681300000000  0.5813150000000 1.0
C      1  0.4983640000000  0.4362750000000  0.4248100000000 1.0
C      1  0.5160790000000  0.4909270000000  0.4107510000000 1.0
C      1  0.4871920000000  0.4422950000000  0.4895500000000 1.0
C      1  0.4208350000000  0.5443470000000  0.4657370000000 1.0
C      1  0.4208050000000  0.4703210000000  0.4639610000000 1.0
C      1  0.5521430000000  0.4907270000000  0.5451930000000 1.0
C      1  0.4832850000000  0.4242480000000  0.5598130000000 1.0
C      1  0.5216310000000  0.5219560000000  0.4097650000000 1.0
C      1  0.5610940000000  0.4469810000000  0.4680130000000 1.0
C      1  0.4691750000000  0.4969790000000  0.5806860000000 1.0
C      1  0.5284240000000  0.5325880000000  0.5685840000000 1.0
C      1  0.5360670000000  0.5685590000000  0.4653260000000 1.0
C      1  0.5475270000000  0.5230910000000  0.5913560000000 1.0
C      1  0.4966490000000  0.5034260000000  0.4673880000000 1.0
C      1  0.5015960000000  0.5076720000000  0.5108190000000 1.0
C      1  0.4874060000000  0.4511740000000  0.5721530000000 1.0
C      1  0.5119990000000  0.5520950000000  0.5185560000000 1.0
C      1  0.4869990000000  0.4426470000000  0.5201740000000 1.0
C      1  0.4659020000000  0.5631980000000  0.4324530000000 1.0
C      1  0.4621490000000  0.5765890000000  0.4566750000000 1.0
C      1  0.5259550000000  0.5019490000000  0.5556460000000 1.0
C      1  0.4447720000000  0.5114790000000  0.5739120000000 1.0
C      1  0.5914840000000  0.5241770000000  0.4889910000000 1.0
C      1  0.4892230000000  0.5955240000000  0.4957020000000 1.0
C      1  0.4621780000000  0.4131600000000  0.5186580000000 1.0
C      1  0.4746870000000  0.5742540000000  0.5442960000000 1.0
C      1  0.5274570000000  0.4524210000000  0.5501880000000 1.0
C      1  0.4976300000000  0.4065730000000  0.4826420000000 1.0
C      1  0.5004700000000  0.5603870000000  0.5493800000000 1.0
C      1  0.4250720000000  0.4892490000000  0.5652550000000 1.0
C      1  0.4576790000000  0.4222100000000  0.5456570000000 1.0
C      1  0.5107760000000  0.5489540000000  0.4695310000000 1.0
C      1  0.5298170000000  0.4239500000000  0.5435020000000 1.0
END
