TITL C-950524-1808-232 -1.91512966563899e-06 125000 -826.764466910878 0 0 132 (C1) n - 1
REM
REM in /home/bkarasulu/work/CARBON/AIRSS/Generating-Clusters/EDIP-Nigel-Params/with-SteepDescent/Only-C1/SD-CG/HFTN-CG
REM
REM
REM
REM
REM
REM ./C.cell (11c1c37f851c82e70ff6c80c92926a4b)
REM
REM compiler GCC version 9.2.1 20190827 (Red Hat 9.2.1-1)
REM options -cpp -mtune=generic -march=x86-64 -g -O0 -fpre-include=/usr/include/finclude/math-vector-fortran.h
REM seed -51395046 1419936884 1310289237 -290400314 713001856 -1664669731 1894358193 -280937278 -498510011 -2050399954 -1751003542 -1229366241 1036004074 -846678095 -1299288232 -2025742763 -810480143 -1619491107 -268362444 726227784 -196274612 -1840924486 1580436489 1924251278 324581567 1405574370 -222488853 1201970665 28247307 -1932047416 814176170 -442831910 -184347801
REM
CELL 1.54180   50.00000   50.00000   50.00000   90.00000   90.00000   90.00000
LATT -1
SFAC C  
C      1  0.4754090000000  0.4649840000000  0.5631430000000 1.0
C      1  0.4128150000000  0.5057570000000  0.4821160000000 1.0
C      1  0.5816460000000  0.4724370000000  0.4265420000000 1.0
C      1  0.5253670000000  0.4666710000000  0.4223930000000 1.0
C      1  0.4481110000000  0.4178570000000  0.4920510000000 1.0
C      1  0.4282770000000  0.5444560000000  0.5201030000000 1.0
C      1  0.4641480000000  0.4217330000000  0.5498210000000 1.0
C      1  0.4258770000000  0.4908990000000  0.4600340000000 1.0
C      1  0.5354620000000  0.5828640000000  0.4415650000000 1.0
C      1  0.4781350000000  0.5026890000000  0.4089480000000 1.0
C      1  0.4799700000000  0.4964100000000  0.4592380000000 1.0
C      1  0.5499800000000  0.5022390000000  0.4421330000000 1.0
C      1  0.4297480000000  0.4326010000000  0.4765630000000 1.0
C      1  0.4579110000000  0.5074160000000  0.5336840000000 1.0
C      1  0.4150900000000  0.4363630000000  0.5364890000000 1.0
C      1  0.5252940000000  0.4756250000000  0.4950710000000 1.0
C      1  0.5108290000000  0.4312540000000  0.5629440000000 1.0
C      1  0.4426290000000  0.4413260000000  0.5418170000000 1.0
C      1  0.4994350000000  0.5986490000000  0.5033290000000 1.0
C      1  0.5740920000000  0.5318420000000  0.5052990000000 1.0
C      1  0.4364740000000  0.4923140000000  0.5515580000000 1.0
C      1  0.4110420000000  0.5021410000000  0.5369710000000 1.0
C      1  0.5696080000000  0.4459100000000  0.4371840000000 1.0
C      1  0.4379150000000  0.5099770000000  0.4397680000000 1.0
C      1  0.5325370000000  0.5416890000000  0.5922030000000 1.0
C      1  0.5769710000000  0.4620630000000  0.5778210000000 1.0
C      1  0.4796830000000  0.5844870000000  0.5615690000000 1.0
C      1  0.4998170000000  0.5202770000000  0.4166390000000 1.0
C      1  0.4462760000000  0.5191630000000  0.5070590000000 1.0
C      1  0.5537710000000  0.4416500000000  0.5181630000000 1.0
C      1  0.5401210000000  0.5621560000000  0.4869860000000 1.0
C      1  0.4021930000000  0.4249760000000  0.5144020000000 1.0
C      1  0.5326500000000  0.5549430000000  0.4386210000000 1.0
C      1  0.4942280000000  0.4556480000000  0.4612600000000 1.0
C      1  0.5677530000000  0.5249480000000  0.4317800000000 1.0
C      1  0.5638130000000  0.4404620000000  0.4676190000000 1.0
C      1  0.4642400000000  0.5292520000000  0.5518650000000 1.0
C      1  0.5892070000000  0.4897250000000  0.5239370000000 1.0
C      1  0.5425230000000  0.4206440000000  0.4659960000000 1.0
C      1  0.4637490000000  0.5100450000000  0.5855340000000 1.0
C      1  0.5201530000000  0.5553800000000  0.5113480000000 1.0
C      1  0.5393950000000  0.4687860000000  0.5214260000000 1.0
C      1  0.5866740000000  0.4925540000000  0.4739210000000 1.0
C      1  0.4824280000000  0.4361670000000  0.5702420000000 1.0
C      1  0.5422450000000  0.5422770000000  0.4640340000000 1.0
C      1  0.4904450000000  0.4693010000000  0.5365660000000 1.0
C      1  0.4430580000000  0.4580470000000  0.4684470000000 1.0
C      1  0.5233020000000  0.4156120000000  0.4871490000000 1.0
C      1  0.4835710000000  0.4958060000000  0.5272550000000 1.0
C      1  0.5673290000000  0.4346270000000  0.5420140000000 1.0
C      1  0.5318290000000  0.4186870000000  0.4388840000000 1.0
C      1  0.4972820000000  0.4671930000000  0.4874410000000 1.0
C      1  0.4551940000000  0.5825340000000  0.4859280000000 1.0
C      1  0.4749370000000  0.5800010000000  0.4619530000000 1.0
C      1  0.4535450000000  0.5848660000000  0.5469440000000 1.0
C      1  0.4783050000000  0.4547830000000  0.5065030000000 1.0
C      1  0.5502880000000  0.5504820000000  0.5480370000000 1.0
C      1  0.5163670000000  0.5834350000000  0.5230090000000 1.0
C      1  0.5908050000000  0.5233670000000  0.5295010000000 1.0
C      1  0.4299760000000  0.5946660000000  0.4785990000000 1.0
C      1  0.4516830000000  0.4683290000000  0.4958090000000 1.0
C      1  0.5204500000000  0.4729780000000  0.5446160000000 1.0
C      1  0.5677130000000  0.4824990000000  0.4036940000000 1.0
C      1  0.4708470000000  0.5995310000000  0.5083830000000 1.0
C      1  0.4833120000000  0.5417230000000  0.4826620000000 1.0
C      1  0.5727690000000  0.4487070000000  0.4946390000000 1.0
C      1  0.5715750000000  0.5375910000000  0.4579500000000 1.0
C      1  0.4545960000000  0.5481780000000  0.4847120000000 1.0
C      1  0.4117060000000  0.4918180000000  0.5089880000000 1.0
C      1  0.5692210000000  0.4885040000000  0.5811560000000 1.0
C      1  0.4154220000000  0.5343660000000  0.4769460000000 1.0
C      1  0.5722270000000  0.5298590000000  0.5533620000000 1.0
C      1  0.4559740000000  0.4967630000000  0.4838310000000 1.0
C      1  0.5094020000000  0.4221390000000  0.5347570000000 1.0
C      1  0.5427910000000  0.4411130000000  0.4230830000000 1.0
C      1  0.4619140000000  0.4939910000000  0.4331190000000 1.0
C      1  0.4083300000000  0.4430250000000  0.4935780000000 1.0
C      1  0.5258270000000  0.4738590000000  0.5931630000000 1.0
C      1  0.5295400000000  0.4548670000000  0.5680440000000 1.0
C      1  0.5273870000000  0.5170010000000  0.4057340000000 1.0
C      1  0.5491700000000  0.4915680000000  0.6021210000000 1.0
C      1  0.5238300000000  0.5032580000000  0.5554510000000 1.0
C      1  0.4674450000000  0.4296970000000  0.4356200000000 1.0
C      1  0.4910890000000  0.5454140000000  0.4279760000000 1.0
C      1  0.4751510000000  0.4236970000000  0.5007200000000 1.0
C      1  0.4639110000000  0.6085650000000  0.5352160000000 1.0
C      1  0.5089360000000  0.4036620000000  0.4313790000000 1.0
C      1  0.5094690000000  0.4968410000000  0.5833290000000 1.0
C      1  0.4133420000000  0.5319110000000  0.5428070000000 1.0
C      1  0.5079350000000  0.4739230000000  0.4447560000000 1.0
C      1  0.4557070000000  0.4645500000000  0.4089540000000 1.0
C      1  0.5414720000000  0.5948200000000  0.5287970000000 1.0
C      1  0.4685730000000  0.5556240000000  0.4435570000000 1.0
C      1  0.5883110000000  0.4749550000000  0.4974440000000 1.0
C      1  0.4110510000000  0.5796670000000  0.4902590000000 1.0
C      1  0.5415170000000  0.5190250000000  0.6040940000000 1.0
C      1  0.5594890000000  0.4915760000000  0.5291390000000 1.0
C      1  0.4941330000000  0.5398360000000  0.5093660000000 1.0
C      1  0.5455680000000  0.5391080000000  0.4164190000000 1.0
C      1  0.4521560000000  0.5636570000000  0.5260760000000 1.0
C      1  0.4949460000000  0.4149620000000  0.4789770000000 1.0
C      1  0.4948270000000  0.5240850000000  0.4599910000000 1.0
C      1  0.5567670000000  0.5036760000000  0.5578590000000 1.0
C      1  0.5292950000000  0.5575810000000  0.5694700000000 1.0
C      1  0.5326780000000  0.5335450000000  0.5315900000000 1.0
C      1  0.5592540000000  0.5730830000000  0.5299180000000 1.0
C      1  0.4795780000000  0.4757110000000  0.3975090000000 1.0
C      1  0.4106750000000  0.5531620000000  0.4978520000000 1.0
C      1  0.4698120000000  0.4399780000000  0.4088040000000 1.0
C      1  0.4890330000000  0.4134680000000  0.4488760000000 1.0
C      1  0.5583010000000  0.4463040000000  0.5652170000000 1.0
C      1  0.5844570000000  0.5217510000000  0.4789860000000 1.0
C      1  0.5307990000000  0.5863740000000  0.4695170000000 1.0
C      1  0.5416820000000  0.4906620000000  0.4150330000000 1.0
C      1  0.4814770000000  0.4877060000000  0.5829090000000 1.0
C      1  0.5014360000000  0.5647410000000  0.5600120000000 1.0
C      1  0.4666020000000  0.4545150000000  0.4505490000000 1.0
C      1  0.4467210000000  0.4648190000000  0.5573590000000 1.0
C      1  0.4773210000000  0.5497740000000  0.5346680000000 1.0
C      1  0.4295240000000  0.5345540000000  0.5668880000000 1.0
C      1  0.5020380000000  0.5881160000000  0.4760430000000 1.0
C      1  0.5257000000000  0.5049440000000  0.4951350000000 1.0
C      1  0.5250720000000  0.5167850000000  0.4666300000000 1.0
C      1  0.4237230000000  0.4640170000000  0.5100970000000 1.0
C      1  0.4825610000000  0.4127230000000  0.5277810000000 1.0
C      1  0.5687090000000  0.4815130000000  0.4529150000000 1.0
C      1  0.4418600000000  0.5387070000000  0.4493270000000 1.0
C      1  0.5487030000000  0.5154790000000  0.5130350000000 1.0
C      1  0.5307290000000  0.4224910000000  0.5143500000000 1.0
C      1  0.5006130000000  0.5117620000000  0.5104620000000 1.0
C      1  0.5660000000000  0.5615520000000  0.5033720000000 1.0
C      1  0.4362470000000  0.5081500000000  0.5777430000000 1.0
END
