TITL C-950525-1983-470 4.22068762438398e-07 125000 -138.350480439534 0 0 24 (C1) n - 1
REM
REM in /home/bkarasulu/work/CARBON/AIRSS/Generating-Clusters/EDIP-Nigel-Params/with-SteepDescent/Only-C1/SD-CG/HFTN-CG
REM
REM
REM
REM
REM
REM ./C.cell (11c1c37f851c82e70ff6c80c92926a4b)
REM
REM compiler GCC version 9.2.1 20190827 (Red Hat 9.2.1-1)
REM options -cpp -mtune=generic -march=x86-64 -g -O0 -fpre-include=/usr/include/finclude/math-vector-fortran.h
REM seed -1191269736 -1565413489 1960921506 -910218033 819484326 -633686880 -1680810535 173120882 149726792 -1878787084 -1253281058 -1059713246 -710185608 -636854360 1898993424 1666680380 -1613722286 469514949 -2044645182 -2010606660 -1216393752 -1438409356 -1760230850 -709835650 -958396024 1535677067 -213909596 -196403078 1055991334 1925747071 -1210251912 1398365368 1318501251
REM
CELL 1.54180   50.00000   50.00000   50.00000   90.00000   90.00000   90.00000
LATT -1
SFAC C  
C      1  0.5039660000000  0.5126380000000  0.4868570000000 1.0
C      1  0.5049180000000  0.5490960000000  0.5447950000000 1.0
C      1  0.5803940000000  0.4777550000000  0.4922490000000 1.0
C      1  0.4588270000000  0.4969880000000  0.4841620000000 1.0
C      1  0.5417810000000  0.4561350000000  0.4645590000000 1.0
C      1  0.4290250000000  0.4996320000000  0.5200690000000 1.0
C      1  0.4966720000000  0.4710720000000  0.4598510000000 1.0
C      1  0.4545240000000  0.4760760000000  0.5446520000000 1.0
C      1  0.4415440000000  0.4804930000000  0.5028890000000 1.0
C      1  0.5632900000000  0.4602130000000  0.4798620000000 1.0
C      1  0.4594960000000  0.5248140000000  0.4959460000000 1.0
C      1  0.4556100000000  0.4629750000000  0.5203230000000 1.0
C      1  0.4622670000000  0.5259700000000  0.5432710000000 1.0
C      1  0.5235420000000  0.4729530000000  0.4523040000000 1.0
C      1  0.5323480000000  0.4993950000000  0.4521890000000 1.0
C      1  0.4879680000000  0.5322310000000  0.5025630000000 1.0
C      1  0.4868360000000  0.4912740000000  0.4767190000000 1.0
C      1  0.5512020000000  0.5262630000000  0.4857370000000 1.0
C      1  0.4583770000000  0.5008590000000  0.5554620000000 1.0
C      1  0.5284390000000  0.5182910000000  0.4722950000000 1.0
C      1  0.4430040000000  0.5246630000000  0.5206630000000 1.0
C      1  0.4891470000000  0.5317840000000  0.5321680000000 1.0
C      1  0.5738880000000  0.5150230000000  0.4965200000000 1.0
C      1  0.5729350000000  0.4934090000000  0.5138960000000 1.0
END
