TITL C-950533-5798-610 -1.849004880638e-06 125000 -1181.54987205556 0 0 187 (C1) n - 1
REM
REM in /home/bkarasulu/work/CARBON/AIRSS/Generating-Clusters/EDIP-Nigel-Params/with-SteepDescent/Only-C1/SD-CG/HFTN-CG
REM
REM
REM
REM
REM
REM ./C.cell (11c1c37f851c82e70ff6c80c92926a4b)
REM
REM compiler GCC version 9.2.1 20190827 (Red Hat 9.2.1-1)
REM options -cpp -mtune=generic -march=x86-64 -g -O0 -fpre-include=/usr/include/finclude/math-vector-fortran.h
REM seed 545782590 -1323009381 228044448 1942750448 -805816483 -102379602 784968300 -2143553132 -1496468934 853172734 -1990224842 162567263 420300798 -574783114 -557465722 -1785276570 -1856823497 -1497084247 2113444097 -1867167546 1974279096 -1005403499 -1801867286 -992762126 818009294 -130067328 1650212713 -1949134448 -1074186372 740722665 -105117678 114368326 -1222431936
REM
CELL 1.54180   50.00000   50.00000   50.00000   90.00000   90.00000   90.00000
LATT -1
SFAC C  
C      1  0.4641140000000  0.3790770000000  0.5202210000000 1.0
C      1  0.4116910000000  0.4618860000000  0.4259720000000 1.0
C      1  0.5051050000000  0.5505420000000  0.4803790000000 1.0
C      1  0.5198690000000  0.4423890000000  0.5092930000000 1.0
C      1  0.5243170000000  0.5256200000000  0.5646260000000 1.0
C      1  0.5206380000000  0.5255820000000  0.4411630000000 1.0
C      1  0.4648820000000  0.6068410000000  0.4834070000000 1.0
C      1  0.4454410000000  0.5887550000000  0.4960640000000 1.0
C      1  0.5243100000000  0.5871260000000  0.4398590000000 1.0
C      1  0.4703040000000  0.4100270000000  0.4817990000000 1.0
C      1  0.5530730000000  0.5805380000000  0.4417580000000 1.0
C      1  0.4911920000000  0.3959750000000  0.4648530000000 1.0
C      1  0.4599670000000  0.6116130000000  0.5521860000000 1.0
C      1  0.5764990000000  0.4471270000000  0.5104200000000 1.0
C      1  0.6112960000000  0.5635660000000  0.5177600000000 1.0
C      1  0.3987300000000  0.5189180000000  0.4839430000000 1.0
C      1  0.4303970000000  0.4350620000000  0.4900440000000 1.0
C      1  0.4974050000000  0.4508300000000  0.4484980000000 1.0
C      1  0.5753790000000  0.4099500000000  0.4762440000000 1.0
C      1  0.4731860000000  0.5958020000000  0.5729330000000 1.0
C      1  0.5404760000000  0.5713750000000  0.5144070000000 1.0
C      1  0.5874490000000  0.5675760000000  0.5039100000000 1.0
C      1  0.5237630000000  0.4666500000000  0.6067200000000 1.0
C      1  0.5649480000000  0.5307280000000  0.5322910000000 1.0
C      1  0.5648570000000  0.4745050000000  0.5241350000000 1.0
C      1  0.4469220000000  0.4269130000000  0.5629350000000 1.0
C      1  0.5249400000000  0.4498920000000  0.4027600000000 1.0
C      1  0.6024310000000  0.5194680000000  0.4796390000000 1.0
C      1  0.4880490000000  0.5869330000000  0.5077780000000 1.0
C      1  0.4716420000000  0.5249960000000  0.3895740000000 1.0
C      1  0.5074270000000  0.6001050000000  0.4598350000000 1.0
C      1  0.3936750000000  0.5280230000000  0.5113300000000 1.0
C      1  0.4591120000000  0.5107970000000  0.5481020000000 1.0
C      1  0.5413000000000  0.5845880000000  0.5423480000000 1.0
C      1  0.4571520000000  0.5481860000000  0.4715890000000 1.0
C      1  0.5513110000000  0.4651120000000  0.5955010000000 1.0
C      1  0.4529970000000  0.3957510000000  0.5009190000000 1.0
C      1  0.4485610000000  0.5749390000000  0.5240530000000 1.0
C      1  0.5166120000000  0.5052230000000  0.4040830000000 1.0
C      1  0.5493420000000  0.5128960000000  0.5536850000000 1.0
C      1  0.5201280000000  0.4080320000000  0.4720150000000 1.0
C      1  0.4464790000000  0.4802020000000  0.4821100000000 1.0
C      1  0.5289850000000  0.5504280000000  0.4633670000000 1.0
C      1  0.5009090000000  0.5392250000000  0.6065540000000 1.0
C      1  0.5126960000000  0.4379880000000  0.6009460000000 1.0
C      1  0.5114080000000  0.5393770000000  0.5056170000000 1.0
C      1  0.4838830000000  0.4013310000000  0.4356620000000 1.0
C      1  0.5558720000000  0.4064100000000  0.5212320000000 1.0
C      1  0.4693800000000  0.4623140000000  0.4803000000000 1.0
C      1  0.4421010000000  0.4642310000000  0.5267100000000 1.0
C      1  0.5736010000000  0.5396330000000  0.5817160000000 1.0
C      1  0.5024130000000  0.4586090000000  0.5588990000000 1.0
C      1  0.4285430000000  0.4632020000000  0.4996890000000 1.0
C      1  0.4779540000000  0.6026370000000  0.4563550000000 1.0
C      1  0.3999980000000  0.5736810000000  0.4963380000000 1.0
C      1  0.5131720000000  0.5657490000000  0.4252090000000 1.0
C      1  0.5339770000000  0.3950030000000  0.5363560000000 1.0
C      1  0.5023600000000  0.5185510000000  0.5463310000000 1.0
C      1  0.4483460000000  0.4542950000000  0.5726380000000 1.0
C      1  0.4566130000000  0.4000740000000  0.4278170000000 1.0
C      1  0.4389880000000  0.5715830000000  0.4363470000000 1.0
C      1  0.4515290000000  0.4859650000000  0.3948620000000 1.0
C      1  0.5331870000000  0.4795410000000  0.4101200000000 1.0
C      1  0.4291260000000  0.5223930000000  0.4239020000000 1.0
C      1  0.4558270000000  0.4354450000000  0.4738810000000 1.0
C      1  0.4462730000000  0.5119990000000  0.3843960000000 1.0
C      1  0.5544400000000  0.5372710000000  0.4829250000000 1.0
C      1  0.5920110000000  0.4752950000000  0.5426120000000 1.0
C      1  0.4819840000000  0.5692910000000  0.4792710000000 1.0
C      1  0.5735080000000  0.4748230000000  0.4389730000000 1.0
C      1  0.4964560000000  0.4274050000000  0.4280660000000 1.0
C      1  0.5192830000000  0.6224380000000  0.5293500000000 1.0
C      1  0.4062480000000  0.5165220000000  0.5630620000000 1.0
C      1  0.6050280000000  0.5484910000000  0.5400790000000 1.0
C      1  0.5319300000000  0.5281200000000  0.4014050000000 1.0
C      1  0.5739720000000  0.4276180000000  0.5320920000000 1.0
C      1  0.3989240000000  0.5093050000000  0.5334950000000 1.0
C      1  0.5801740000000  0.5566910000000  0.5570330000000 1.0
C      1  0.4911910000000  0.4779040000000  0.5204320000000 1.0
C      1  0.4626850000000  0.4884310000000  0.5271440000000 1.0
C      1  0.5095560000000  0.5665010000000  0.6080130000000 1.0
C      1  0.6115460000000  0.5027510000000  0.4572330000000 1.0
C      1  0.4216920000000  0.5812720000000  0.4805290000000 1.0
C      1  0.4314510000000  0.4670340000000  0.4040710000000 1.0
C      1  0.4199850000000  0.4351680000000  0.4378310000000 1.0
C      1  0.4804180000000  0.4293650000000  0.5301280000000 1.0
C      1  0.4993110000000  0.4513780000000  0.5305080000000 1.0
C      1  0.4043970000000  0.4652330000000  0.5487930000000 1.0
C      1  0.5703290000000  0.5252440000000  0.4413420000000 1.0
C      1  0.5305380000000  0.4302110000000  0.5771170000000 1.0
C      1  0.5209900000000  0.5203390000000  0.5951900000000 1.0
C      1  0.4364780000000  0.5296820000000  0.5425360000000 1.0
C      1  0.6067270000000  0.4560620000000  0.4718300000000 1.0
C      1  0.5208820000000  0.4626290000000  0.4871550000000 1.0
C      1  0.4875790000000  0.3834640000000  0.5341130000000 1.0
C      1  0.4785620000000  0.4882490000000  0.5915500000000 1.0
C      1  0.4030020000000  0.5178200000000  0.4368490000000 1.0
C      1  0.4849470000000  0.5676180000000  0.4188850000000 1.0
C      1  0.4828420000000  0.4366740000000  0.5958300000000 1.0
C      1  0.4392070000000  0.5504630000000  0.4153570000000 1.0
C      1  0.4961900000000  0.4667250000000  0.4083780000000 1.0
C      1  0.4900730000000  0.5734590000000  0.5624840000000 1.0
C      1  0.4078370000000  0.4872250000000  0.4485300000000 1.0
C      1  0.5721630000000  0.5104200000000  0.5740290000000 1.0
C      1  0.5665260000000  0.4289580000000  0.4579190000000 1.0
C      1  0.6223280000000  0.4780620000000  0.4645840000000 1.0
C      1  0.5163150000000  0.3684940000000  0.4935080000000 1.0
C      1  0.5687350000000  0.4960240000000  0.5047920000000 1.0
C      1  0.5607860000000  0.3942890000000  0.4942270000000 1.0
C      1  0.5375570000000  0.3835450000000  0.4785800000000 1.0
C      1  0.3934370000000  0.4813760000000  0.5281580000000 1.0
C      1  0.4694160000000  0.5423110000000  0.4152330000000 1.0
C      1  0.4849640000000  0.4753630000000  0.4364960000000 1.0
C      1  0.4894960000000  0.4089770000000  0.5509080000000 1.0
C      1  0.5076950000000  0.4917040000000  0.5982900000000 1.0
C      1  0.5890720000000  0.5009760000000  0.4376590000000 1.0
C      1  0.5647650000000  0.5850770000000  0.4683110000000 1.0
C      1  0.4462120000000  0.5137270000000  0.4457120000000 1.0
C      1  0.5303570000000  0.4672900000000  0.5635690000000 1.0
C      1  0.5320630000000  0.5701870000000  0.5905650000000 1.0
C      1  0.5617590000000  0.5517430000000  0.5091930000000 1.0
C      1  0.5368160000000  0.4291710000000  0.4523540000000 1.0
C      1  0.4388210000000  0.4870150000000  0.4541940000000 1.0
C      1  0.6044950000000  0.4526180000000  0.5014260000000 1.0
C      1  0.4841190000000  0.5491600000000  0.5835530000000 1.0
C      1  0.4708750000000  0.5282500000000  0.4450380000000 1.0
C      1  0.5263000000000  0.4259540000000  0.4224740000000 1.0
C      1  0.5445130000000  0.5096250000000  0.4470070000000 1.0
C      1  0.5199950000000  0.6134290000000  0.4817980000000 1.0
C      1  0.5194390000000  0.4105200000000  0.5570310000000 1.0
C      1  0.4271460000000  0.4983890000000  0.5767780000000 1.0
C      1  0.4716430000000  0.4141780000000  0.5759730000000 1.0
C      1  0.3940610000000  0.4909760000000  0.4769990000000 1.0
C      1  0.4500280000000  0.4395290000000  0.4441680000000 1.0
C      1  0.5400830000000  0.4858850000000  0.5416740000000 1.0
C      1  0.4574400000000  0.5375980000000  0.5869200000000 1.0
C      1  0.5353560000000  0.5536680000000  0.4110320000000 1.0
C      1  0.4800770000000  0.5671380000000  0.5320770000000 1.0
C      1  0.4123090000000  0.5450610000000  0.5683960000000 1.0
C      1  0.5807430000000  0.4541070000000  0.4582520000000 1.0
C      1  0.4045150000000  0.5364360000000  0.4606070000000 1.0
C      1  0.4931120000000  0.5045590000000  0.3861390000000 1.0
C      1  0.4422900000000  0.5858030000000  0.5752900000000 1.0
C      1  0.5124770000000  0.6051210000000  0.5082480000000 1.0
C      1  0.4377970000000  0.5937560000000  0.5451580000000 1.0
C      1  0.5378520000000  0.5797770000000  0.4835920000000 1.0
C      1  0.5947060000000  0.5020630000000  0.5567250000000 1.0
C      1  0.5256850000000  0.4567920000000  0.4578780000000 1.0
C      1  0.4789370000000  0.4787280000000  0.3873650000000 1.0
C      1  0.4509840000000  0.4343890000000  0.5329510000000 1.0
C      1  0.5199290000000  0.5117670000000  0.5012260000000 1.0
C      1  0.4674610000000  0.5804930000000  0.4390650000000 1.0
C      1  0.5594290000000  0.4403020000000  0.5809720000000 1.0
C      1  0.5806770000000  0.5377430000000  0.4681750000000 1.0
C      1  0.5420830000000  0.6122510000000  0.5402950000000 1.0
C      1  0.4944920000000  0.5089000000000  0.4507190000000 1.0
C      1  0.4944570000000  0.3681530000000  0.4746760000000 1.0
C      1  0.5477050000000  0.5102080000000  0.4909900000000 1.0
C      1  0.4253380000000  0.4714070000000  0.5668920000000 1.0
C      1  0.4324180000000  0.4130350000000  0.4219420000000 1.0
C      1  0.4373460000000  0.5559390000000  0.5772260000000 1.0
C      1  0.3997590000000  0.4723180000000  0.5000490000000 1.0
C      1  0.4056880000000  0.5540270000000  0.5153050000000 1.0
C      1  0.5438990000000  0.4804690000000  0.4386750000000 1.0
C      1  0.4349710000000  0.5478420000000  0.5188140000000 1.0
C      1  0.4289670000000  0.5595020000000  0.4616300000000 1.0
C      1  0.5210360000000  0.5762960000000  0.5636640000000 1.0
C      1  0.5940770000000  0.5211910000000  0.5332420000000 1.0
C      1  0.5748890000000  0.4439490000000  0.5567050000000 1.0
C      1  0.5672990000000  0.5830110000000  0.5530480000000 1.0
C      1  0.4939290000000  0.4756050000000  0.4907540000000 1.0
C      1  0.4776660000000  0.4610690000000  0.5790260000000 1.0
C      1  0.4947890000000  0.5047390000000  0.4828970000000 1.0
C      1  0.4718610000000  0.5176330000000  0.5063470000000 1.0
C      1  0.5970440000000  0.5041680000000  0.5060420000000 1.0
C      1  0.4355610000000  0.4166230000000  0.5126240000000 1.0
C      1  0.5879730000000  0.5674450000000  0.4743590000000 1.0
C      1  0.4543030000000  0.4687760000000  0.4352590000000 1.0
C      1  0.5119980000000  0.3893290000000  0.5160460000000 1.0
C      1  0.5605590000000  0.5572980000000  0.4250920000000 1.0
C      1  0.5101930000000  0.4165160000000  0.4995730000000 1.0
C      1  0.5140230000000  0.4975160000000  0.5277620000000 1.0
C      1  0.6109690000000  0.4773810000000  0.5168910000000 1.0
C      1  0.4563890000000  0.5082170000000  0.5783450000000 1.0
C      1  0.4496610000000  0.5335270000000  0.4962350000000 1.0
C      1  0.5487190000000  0.5461850000000  0.5951470000000 1.0
C      1  0.4893050000000  0.5370030000000  0.5248840000000 1.0
END
