TITL C-951340-9809-595 1.2793586095209e-06 125000 -787.057889892238 0 0 127 (C1) n - 1
REM
REM in /home/bkarasulu/work/CARBON/AIRSS/Generating-Clusters/EDIP-Nigel-Params/with-SteepDescent/Only-C1/SD-CG/HFTN-CG
REM
REM
REM
REM
REM
REM ./C.cell (11c1c37f851c82e70ff6c80c92926a4b)
REM
REM compiler GCC version 9.2.1 20190827 (Red Hat 9.2.1-1)
REM options -cpp -mtune=generic -march=x86-64 -g -O0 -fpre-include=/usr/include/finclude/math-vector-fortran.h
REM seed 1003164969 -630770421 706025791 -258213775 -282833248 2025396195 -479151994 1217310180 919088494 -1591409197 203673514 605962572 -1087821758 -848835099 -784320304 -418440135 1925652687 -400511165 1623783326 -63531389 -35987209 706974256 -1250021919 -1100385209 -361335443 -665191611 -337163351 -414101238 42413831 933238762 930377055 -1099796997 -1425585518
REM
CELL 1.54180   50.00000   50.00000   50.00000   90.00000   90.00000   90.00000
LATT -1
SFAC C  
C      1  0.4881100000000  0.5913890000000  0.5070620000000 1.0
C      1  0.5184970000000  0.5692670000000  0.4692320000000 1.0
C      1  0.5130710000000  0.5937690000000  0.4902600000000 1.0
C      1  0.4473650000000  0.5295580000000  0.4320000000000 1.0
C      1  0.5132130000000  0.5038430000000  0.4138820000000 1.0
C      1  0.4710270000000  0.4586740000000  0.4573900000000 1.0
C      1  0.5911570000000  0.4714140000000  0.4955590000000 1.0
C      1  0.4610120000000  0.4319010000000  0.4459740000000 1.0
C      1  0.5201560000000  0.3995350000000  0.5101110000000 1.0
C      1  0.4791840000000  0.5562800000000  0.4092960000000 1.0
C      1  0.4102200000000  0.4913840000000  0.5072680000000 1.0
C      1  0.4554030000000  0.5117060000000  0.4946560000000 1.0
C      1  0.5469340000000  0.5328800000000  0.4868900000000 1.0
C      1  0.5315000000000  0.4922800000000  0.5407630000000 1.0
C      1  0.5241770000000  0.4202560000000  0.4399580000000 1.0
C      1  0.4985460000000  0.5561150000000  0.4482030000000 1.0
C      1  0.4706720000000  0.5789460000000  0.5537740000000 1.0
C      1  0.5601390000000  0.5435000000000  0.4466500000000 1.0
C      1  0.4423030000000  0.4943270000000  0.5699040000000 1.0
C      1  0.4524050000000  0.4129360000000  0.4645370000000 1.0
C      1  0.5076920000000  0.4781130000000  0.5530450000000 1.0
C      1  0.5760270000000  0.5089520000000  0.5550820000000 1.0
C      1  0.5791540000000  0.5149020000000  0.5261140000000 1.0
C      1  0.5596130000000  0.5755550000000  0.4856600000000 1.0
C      1  0.5609050000000  0.5601780000000  0.5404850000000 1.0
C      1  0.5908630000000  0.5336430000000  0.4829480000000 1.0
C      1  0.4597020000000  0.4603160000000  0.4870330000000 1.0
C      1  0.5814190000000  0.5582110000000  0.4955540000000 1.0
C      1  0.5324650000000  0.4634610000000  0.5056360000000 1.0
C      1  0.5858500000000  0.5586240000000  0.5240250000000 1.0
C      1  0.4509250000000  0.4425240000000  0.5351300000000 1.0
C      1  0.5493250000000  0.5348060000000  0.4206430000000 1.0
C      1  0.4928040000000  0.5080800000000  0.5913450000000 1.0
C      1  0.5287270000000  0.4201000000000  0.4885750000000 1.0
C      1  0.4329190000000  0.5060810000000  0.4726560000000 1.0
C      1  0.5394870000000  0.5889200000000  0.5046470000000 1.0
C      1  0.5114020000000  0.4828420000000  0.4778390000000 1.0
C      1  0.4684680000000  0.5918840000000  0.4640570000000 1.0
C      1  0.4675050000000  0.4834980000000  0.4399200000000 1.0
C      1  0.4775420000000  0.4206550000000  0.4242760000000 1.0
C      1  0.5015250000000  0.4566370000000  0.4636360000000 1.0
C      1  0.5509980000000  0.4412620000000  0.4987520000000 1.0
C      1  0.5390230000000  0.4889650000000  0.4170270000000 1.0
C      1  0.5423810000000  0.4690980000000  0.4381630000000 1.0
C      1  0.4974290000000  0.4902200000000  0.5050340000000 1.0
C      1  0.5032310000000  0.4345640000000  0.4833870000000 1.0
C      1  0.5587430000000  0.5086160000000  0.4175230000000 1.0
C      1  0.5826150000000  0.4968090000000  0.4523450000000 1.0
C      1  0.5205730000000  0.5334380000000  0.4173430000000 1.0
C      1  0.5713860000000  0.4576600000000  0.4805200000000 1.0
C      1  0.4698290000000  0.3998440000000  0.5112030000000 1.0
C      1  0.4767390000000  0.5273250000000  0.4803430000000 1.0
C      1  0.4946920000000  0.3882000000000  0.5063480000000 1.0
C      1  0.5206750000000  0.4678070000000  0.5803900000000 1.0
C      1  0.5753690000000  0.4595200000000  0.5423240000000 1.0
C      1  0.4213120000000  0.4789840000000  0.5319890000000 1.0
C      1  0.4855470000000  0.4443950000000  0.5050610000000 1.0
C      1  0.5504980000000  0.4802310000000  0.5219440000000 1.0
C      1  0.5042440000000  0.4643280000000  0.5194220000000 1.0
C      1  0.5663070000000  0.4729580000000  0.4553620000000 1.0
C      1  0.4418830000000  0.5690310000000  0.4972840000000 1.0
C      1  0.4062160000000  0.5211010000000  0.5045020000000 1.0
C      1  0.5209960000000  0.4112930000000  0.5372130000000 1.0
C      1  0.4950700000000  0.5370030000000  0.4993950000000 1.0
C      1  0.4898300000000  0.5055310000000  0.5605630000000 1.0
C      1  0.4781300000000  0.4585170000000  0.5851300000000 1.0
C      1  0.4958050000000  0.4392850000000  0.5710740000000 1.0
C      1  0.5496610000000  0.5288490000000  0.5190170000000 1.0
C      1  0.4801350000000  0.5580850000000  0.5731190000000 1.0
C      1  0.4102600000000  0.4711490000000  0.4854730000000 1.0
C      1  0.5043460000000  0.5277140000000  0.5436550000000 1.0
C      1  0.4099510000000  0.5237520000000  0.5522140000000 1.0
C      1  0.5419810000000  0.5096390000000  0.4561620000000 1.0
C      1  0.4898630000000  0.5260410000000  0.4534560000000 1.0
C      1  0.5830010000000  0.5255190000000  0.4571140000000 1.0
C      1  0.4598470000000  0.5153480000000  0.5581050000000 1.0
C      1  0.4974410000000  0.4786280000000  0.5984950000000 1.0
C      1  0.4177610000000  0.5360120000000  0.5275060000000 1.0
C      1  0.5211410000000  0.5506560000000  0.4944520000000 1.0
C      1  0.4444760000000  0.5751380000000  0.5451040000000 1.0
C      1  0.5807360000000  0.4987480000000  0.4967610000000 1.0
C      1  0.5459980000000  0.4213030000000  0.5442220000000 1.0
C      1  0.4530410000000  0.4743130000000  0.5322610000000 1.0
C      1  0.5452670000000  0.4858130000000  0.5824030000000 1.0
C      1  0.5183510000000  0.4501250000000  0.4387930000000 1.0
C      1  0.4873030000000  0.5923650000000  0.5354140000000 1.0
C      1  0.4475660000000  0.5530030000000  0.4495820000000 1.0
C      1  0.4665840000000  0.4853130000000  0.5043000000000 1.0
C      1  0.4633140000000  0.5887700000000  0.4913540000000 1.0
C      1  0.4558370000000  0.5268280000000  0.5267220000000 1.0
C      1  0.4058230000000  0.4762690000000  0.4582010000000 1.0
C      1  0.4820960000000  0.4391570000000  0.4039710000000 1.0
C      1  0.4706830000000  0.5713380000000  0.4443140000000 1.0
C      1  0.4607440000000  0.5367150000000  0.5802430000000 1.0
C      1  0.5126780000000  0.5055250000000  0.4580050000000 1.0
C      1  0.5341680000000  0.5686530000000  0.5262870000000 1.0
C      1  0.5476540000000  0.5681070000000  0.4599740000000 1.0
C      1  0.5091960000000  0.5535590000000  0.5818650000000 1.0
C      1  0.5008070000000  0.4069950000000  0.4324900000000 1.0
C      1  0.4959560000000  0.4238160000000  0.5466180000000 1.0
C      1  0.4553210000000  0.4686670000000  0.5704530000000 1.0
C      1  0.4888180000000  0.4847460000000  0.4176220000000 1.0
C      1  0.5613080000000  0.4378990000000  0.5279920000000 1.0
C      1  0.4301930000000  0.4503560000000  0.4923150000000 1.0
C      1  0.4259920000000  0.4426780000000  0.5201290000000 1.0
C      1  0.5242330000000  0.5466620000000  0.5570790000000 1.0
C      1  0.5404130000000  0.5154260000000  0.5842680000000 1.0
C      1  0.5221360000000  0.5134720000000  0.5250770000000 1.0
C      1  0.4166330000000  0.4965900000000  0.5564150000000 1.0
C      1  0.4146780000000  0.5297640000000  0.4771890000000 1.0
C      1  0.4307860000000  0.5546930000000  0.4739710000000 1.0
C      1  0.5006000000000  0.4574500000000  0.4146070000000 1.0
C      1  0.4313770000000  0.5630020000000  0.5237640000000 1.0
C      1  0.4744210000000  0.4257380000000  0.5257150000000 1.0
C      1  0.4738460000000  0.5306210000000  0.4216090000000 1.0
C      1  0.5155710000000  0.5267770000000  0.5953380000000 1.0
C      1  0.5365500000000  0.4098270000000  0.4628470000000 1.0
C      1  0.4838820000000  0.5390690000000  0.5253790000000 1.0
C      1  0.4437560000000  0.5027780000000  0.4438800000000 1.0
C      1  0.5584770000000  0.5309980000000  0.5664470000000 1.0
C      1  0.5682750000000  0.4813120000000  0.5624320000000 1.0
C      1  0.4690780000000  0.5212190000000  0.6028330000000 1.0
C      1  0.6006580000000  0.5349490000000  0.5280990000000 1.0
C      1  0.4185230000000  0.4903200000000  0.4386030000000 1.0
C      1  0.5508850000000  0.4983660000000  0.4875940000000 1.0
C      1  0.4538080000000  0.4017240000000  0.4887660000000 1.0
C      1  0.5071830000000  0.5577240000000  0.4106140000000 1.0
END
