TITL C-950528-5794-570 -2.45071682989522e-06 125000 -841.919030987622 0 0 135 (C1) n - 1
REM
REM in /home/bkarasulu/work/CARBON/AIRSS/Generating-Clusters/EDIP-Nigel-Params/with-SteepDescent/Only-C1/SD-CG/HFTN-CG
REM
REM
REM
REM
REM
REM ./C.cell (11c1c37f851c82e70ff6c80c92926a4b)
REM
REM compiler GCC version 9.2.1 20190827 (Red Hat 9.2.1-1)
REM options -cpp -mtune=generic -march=x86-64 -g -O0 -fpre-include=/usr/include/finclude/math-vector-fortran.h
REM seed 2127810185 -1456394582 1932747914 -997911733 -464001565 -1332656757 -1078814794 -477148213 737556930 -256555303 -444656505 -1662290911 817654879 -2047630465 -1012883607 -885791608 865920843 2139564808 597829624 1492763117 947878501 278163030 158529467 -1492646438 1597251812 468540980 352462151 -412067217 -493243792 1960715382 307119211 271859350 -2068990370
REM
CELL 1.54180   50.00000   50.00000   50.00000   90.00000   90.00000   90.00000
LATT -1
SFAC C  
C      1  0.4242370000000  0.4710540000000  0.4570720000000 1.0
C      1  0.5072710000000  0.4046830000000  0.4555230000000 1.0
C      1  0.5164900000000  0.4891430000000  0.5554240000000 1.0
C      1  0.5073800000000  0.4757170000000  0.4015980000000 1.0
C      1  0.4947980000000  0.4434180000000  0.4378840000000 1.0
C      1  0.5085870000000  0.5340950000000  0.4283260000000 1.0
C      1  0.4822590000000  0.5193900000000  0.4535710000000 1.0
C      1  0.5221520000000  0.5169390000000  0.4083720000000 1.0
C      1  0.4617770000000  0.5257710000000  0.5819080000000 1.0
C      1  0.6093180000000  0.4753370000000  0.5057120000000 1.0
C      1  0.4270590000000  0.5745350000000  0.4940100000000 1.0
C      1  0.5616420000000  0.5671620000000  0.4721770000000 1.0
C      1  0.5300340000000  0.4914960000000  0.5060010000000 1.0
C      1  0.5331050000000  0.4494260000000  0.5712690000000 1.0
C      1  0.5910950000000  0.4543240000000  0.5069390000000 1.0
C      1  0.5036400000000  0.5023120000000  0.3926530000000 1.0
C      1  0.5278060000000  0.4617840000000  0.5206470000000 1.0
C      1  0.5739300000000  0.4546220000000  0.5305350000000 1.0
C      1  0.4377300000000  0.4588320000000  0.4338540000000 1.0
C      1  0.5632100000000  0.4847350000000  0.5444120000000 1.0
C      1  0.4710610000000  0.4904550000000  0.4474560000000 1.0
C      1  0.5159120000000  0.5226830000000  0.4577320000000 1.0
C      1  0.4580060000000  0.4621190000000  0.5775930000000 1.0
C      1  0.4049080000000  0.5305100000000  0.5298830000000 1.0
C      1  0.4586340000000  0.5822240000000  0.5290310000000 1.0
C      1  0.5057580000000  0.4271750000000  0.4956080000000 1.0
C      1  0.5762500000000  0.5693330000000  0.5216870000000 1.0
C      1  0.4321570000000  0.4147860000000  0.4565490000000 1.0
C      1  0.5646260000000  0.5393670000000  0.5534030000000 1.0
C      1  0.5883230000000  0.5459700000000  0.5350070000000 1.0
C      1  0.5357200000000  0.4945050000000  0.4755510000000 1.0
C      1  0.4191300000000  0.5225730000000  0.4804000000000 1.0
C      1  0.4898790000000  0.5164930000000  0.5486990000000 1.0
C      1  0.5691750000000  0.4306750000000  0.4636300000000 1.0
C      1  0.4475080000000  0.4273330000000  0.5495920000000 1.0
C      1  0.4556270000000  0.5710740000000  0.4352810000000 1.0
C      1  0.5228410000000  0.4254980000000  0.5572170000000 1.0
C      1  0.4488950000000  0.5241610000000  0.5241860000000 1.0
C      1  0.4984050000000  0.5742360000000  0.5580780000000 1.0
C      1  0.4728980000000  0.5624070000000  0.5463910000000 1.0
C      1  0.4120300000000  0.4668110000000  0.5028300000000 1.0
C      1  0.4506320000000  0.5863430000000  0.4838490000000 1.0
C      1  0.5287470000000  0.5864870000000  0.5281870000000 1.0
C      1  0.4009660000000  0.5297060000000  0.5019840000000 1.0
C      1  0.5603960000000  0.4991620000000  0.5719800000000 1.0
C      1  0.4159590000000  0.4543450000000  0.4780190000000 1.0
C      1  0.5492550000000  0.4414630000000  0.5157930000000 1.0
C      1  0.5016720000000  0.4158910000000  0.4298890000000 1.0
C      1  0.4217060000000  0.5396330000000  0.4538950000000 1.0
C      1  0.5619080000000  0.4791980000000  0.4731520000000 1.0
C      1  0.5696050000000  0.4500970000000  0.4407670000000 1.0
C      1  0.5089460000000  0.5970530000000  0.5470030000000 1.0
C      1  0.5392390000000  0.5938450000000  0.4572610000000 1.0
C      1  0.5567330000000  0.5837520000000  0.5405730000000 1.0
C      1  0.5157410000000  0.4050620000000  0.5144750000000 1.0
C      1  0.5358760000000  0.4728920000000  0.4111290000000 1.0
C      1  0.4932210000000  0.5893020000000  0.4632890000000 1.0
C      1  0.4585830000000  0.4777850000000  0.4216510000000 1.0
C      1  0.5520550000000  0.5067830000000  0.5217450000000 1.0
C      1  0.5199760000000  0.4532580000000  0.4524590000000 1.0
C      1  0.5460350000000  0.6005640000000  0.4836310000000 1.0
C      1  0.4729120000000  0.4401110000000  0.4588560000000 1.0
C      1  0.5679790000000  0.4520580000000  0.4861620000000 1.0
C      1  0.4906940000000  0.5263230000000  0.5026690000000 1.0
C      1  0.5738490000000  0.5228350000000  0.5752390000000 1.0
C      1  0.5422960000000  0.4994720000000  0.4207010000000 1.0
C      1  0.4282440000000  0.4290460000000  0.4804620000000 1.0
C      1  0.4853600000000  0.4625350000000  0.4162610000000 1.0
C      1  0.4487370000000  0.5444270000000  0.4416830000000 1.0
C      1  0.4700090000000  0.4367550000000  0.5653840000000 1.0
C      1  0.5305810000000  0.5039910000000  0.5778440000000 1.0
C      1  0.5496090000000  0.5639190000000  0.5625600000000 1.0
C      1  0.5648770000000  0.5558860000000  0.4436210000000 1.0
C      1  0.5277160000000  0.4366090000000  0.4773800000000 1.0
C      1  0.4849480000000  0.4783040000000  0.5268440000000 1.0
C      1  0.5800810000000  0.4842440000000  0.4502130000000 1.0
C      1  0.4505240000000  0.4142130000000  0.5243680000000 1.0
C      1  0.5174620000000  0.5738110000000  0.4547610000000 1.0
C      1  0.4493130000000  0.4321650000000  0.4417860000000 1.0
C      1  0.4169870000000  0.5144460000000  0.4369860000000 1.0
C      1  0.4707410000000  0.5266130000000  0.4807090000000 1.0
C      1  0.4889130000000  0.5284950000000  0.5953740000000 1.0
C      1  0.5973030000000  0.5213500000000  0.5073990000000 1.0
C      1  0.4772920000000  0.5349430000000  0.5287350000000 1.0
C      1  0.4470790000000  0.5143130000000  0.4283650000000 1.0
C      1  0.5359220000000  0.4692670000000  0.5483560000000 1.0
C      1  0.4558250000000  0.4775340000000  0.5228460000000 1.0
C      1  0.5194990000000  0.4893780000000  0.6016240000000 1.0
C      1  0.4682810000000  0.3929900000000  0.5216250000000 1.0
C      1  0.5121960000000  0.5458540000000  0.4983300000000 1.0
C      1  0.5082790000000  0.5293770000000  0.5720360000000 1.0
C      1  0.4459000000000  0.4823220000000  0.4941730000000 1.0
C      1  0.4657450000000  0.5810870000000  0.4595070000000 1.0
C      1  0.5220520000000  0.5481000000000  0.4718280000000 1.0
C      1  0.4977380000000  0.5057320000000  0.6100480000000 1.0
C      1  0.4303330000000  0.4676860000000  0.5677560000000 1.0
C      1  0.4517670000000  0.5495270000000  0.5656420000000 1.0
C      1  0.4675060000000  0.5023070000000  0.5632330000000 1.0
C      1  0.4871380000000  0.4169400000000  0.4744570000000 1.0
C      1  0.4930550000000  0.4738670000000  0.5695370000000 1.0
C      1  0.4094450000000  0.4952390000000  0.4567160000000 1.0
C      1  0.4703030000000  0.5921230000000  0.5040610000000 1.0
C      1  0.4991600000000  0.4961190000000  0.5064370000000 1.0
C      1  0.4970300000000  0.5953820000000  0.4915400000000 1.0
C      1  0.5471040000000  0.5633510000000  0.4228740000000 1.0
C      1  0.4303580000000  0.5452780000000  0.5370010000000 1.0
C      1  0.5196460000000  0.5563460000000  0.5646880000000 1.0
C      1  0.5190570000000  0.5624760000000  0.4271010000000 1.0
C      1  0.4267980000000  0.4208760000000  0.5082350000000 1.0
C      1  0.4924200000000  0.4023720000000  0.5328420000000 1.0
C      1  0.5417340000000  0.4518350000000  0.4309490000000 1.0
C      1  0.5406050000000  0.5289310000000  0.5370320000000 1.0
C      1  0.5136020000000  0.4795770000000  0.4633670000000 1.0
C      1  0.5429900000000  0.4151320000000  0.4650930000000 1.0
C      1  0.4166670000000  0.4933950000000  0.5649460000000 1.0
C      1  0.5243460000000  0.6005250000000  0.5022790000000 1.0
C      1  0.4946580000000  0.4302160000000  0.5461130000000 1.0
C      1  0.5377890000000  0.4170590000000  0.5313440000000 1.0
C      1  0.6024590000000  0.4956480000000  0.4650370000000 1.0
C      1  0.5748220000000  0.5305730000000  0.4404460000000 1.0
C      1  0.4300330000000  0.4493590000000  0.5453420000000 1.0
C      1  0.6104180000000  0.4995990000000  0.4921310000000 1.0
C      1  0.4935920000000  0.4781400000000  0.4833730000000 1.0
C      1  0.4327380000000  0.5711790000000  0.5216500000000 1.0
C      1  0.4677290000000  0.4714090000000  0.4723420000000 1.0
C      1  0.4984570000000  0.4506390000000  0.5219400000000 1.0
C      1  0.5327380000000  0.5524480000000  0.5179870000000 1.0
C      1  0.5691520000000  0.5235500000000  0.5023640000000 1.0
C      1  0.4137440000000  0.4447060000000  0.5215440000000 1.0
C      1  0.4040720000000  0.5064430000000  0.5440050000000 1.0
C      1  0.4466610000000  0.4991290000000  0.5412980000000 1.0
C      1  0.4458590000000  0.5142830000000  0.4932510000000 1.0
C      1  0.5682470000000  0.5050460000000  0.4327560000000 1.0
C      1  0.5125840000000  0.4620990000000  0.5904920000000 1.0
C      1  0.5597310000000  0.5529020000000  0.5016440000000 1.0
END
