TITL C-950525-1983-23 -1.05432422424038e-06 125000 -391.400779412653 0 0 64 (C1) n - 1
REM
REM in /home/bkarasulu/work/CARBON/AIRSS/Generating-Clusters/EDIP-Nigel-Params/with-SteepDescent/Only-C1/SD-CG/HFTN-CG
REM
REM
REM
REM
REM
REM ./C.cell (11c1c37f851c82e70ff6c80c92926a4b)
REM
REM compiler GCC version 9.2.1 20190827 (Red Hat 9.2.1-1)
REM options -cpp -mtune=generic -march=x86-64 -g -O0 -fpre-include=/usr/include/finclude/math-vector-fortran.h
REM seed 1973173264 718825452 -1638321625 -294911751 853219612 67831456 -1550259706 -354656757 1440653814 631424960 -499367162 1793867418 -2047738450 916553858 2140283392 1556314523 -103097505 1185510795 1390676951 1141748830 2122769453 1992551972 -1704752523 2049016757 -42094058 -886183645 1998905206 -8929204 -339045189 -382298971 -400328906 162984354 1763428173
REM
CELL 1.54180   50.00000   50.00000   50.00000   90.00000   90.00000   90.00000
LATT -1
SFAC C  
C      1  0.5344680000000  0.4538020000000  0.4482570000000 1.0
C      1  0.5235920000000  0.5405000000000  0.4597100000000 1.0
C      1  0.5496000000000  0.5499970000000  0.4642740000000 1.0
C      1  0.5271990000000  0.4912390000000  0.5105560000000 1.0
C      1  0.5098450000000  0.5745180000000  0.5281420000000 1.0
C      1  0.4682280000000  0.5200500000000  0.5421740000000 1.0
C      1  0.4501150000000  0.4770560000000  0.5557310000000 1.0
C      1  0.4271750000000  0.5286330000000  0.4746310000000 1.0
C      1  0.5253380000000  0.4321280000000  0.4661640000000 1.0
C      1  0.5738080000000  0.4631430000000  0.4914050000000 1.0
C      1  0.4465850000000  0.4522580000000  0.5060690000000 1.0
C      1  0.4853320000000  0.4481150000000  0.4451010000000 1.0
C      1  0.4621710000000  0.4881280000000  0.4310050000000 1.0
C      1  0.5055770000000  0.4816460000000  0.5550810000000 1.0
C      1  0.4390140000000  0.5498520000000  0.4612090000000 1.0
C      1  0.4447860000000  0.4791380000000  0.4978330000000 1.0
C      1  0.4792790000000  0.5778190000000  0.5265790000000 1.0
C      1  0.5099510000000  0.4997850000000  0.4820870000000 1.0
C      1  0.5771350000000  0.4900540000000  0.5047060000000 1.0
C      1  0.4693690000000  0.4587100000000  0.5609730000000 1.0
C      1  0.4921990000000  0.5221030000000  0.4923540000000 1.0
C      1  0.5227360000000  0.5624950000000  0.5045200000000 1.0
C      1  0.5387510000000  0.5234670000000  0.5262330000000 1.0
C      1  0.4554240000000  0.5385920000000  0.5107280000000 1.0
C      1  0.5024110000000  0.4382110000000  0.5035280000000 1.0
C      1  0.5568010000000  0.4699660000000  0.4596510000000 1.0
C      1  0.5240800000000  0.4568990000000  0.5477560000000 1.0
C      1  0.4896250000000  0.4772060000000  0.4772930000000 1.0
C      1  0.5529120000000  0.4988900000000  0.4609790000000 1.0
C      1  0.5328720000000  0.5049270000000  0.5662040000000 1.0
C      1  0.4611510000000  0.4887140000000  0.4746770000000 1.0
C      1  0.4655130000000  0.5557660000000  0.4538890000000 1.0
C      1  0.4309850000000  0.4993800000000  0.5154610000000 1.0
C      1  0.5606010000000  0.5085790000000  0.4874710000000 1.0
C      1  0.4852760000000  0.5079070000000  0.5652170000000 1.0
C      1  0.5528480000000  0.4490610000000  0.5063060000000 1.0
C      1  0.5000070000000  0.4860240000000  0.5243680000000 1.0
C      1  0.4613200000000  0.4643240000000  0.4455320000000 1.0
C      1  0.5248390000000  0.5099760000000  0.4570860000000 1.0
C      1  0.4442540000000  0.5010980000000  0.5425100000000 1.0
C      1  0.5088350000000  0.4968150000000  0.4353620000000 1.0
C      1  0.4642000000000  0.5191760000000  0.4779800000000 1.0
C      1  0.4813330000000  0.5660980000000  0.4771570000000 1.0
C      1  0.5081700000000  0.4677310000000  0.4440010000000 1.0
C      1  0.5436020000000  0.4686550000000  0.5267190000000 1.0
C      1  0.5097100000000  0.5232520000000  0.5698790000000 1.0
C      1  0.5072720000000  0.5497740000000  0.5578250000000 1.0
C      1  0.4778870000000  0.4379270000000  0.5441350000000 1.0
C      1  0.5541760000000  0.5110270000000  0.5470340000000 1.0
C      1  0.5060870000000  0.4363910000000  0.5348840000000 1.0
C      1  0.4887490000000  0.5128030000000  0.5211230000000 1.0
C      1  0.4812300000000  0.5600220000000  0.5504540000000 1.0
C      1  0.5470440000000  0.5472750000000  0.5117800000000 1.0
C      1  0.5285500000000  0.4447680000000  0.4915160000000 1.0
C      1  0.4777950000000  0.5343170000000  0.4402860000000 1.0
C      1  0.4607460000000  0.4352520000000  0.5220400000000 1.0
C      1  0.5608190000000  0.5380730000000  0.4875610000000 1.0
C      1  0.5674360000000  0.4866250000000  0.5348690000000 1.0
C      1  0.4821720000000  0.5078410000000  0.4316160000000 1.0
C      1  0.4645740000000  0.5663870000000  0.5028220000000 1.0
C      1  0.4857190000000  0.4640260000000  0.5049600000000 1.0
C      1  0.4955470000000  0.4297830000000  0.4660780000000 1.0
C      1  0.4294560000000  0.5270640000000  0.5032210000000 1.0
C      1  0.5057190000000  0.5487610000000  0.4832470000000 1.0
END
