TITL C-950530-3293-102 6.05150658294698e-07 125000 -679.742313955218 0 0 109 (C1) n - 1
REM
REM in /home/bkarasulu/work/CARBON/AIRSS/Generating-Clusters/EDIP-Nigel-Params/with-SteepDescent/Only-C1/SD-CG/HFTN-CG
REM
REM
REM
REM
REM
REM ./C.cell (11c1c37f851c82e70ff6c80c92926a4b)
REM
REM compiler GCC version 9.2.1 20190827 (Red Hat 9.2.1-1)
REM options -cpp -mtune=generic -march=x86-64 -g -O0 -fpre-include=/usr/include/finclude/math-vector-fortran.h
REM seed -482835798 1635506529 -2094805975 -1142065503 -651881462 -814880069 -220299546 1684713653 -500787095 427819533 -808108690 1195677961 -1758143882 187375628 743577424 1419726028 -870525032 637289629 1449717656 1171934274 2047870213 2085633958 1590514038 19260898 313357465 405909586 -1420908040 184538743 -711408450 1942062125 -788598613 590839075 -1526337727
REM
CELL 1.54180   50.00000   50.00000   50.00000   90.00000   90.00000   90.00000
LATT -1
SFAC C  
C      1  0.4684170000000  0.4425130000000  0.4353550000000 1.0
C      1  0.5592560000000  0.4935830000000  0.5528970000000 1.0
C      1  0.4671330000000  0.4842090000000  0.5228250000000 1.0
C      1  0.6074650000000  0.5243830000000  0.4712170000000 1.0
C      1  0.4983960000000  0.5714300000000  0.5089660000000 1.0
C      1  0.4772020000000  0.5730740000000  0.4866890000000 1.0
C      1  0.5917110000000  0.5324790000000  0.5366210000000 1.0
C      1  0.4343340000000  0.4766640000000  0.4265420000000 1.0
C      1  0.4760790000000  0.5025860000000  0.4242670000000 1.0
C      1  0.5935330000000  0.4857810000000  0.5209960000000 1.0
C      1  0.4556430000000  0.4793810000000  0.4951820000000 1.0
C      1  0.5440200000000  0.5819510000000  0.5239030000000 1.0
C      1  0.5812530000000  0.4572160000000  0.4810390000000 1.0
C      1  0.4086290000000  0.4658220000000  0.5061050000000 1.0
C      1  0.5834840000000  0.4803690000000  0.4635240000000 1.0
C      1  0.5456060000000  0.4814550000000  0.4294430000000 1.0
C      1  0.5162730000000  0.4987510000000  0.5305510000000 1.0
C      1  0.4654480000000  0.4563570000000  0.5394000000000 1.0
C      1  0.3951780000000  0.4768850000000  0.4842080000000 1.0
C      1  0.5856230000000  0.5606650000000  0.5406210000000 1.0
C      1  0.4332470000000  0.5507600000000  0.5070660000000 1.0
C      1  0.5524970000000  0.4652150000000  0.5490700000000 1.0
C      1  0.5079360000000  0.5411690000000  0.5141120000000 1.0
C      1  0.5247110000000  0.4118090000000  0.4676620000000 1.0
C      1  0.4901620000000  0.5222380000000  0.5001970000000 1.0
C      1  0.4425740000000  0.4323220000000  0.5204790000000 1.0
C      1  0.5531360000000  0.4341640000000  0.4425550000000 1.0
C      1  0.5421360000000  0.5453960000000  0.4776060000000 1.0
C      1  0.4848920000000  0.5463700000000  0.5692800000000 1.0
C      1  0.5315860000000  0.4883340000000  0.4773330000000 1.0
C      1  0.5337670000000  0.5547800000000  0.5787820000000 1.0
C      1  0.5373820000000  0.5335370000000  0.5063320000000 1.0
C      1  0.3953590000000  0.5307960000000  0.4808950000000 1.0
C      1  0.5761040000000  0.5622430000000  0.4711830000000 1.0
C      1  0.5543430000000  0.5404300000000  0.5327440000000 1.0
C      1  0.4541170000000  0.4278530000000  0.4573480000000 1.0
C      1  0.5809640000000  0.5053900000000  0.5366290000000 1.0
C      1  0.4097220000000  0.4733160000000  0.4389210000000 1.0
C      1  0.4402350000000  0.5051100000000  0.5627060000000 1.0
C      1  0.5323450000000  0.4587070000000  0.4790100000000 1.0
C      1  0.5339540000000  0.5748140000000  0.4759200000000 1.0
C      1  0.5245670000000  0.4663810000000  0.5480420000000 1.0
C      1  0.5378600000000  0.5079400000000  0.5678700000000 1.0
C      1  0.5217050000000  0.4965290000000  0.4217670000000 1.0
C      1  0.5370300000000  0.4537270000000  0.4290060000000 1.0
C      1  0.4262810000000  0.4789570000000  0.5571460000000 1.0
C      1  0.4683170000000  0.5581580000000  0.5463870000000 1.0
C      1  0.5358460000000  0.5029890000000  0.5053900000000 1.0
C      1  0.4727740000000  0.4185990000000  0.4760890000000 1.0
C      1  0.5327760000000  0.5920850000000  0.5472200000000 1.0
C      1  0.4787490000000  0.5421340000000  0.4521150000000 1.0
C      1  0.4065170000000  0.5161460000000  0.4595750000000 1.0
C      1  0.4082230000000  0.5139060000000  0.5264760000000 1.0
C      1  0.4947320000000  0.4336410000000  0.5489760000000 1.0
C      1  0.5067840000000  0.5859350000000  0.5561080000000 1.0
C      1  0.4154480000000  0.4845150000000  0.5285980000000 1.0
C      1  0.5461670000000  0.4179300000000  0.4892820000000 1.0
C      1  0.4972490000000  0.4725910000000  0.5821490000000 1.0
C      1  0.5808280000000  0.4630800000000  0.5099450000000 1.0
C      1  0.4504490000000  0.4555120000000  0.4182660000000 1.0
C      1  0.4669340000000  0.4739170000000  0.5856080000000 1.0
C      1  0.4611860000000  0.5033830000000  0.5850110000000 1.0
C      1  0.4309260000000  0.4359750000000  0.4718190000000 1.0
C      1  0.4886520000000  0.4125150000000  0.5109450000000 1.0
C      1  0.5731680000000  0.5780130000000  0.5206100000000 1.0
C      1  0.5250210000000  0.5848690000000  0.5019440000000 1.0
C      1  0.4652510000000  0.4160810000000  0.5278140000000 1.0
C      1  0.4859440000000  0.5794830000000  0.5354090000000 1.0
C      1  0.5143330000000  0.5790300000000  0.4565500000000 1.0
C      1  0.4868140000000  0.5174430000000  0.5795840000000 1.0
C      1  0.4495960000000  0.5426250000000  0.4599390000000 1.0
C      1  0.4451160000000  0.5023270000000  0.4829650000000 1.0
C      1  0.5642900000000  0.5204680000000  0.4506050000000 1.0
C      1  0.5590720000000  0.4503460000000  0.5250530000000 1.0
C      1  0.5117940000000  0.4225030000000  0.5265520000000 1.0
C      1  0.4929310000000  0.4954600000000  0.5129960000000 1.0
C      1  0.5566010000000  0.4929560000000  0.4551390000000 1.0
C      1  0.4370790000000  0.5157460000000  0.4588580000000 1.0
C      1  0.5374790000000  0.4318630000000  0.5139850000000 1.0
C      1  0.4995760000000  0.4511080000000  0.4366490000000 1.0
C      1  0.5828980000000  0.5741270000000  0.4947880000000 1.0
C      1  0.5076230000000  0.5646310000000  0.5758930000000 1.0
C      1  0.5569840000000  0.4421280000000  0.4720390000000 1.0
C      1  0.4144240000000  0.5286030000000  0.5014720000000 1.0
C      1  0.4891460000000  0.4414160000000  0.4846890000000 1.0
C      1  0.5395320000000  0.4090240000000  0.4434270000000 1.0
C      1  0.4533580000000  0.5553130000000  0.4865110000000 1.0
C      1  0.5092300000000  0.4986470000000  0.5742500000000 1.0
C      1  0.6047300000000  0.4975910000000  0.4691800000000 1.0
C      1  0.5830430000000  0.5359100000000  0.4641550000000 1.0
C      1  0.4484160000000  0.5001720000000  0.4349710000000 1.0
C      1  0.5096820000000  0.4508320000000  0.5667270000000 1.0
C      1  0.5223710000000  0.5283200000000  0.4605930000000 1.0
C      1  0.5086440000000  0.5301890000000  0.5434830000000 1.0
C      1  0.4280540000000  0.4449090000000  0.4987180000000 1.0
C      1  0.5356720000000  0.5353540000000  0.5571590000000 1.0
C      1  0.4420010000000  0.5491920000000  0.5349900000000 1.0
C      1  0.4980320000000  0.4839800000000  0.4356680000000 1.0
C      1  0.4992660000000  0.4905500000000  0.4657590000000 1.0
C      1  0.4884920000000  0.5300840000000  0.4259730000000 1.0
C      1  0.5191140000000  0.5256370000000  0.4303600000000 1.0
C      1  0.4242740000000  0.5283500000000  0.5480910000000 1.0
C      1  0.4493700000000  0.4605490000000  0.5642280000000 1.0
C      1  0.4880700000000  0.5703000000000  0.4594270000000 1.0
C      1  0.4789780000000  0.4699610000000  0.4795480000000 1.0
C      1  0.3966250000000  0.4882730000000  0.4586140000000 1.0
C      1  0.4946030000000  0.5211730000000  0.4708950000000 1.0
C      1  0.4556760000000  0.5072460000000  0.5377000000000 1.0
C      1  0.5117720000000  0.4403710000000  0.4660700000000 1.0
END
