TITL C-950535-5962-42 -7.67412532909937e-07 125000 -1120.09841090683 0 0 179 (C1) n - 1
REM
REM in /home/bkarasulu/work/CARBON/AIRSS/Generating-Clusters/EDIP-Nigel-Params/with-SteepDescent/Only-C1/SD-CG/HFTN-CG
REM
REM
REM
REM
REM
REM ./C.cell (11c1c37f851c82e70ff6c80c92926a4b)
REM
REM compiler GCC version 9.2.1 20190827 (Red Hat 9.2.1-1)
REM options -cpp -mtune=generic -march=x86-64 -g -O0 -fpre-include=/usr/include/finclude/math-vector-fortran.h
REM seed -91681758 -658616834 361145545 1162563880 -81905556 236217872 139332276 1565998308 1926374568 -1948048367 1124523904 -289988221 -178581443 -735121196 1653642194 -1690706912 -350354486 -878625931 -1334750059 1841536676 995706096 -322622186 1810001016 1196995561 -1485987766 203454269 -888806528 730366165 -184343567 1444501828 436758422 -1013058352 -1383340231
REM
CELL 1.54180   50.00000   50.00000   50.00000   90.00000   90.00000   90.00000
LATT -1
SFAC C  
C      1  0.4291600000000  0.4272040000000  0.5455440000000 1.0
C      1  0.5395140000000  0.5058810000000  0.5983550000000 1.0
C      1  0.4863440000000  0.3799810000000  0.5078680000000 1.0
C      1  0.4907610000000  0.4991670000000  0.5371780000000 1.0
C      1  0.4810080000000  0.5363690000000  0.4120170000000 1.0
C      1  0.4651460000000  0.5167890000000  0.6152050000000 1.0
C      1  0.5191800000000  0.4578350000000  0.5462650000000 1.0
C      1  0.4648050000000  0.5734190000000  0.4338990000000 1.0
C      1  0.4258790000000  0.5254990000000  0.5330060000000 1.0
C      1  0.5295460000000  0.5404690000000  0.4439000000000 1.0
C      1  0.4545160000000  0.5404150000000  0.4871090000000 1.0
C      1  0.4926120000000  0.4328040000000  0.5428890000000 1.0
C      1  0.3973030000000  0.5102860000000  0.4933010000000 1.0
C      1  0.5159110000000  0.4937020000000  0.4608110000000 1.0
C      1  0.4732730000000  0.5723680000000  0.5118360000000 1.0
C      1  0.4731090000000  0.5095940000000  0.3988850000000 1.0
C      1  0.4959680000000  0.5809540000000  0.4352360000000 1.0
C      1  0.4571350000000  0.5695390000000  0.5836250000000 1.0
C      1  0.5069300000000  0.5487580000000  0.4009310000000 1.0
C      1  0.5919690000000  0.4334050000000  0.4454770000000 1.0
C      1  0.4310050000000  0.5758800000000  0.5427890000000 1.0
C      1  0.4910660000000  0.4411850000000  0.4092660000000 1.0
C      1  0.5093890000000  0.4083030000000  0.5448740000000 1.0
C      1  0.4764290000000  0.5346820000000  0.5348430000000 1.0
C      1  0.5119310000000  0.5962970000000  0.4953140000000 1.0
C      1  0.6004440000000  0.5287820000000  0.4665320000000 1.0
C      1  0.5779330000000  0.4860110000000  0.4264410000000 1.0
C      1  0.4125580000000  0.5543460000000  0.4686260000000 1.0
C      1  0.4087590000000  0.5130520000000  0.4427810000000 1.0
C      1  0.4603410000000  0.4656010000000  0.4099910000000 1.0
C      1  0.5763370000000  0.5662550000000  0.4842640000000 1.0
C      1  0.4019390000000  0.5136340000000  0.5467180000000 1.0
C      1  0.3962880000000  0.4945360000000  0.5217710000000 1.0
C      1  0.4831350000000  0.5614850000000  0.5794920000000 1.0
C      1  0.4324470000000  0.4664230000000  0.5748130000000 1.0
C      1  0.4075160000000  0.4699050000000  0.4613700000000 1.0
C      1  0.5857820000000  0.5211960000000  0.5788450000000 1.0
C      1  0.4498110000000  0.4767310000000  0.5289860000000 1.0
C      1  0.5421190000000  0.5117760000000  0.4051490000000 1.0
C      1  0.4863110000000  0.5827640000000  0.4892610000000 1.0
C      1  0.5651070000000  0.4686480000000  0.5330410000000 1.0
C      1  0.4941600000000  0.3864010000000  0.5540370000000 1.0
C      1  0.5048240000000  0.3871420000000  0.4675850000000 1.0
C      1  0.4531720000000  0.4135680000000  0.5051000000000 1.0
C      1  0.5871270000000  0.4501690000000  0.5243170000000 1.0
C      1  0.5673000000000  0.5127740000000  0.4222100000000 1.0
C      1  0.5050370000000  0.4627840000000  0.4550580000000 1.0
C      1  0.5570400000000  0.4746460000000  0.4415550000000 1.0
C      1  0.4964370000000  0.4801500000000  0.6003860000000 1.0
C      1  0.4409680000000  0.5128920000000  0.4877730000000 1.0
C      1  0.5173090000000  0.5687450000000  0.4545650000000 1.0
C      1  0.4770680000000  0.4343760000000  0.5137130000000 1.0
C      1  0.4684200000000  0.4910770000000  0.4215930000000 1.0
C      1  0.5341960000000  0.5078990000000  0.5333610000000 1.0
C      1  0.4705240000000  0.4002580000000  0.4543380000000 1.0
C      1  0.5438260000000  0.6009610000000  0.4609350000000 1.0
C      1  0.5512960000000  0.5214270000000  0.4877530000000 1.0
C      1  0.5675370000000  0.5702290000000  0.5344790000000 1.0
C      1  0.4199230000000  0.4540800000000  0.5518130000000 1.0
C      1  0.5522740000000  0.5242010000000  0.5502320000000 1.0
C      1  0.4331870000000  0.5401490000000  0.4155290000000 1.0
C      1  0.5307550000000  0.5372030000000  0.4140380000000 1.0
C      1  0.4434880000000  0.5631940000000  0.5064440000000 1.0
C      1  0.4835400000000  0.4634370000000  0.3882680000000 1.0
C      1  0.5342920000000  0.5424320000000  0.5658530000000 1.0
C      1  0.5194810000000  0.5548270000000  0.5415660000000 1.0
C      1  0.4417380000000  0.5581020000000  0.5635050000000 1.0
C      1  0.4428510000000  0.6061920000000  0.5091340000000 1.0
C      1  0.4750050000000  0.4560730000000  0.4568840000000 1.0
C      1  0.4793400000000  0.5858310000000  0.5381110000000 1.0
C      1  0.5748940000000  0.5405880000000  0.5379580000000 1.0
C      1  0.5095410000000  0.5055970000000  0.6005520000000 1.0
C      1  0.5032510000000  0.6046350000000  0.5382060000000 1.0
C      1  0.4621270000000  0.3883430000000  0.5185050000000 1.0
C      1  0.5192500000000  0.6096560000000  0.4695040000000 1.0
C      1  0.4118900000000  0.4666390000000  0.5256390000000 1.0
C      1  0.4919990000000  0.5252510000000  0.6121810000000 1.0
C      1  0.4536570000000  0.5084500000000  0.5668570000000 1.0
C      1  0.4344810000000  0.5023900000000  0.5152270000000 1.0
C      1  0.6002430000000  0.4994410000000  0.4692090000000 1.0
C      1  0.5912770000000  0.4939900000000  0.5680820000000 1.0
C      1  0.5045890000000  0.5435760000000  0.4809160000000 1.0
C      1  0.5183630000000  0.5307460000000  0.5229940000000 1.0
C      1  0.5738710000000  0.4234840000000  0.5196080000000 1.0
C      1  0.5375220000000  0.4620950000000  0.3990660000000 1.0
C      1  0.4872990000000  0.4406560000000  0.5736360000000 1.0
C      1  0.4605980000000  0.4957760000000  0.4744760000000 1.0
C      1  0.4323150000000  0.4955530000000  0.5824420000000 1.0
C      1  0.4623800000000  0.4274470000000  0.5833740000000 1.0
C      1  0.5817770000000  0.5263310000000  0.5111300000000 1.0
C      1  0.4976900000000  0.4263670000000  0.4938410000000 1.0
C      1  0.4647100000000  0.5048230000000  0.4463950000000 1.0
C      1  0.5150350000000  0.4482310000000  0.4269280000000 1.0
C      1  0.5272530000000  0.5965480000000  0.5503650000000 1.0
C      1  0.4048180000000  0.4980370000000  0.4672980000000 1.0
C      1  0.6013440000000  0.5048530000000  0.5180210000000 1.0
C      1  0.5198890000000  0.4204790000000  0.4361420000000 1.0
C      1  0.5681820000000  0.4476270000000  0.5806360000000 1.0
C      1  0.5609200000000  0.5793710000000  0.5069940000000 1.0
C      1  0.5956870000000  0.5392640000000  0.5587490000000 1.0
C      1  0.5328930000000  0.4057670000000  0.5274080000000 1.0
C      1  0.5386890000000  0.5805180000000  0.4190930000000 1.0
C      1  0.4206750000000  0.5394530000000  0.4437590000000 1.0
C      1  0.5165620000000  0.4898690000000  0.5501310000000 1.0
C      1  0.4844020000000  0.5032660000000  0.4898650000000 1.0
C      1  0.4350850000000  0.5132850000000  0.4029760000000 1.0
C      1  0.5548010000000  0.5276420000000  0.4559800000000 1.0
C      1  0.4635980000000  0.4436030000000  0.4318500000000 1.0
C      1  0.5939690000000  0.5440850000000  0.4911550000000 1.0
C      1  0.4210380000000  0.5805320000000  0.4742050000000 1.0
C      1  0.4406930000000  0.5988980000000  0.4815030000000 1.0
C      1  0.5260940000000  0.4393140000000  0.5717750000000 1.0
C      1  0.5684590000000  0.4750600000000  0.5632010000000 1.0
C      1  0.6102080000000  0.4555030000000  0.4453220000000 1.0
C      1  0.5823070000000  0.5398430000000  0.4453250000000 1.0
C      1  0.5388230000000  0.4564700000000  0.5235540000000 1.0
C      1  0.5496940000000  0.5637100000000  0.5794100000000 1.0
C      1  0.5740750000000  0.5672620000000  0.4546260000000 1.0
C      1  0.4998950000000  0.6061320000000  0.4488270000000 1.0
C      1  0.4977560000000  0.4902280000000  0.3884770000000 1.0
C      1  0.6060820000000  0.4962950000000  0.5443950000000 1.0
C      1  0.4924490000000  0.4836750000000  0.5099010000000 1.0
C      1  0.6084450000000  0.4883180000000  0.4954710000000 1.0
C      1  0.5162190000000  0.4472270000000  0.4811620000000 1.0
C      1  0.5556380000000  0.4441070000000  0.4108380000000 1.0
C      1  0.5509950000000  0.5821500000000  0.5565250000000 1.0
C      1  0.4256360000000  0.4528930000000  0.4778120000000 1.0
C      1  0.4959650000000  0.5502970000000  0.6012880000000 1.0
C      1  0.5669790000000  0.4081620000000  0.5442230000000 1.0
C      1  0.5664130000000  0.4285620000000  0.4323390000000 1.0
C      1  0.5218080000000  0.4709740000000  0.5013880000000 1.0
C      1  0.4192830000000  0.4958520000000  0.4215250000000 1.0
C      1  0.4792610000000  0.5299170000000  0.4431930000000 1.0
C      1  0.5405550000000  0.4560050000000  0.5920030000000 1.0
C      1  0.5454600000000  0.4286780000000  0.5113970000000 1.0
C      1  0.5428640000000  0.4327810000000  0.4775350000000 1.0
C      1  0.4605870000000  0.5518820000000  0.4578620000000 1.0
C      1  0.4686470000000  0.4635760000000  0.5080460000000 1.0
C      1  0.5285300000000  0.5421800000000  0.4984590000000 1.0
C      1  0.4808560000000  0.4692710000000  0.5774020000000 1.0
C      1  0.5590610000000  0.5286420000000  0.5929670000000 1.0
C      1  0.4536810000000  0.4168080000000  0.5574140000000 1.0
C      1  0.4902450000000  0.5586870000000  0.5503360000000 1.0
C      1  0.5316610000000  0.5726590000000  0.5089470000000 1.0
C      1  0.5586020000000  0.4733040000000  0.4693470000000 1.0
C      1  0.6016550000000  0.4595700000000  0.4990650000000 1.0
C      1  0.4980330000000  0.4100650000000  0.4525260000000 1.0
C      1  0.4580090000000  0.5557960000000  0.4105510000000 1.0
C      1  0.4508200000000  0.4111210000000  0.4732700000000 1.0
C      1  0.5248370000000  0.4881710000000  0.4010880000000 1.0
C      1  0.4565230000000  0.4659230000000  0.4791480000000 1.0
C      1  0.4454530000000  0.4498730000000  0.5947230000000 1.0
C      1  0.4682530000000  0.4871050000000  0.5531120000000 1.0
C      1  0.4606790000000  0.4709330000000  0.6105490000000 1.0
C      1  0.4139930000000  0.4460540000000  0.5043910000000 1.0
C      1  0.4294850000000  0.4279660000000  0.4616610000000 1.0
C      1  0.4493580000000  0.5321090000000  0.5503890000000 1.0
C      1  0.5045060000000  0.3967320000000  0.4943580000000 1.0
C      1  0.5848480000000  0.4580350000000  0.4741280000000 1.0
C      1  0.4814980000000  0.5311870000000  0.4986110000000 1.0
C      1  0.5072020000000  0.6176940000000  0.5142690000000 1.0
C      1  0.4657180000000  0.5887180000000  0.4693480000000 1.0
C      1  0.5415470000000  0.4830820000000  0.5791660000000 1.0
C      1  0.4456680000000  0.4967660000000  0.6106540000000 1.0
C      1  0.4336010000000  0.4398190000000  0.4344120000000 1.0
C      1  0.5455210000000  0.4184540000000  0.4507170000000 1.0
C      1  0.4169120000000  0.5501400000000  0.5178910000000 1.0
C      1  0.4067440000000  0.5064180000000  0.5735540000000 1.0
C      1  0.4483920000000  0.5986780000000  0.5362280000000 1.0
C      1  0.6028980000000  0.4839190000000  0.4432270000000 1.0
C      1  0.5595620000000  0.4220270000000  0.5683130000000 1.0
C      1  0.5068320000000  0.5241680000000  0.4562110000000 1.0
C      1  0.4024180000000  0.5400990000000  0.4930940000000 1.0
C      1  0.4269580000000  0.4228220000000  0.5168130000000 1.0
C      1  0.5377410000000  0.4909610000000  0.4823860000000 1.0
C      1  0.4184840000000  0.4669900000000  0.4341640000000 1.0
C      1  0.4675570000000  0.3933900000000  0.5465580000000 1.0
C      1  0.5554310000000  0.5853870000000  0.4414860000000 1.0
C      1  0.5115340000000  0.5770950000000  0.4101480000000 1.0
END
