TITL C-951335-1172-581 -7.78355704889298e-07 125000 -415.612517129937 0 0 67 (C1) n - 1
REM
REM in /home/bkarasulu/work/CARBON/AIRSS/Generating-Clusters/EDIP-Nigel-Params/with-SteepDescent/Only-C1/SD-CG/HFTN-CG
REM
REM
REM
REM
REM
REM ./C.cell (11c1c37f851c82e70ff6c80c92926a4b)
REM
REM compiler GCC version 9.2.1 20190827 (Red Hat 9.2.1-1)
REM options -cpp -mtune=generic -march=x86-64 -g -O0 -fpre-include=/usr/include/finclude/math-vector-fortran.h
REM seed -219043239 -2065041917 1985621439 668389929 1720464424 -2064446826 -1683450292 190355565 165932643 -208826924 -701177077 -1305210367 1903508929 2124616126 -822024845 -777535017 219958634 2143171453 1597205388 -1128853472 1170572517 1484157960 -215672760 -1324696356 628768850 29135288 -1960225332 -1054736391 -1832081930 1480082508 -1634658918 -2045438470 1286876598
REM
CELL 1.54180   50.00000   50.00000   50.00000   90.00000   90.00000   90.00000
LATT -1
SFAC C  
C      1  0.4654070000000  0.5241150000000  0.4961090000000 1.0
C      1  0.5089110000000  0.4660190000000  0.4382110000000 1.0
C      1  0.4523240000000  0.5368090000000  0.4724090000000 1.0
C      1  0.4416350000000  0.5183190000000  0.5138590000000 1.0
C      1  0.5041920000000  0.5043590000000  0.4705790000000 1.0
C      1  0.4608930000000  0.5154280000000  0.5591180000000 1.0
C      1  0.4856570000000  0.4837850000000  0.4320600000000 1.0
C      1  0.5408560000000  0.5598830000000  0.5059230000000 1.0
C      1  0.5274490000000  0.4614740000000  0.4846870000000 1.0
C      1  0.5509230000000  0.5472410000000  0.4562370000000 1.0
C      1  0.4854940000000  0.4822350000000  0.5098240000000 1.0
C      1  0.4226350000000  0.5220190000000  0.4712730000000 1.0
C      1  0.4624710000000  0.4751620000000  0.5277670000000 1.0
C      1  0.4446190000000  0.4586610000000  0.5087380000000 1.0
C      1  0.5026610000000  0.5345760000000  0.5830860000000 1.0
C      1  0.5178980000000  0.4553780000000  0.5320500000000 1.0
C      1  0.5699990000000  0.5117410000000  0.5177770000000 1.0
C      1  0.4729880000000  0.4445030000000  0.4580870000000 1.0
C      1  0.5836490000000  0.5397110000000  0.4946610000000 1.0
C      1  0.4903830000000  0.5587870000000  0.4473280000000 1.0
C      1  0.4714630000000  0.5356980000000  0.4480730000000 1.0
C      1  0.5219250000000  0.4808080000000  0.4606320000000 1.0
C      1  0.5283010000000  0.5296360000000  0.5408580000000 1.0
C      1  0.4707120000000  0.4583940000000  0.5540250000000 1.0
C      1  0.5389890000000  0.5084600000000  0.5223610000000 1.0
C      1  0.5663510000000  0.5496980000000  0.5141750000000 1.0
C      1  0.4821010000000  0.4243310000000  0.5077020000000 1.0
C      1  0.5419510000000  0.5234160000000  0.4364150000000 1.0
C      1  0.4490210000000  0.5011630000000  0.5366080000000 1.0
C      1  0.4778660000000  0.4985510000000  0.4863360000000 1.0
C      1  0.4934050000000  0.5621510000000  0.5204680000000 1.0
C      1  0.4533240000000  0.4870600000000  0.4673610000000 1.0
C      1  0.5211260000000  0.5551560000000  0.5274560000000 1.0
C      1  0.5051740000000  0.4193740000000  0.4938860000000 1.0
C      1  0.4630380000000  0.5005910000000  0.5823300000000 1.0
C      1  0.5557270000000  0.4657510000000  0.4993830000000 1.0
C      1  0.4323490000000  0.4757530000000  0.4869550000000 1.0
C      1  0.5194770000000  0.4339140000000  0.4741910000000 1.0
C      1  0.5011840000000  0.4397720000000  0.4506230000000 1.0
C      1  0.5347210000000  0.4809520000000  0.5400340000000 1.0
C      1  0.5408170000000  0.4372750000000  0.5302620000000 1.0
C      1  0.4716590000000  0.4743680000000  0.5813080000000 1.0
C      1  0.5697730000000  0.4908200000000  0.4952160000000 1.0
C      1  0.5733620000000  0.5312190000000  0.4688450000000 1.0
C      1  0.5304780000000  0.5483710000000  0.4800060000000 1.0
C      1  0.5084010000000  0.5548850000000  0.4256410000000 1.0
C      1  0.4214280000000  0.5040220000000  0.4957130000000 1.0
C      1  0.5142040000000  0.5273240000000  0.4271770000000 1.0
C      1  0.5279680000000  0.5183720000000  0.4880150000000 1.0
C      1  0.4994570000000  0.4469550000000  0.5536360000000 1.0
C      1  0.4805630000000  0.5504980000000  0.5840660000000 1.0
C      1  0.4381270000000  0.5072720000000  0.4520380000000 1.0
C      1  0.5614660000000  0.4556340000000  0.5255620000000 1.0
C      1  0.5019050000000  0.4680090000000  0.5761200000000 1.0
C      1  0.5197980000000  0.4899180000000  0.5648070000000 1.0
C      1  0.5040040000000  0.5624430000000  0.4735910000000 1.0
C      1  0.4724880000000  0.5582880000000  0.5384190000000 1.0
C      1  0.4571300000000  0.4332780000000  0.4979360000000 1.0
C      1  0.5465830000000  0.4951680000000  0.4501440000000 1.0
C      1  0.5142280000000  0.5184300000000  0.5634420000000 1.0
C      1  0.5057070000000  0.4618570000000  0.5061320000000 1.0
C      1  0.4641730000000  0.4693080000000  0.4466160000000 1.0
C      1  0.4928080000000  0.5131560000000  0.4431310000000 1.0
C      1  0.5556210000000  0.5075340000000  0.4756880000000 1.0
C      1  0.4894790000000  0.5731250000000  0.4951530000000 1.0
C      1  0.4538480000000  0.4274970000000  0.4704620000000 1.0
C      1  0.4652740000000  0.5441380000000  0.5612230000000 1.0
END
