TITL C-951344-124-541 -1.37851787677136e-06 125000 -760.162493162344 0 0 124 (C1) n - 1
REM
REM in /home/bkarasulu/work/CARBON/AIRSS/Generating-Clusters/EDIP-Nigel-Params/with-SteepDescent/Only-C1/SD-CG/HFTN-CG
REM
REM
REM
REM
REM
REM ./C.cell (11c1c37f851c82e70ff6c80c92926a4b)
REM
REM compiler GCC version 9.2.1 20190827 (Red Hat 9.2.1-1)
REM options -cpp -mtune=generic -march=x86-64 -g -O0 -fpre-include=/usr/include/finclude/math-vector-fortran.h
REM seed -1235977263 1900101684 -1128032580 138819978 1260629413 -1785414644 1252907252 124150012 1412851432 -2001456683 1268473798 1273206898 1266312689 1465711898 1325098928 -489322464 -1845043219 -172648871 1340908253 56925943 577321876 -1714214473 1731813602 1294799199 -1291609753 1327275135 -642417396 809786286 -1223254661 -1761490233 -388567279 676328515 -1503670228
REM
CELL 1.54180   50.00000   50.00000   50.00000   90.00000   90.00000   90.00000
LATT -1
SFAC C  
C      1  0.4434000000000  0.4158930000000  0.5013720000000 1.0
C      1  0.5534520000000  0.4455620000000  0.4998040000000 1.0
C      1  0.5075810000000  0.4680230000000  0.4884480000000 1.0
C      1  0.4858190000000  0.5018140000000  0.4319790000000 1.0
C      1  0.5466380000000  0.5500800000000  0.5384230000000 1.0
C      1  0.5309670000000  0.4115120000000  0.5166840000000 1.0
C      1  0.4328770000000  0.4712900000000  0.5786310000000 1.0
C      1  0.4502770000000  0.4339250000000  0.4423290000000 1.0
C      1  0.4442640000000  0.5081660000000  0.4466900000000 1.0
C      1  0.5069880000000  0.5733680000000  0.4361760000000 1.0
C      1  0.4160680000000  0.4628420000000  0.4647090000000 1.0
C      1  0.5154620000000  0.4998000000000  0.5969240000000 1.0
C      1  0.5749870000000  0.5694960000000  0.4969120000000 1.0
C      1  0.5572380000000  0.5726380000000  0.5207410000000 1.0
C      1  0.5667510000000  0.4489160000000  0.5270710000000 1.0
C      1  0.4677530000000  0.4653520000000  0.5516070000000 1.0
C      1  0.4828470000000  0.4535610000000  0.5289890000000 1.0
C      1  0.4573530000000  0.5897820000000  0.5098990000000 1.0
C      1  0.5483320000000  0.4408270000000  0.4567290000000 1.0
C      1  0.5282970000000  0.4055040000000  0.5460210000000 1.0
C      1  0.5504510000000  0.5164470000000  0.5710230000000 1.0
C      1  0.4704550000000  0.4994560000000  0.4612490000000 1.0
C      1  0.4928330000000  0.5955560000000  0.4444970000000 1.0
C      1  0.4817000000000  0.6003160000000  0.4694700000000 1.0
C      1  0.5512310000000  0.4078100000000  0.4960900000000 1.0
C      1  0.5041830000000  0.5228530000000  0.5399780000000 1.0
C      1  0.4503630000000  0.5570240000000  0.4549370000000 1.0
C      1  0.4239720000000  0.5064030000000  0.4676740000000 1.0
C      1  0.4899180000000  0.4897980000000  0.5909360000000 1.0
C      1  0.4528630000000  0.4689900000000  0.5008470000000 1.0
C      1  0.5389820000000  0.4158940000000  0.4706360000000 1.0
C      1  0.5298010000000  0.4478460000000  0.4329900000000 1.0
C      1  0.4353330000000  0.5479480000000  0.4778600000000 1.0
C      1  0.4991450000000  0.4752740000000  0.5165860000000 1.0
C      1  0.4416340000000  0.4944040000000  0.5942190000000 1.0
C      1  0.5002060000000  0.4171150000000  0.5537440000000 1.0
C      1  0.4907940000000  0.4789750000000  0.5647740000000 1.0
C      1  0.4249570000000  0.5404270000000  0.5652680000000 1.0
C      1  0.5686860000000  0.4311830000000  0.5480280000000 1.0
C      1  0.5911300000000  0.4879820000000  0.5421160000000 1.0
C      1  0.4919560000000  0.5748250000000  0.5334750000000 1.0
C      1  0.4658130000000  0.4246910000000  0.4644250000000 1.0
C      1  0.4471250000000  0.4829980000000  0.5370200000000 1.0
C      1  0.5478550000000  0.4217420000000  0.5632890000000 1.0
C      1  0.4125390000000  0.5317730000000  0.4715550000000 1.0
C      1  0.4373990000000  0.4973070000000  0.4935380000000 1.0
C      1  0.5789690000000  0.5104460000000  0.5299140000000 1.0
C      1  0.5260370000000  0.5136170000000  0.4175670000000 1.0
C      1  0.5099580000000  0.5636890000000  0.5129090000000 1.0
C      1  0.4903320000000  0.4545910000000  0.4668720000000 1.0
C      1  0.4541200000000  0.5376990000000  0.4993560000000 1.0
C      1  0.5330240000000  0.5619290000000  0.5631580000000 1.0
C      1  0.5150970000000  0.5566060000000  0.4588400000000 1.0
C      1  0.4580340000000  0.4146140000000  0.5248000000000 1.0
C      1  0.5122100000000  0.5348150000000  0.4035400000000 1.0
C      1  0.4315030000000  0.5527390000000  0.5396500000000 1.0
C      1  0.5035410000000  0.5728130000000  0.5618200000000 1.0
C      1  0.5932290000000  0.5211230000000  0.5061480000000 1.0
C      1  0.4520320000000  0.4508750000000  0.5716110000000 1.0
C      1  0.5326440000000  0.4893290000000  0.4053060000000 1.0
C      1  0.5199250000000  0.4713060000000  0.5592350000000 1.0
C      1  0.5508800000000  0.4977690000000  0.4585440000000 1.0
C      1  0.4388530000000  0.4426610000000  0.5075550000000 1.0
C      1  0.4421230000000  0.4831720000000  0.4283670000000 1.0
C      1  0.4919320000000  0.5571330000000  0.4883360000000 1.0
C      1  0.5615140000000  0.5684130000000  0.4502850000000 1.0
C      1  0.4682830000000  0.5767910000000  0.4826790000000 1.0
C      1  0.4846910000000  0.5060000000000  0.5239190000000 1.0
C      1  0.4132330000000  0.5135780000000  0.5187990000000 1.0
C      1  0.5788620000000  0.5405960000000  0.4888320000000 1.0
C      1  0.5051690000000  0.5155850000000  0.4829020000000 1.0
C      1  0.4688780000000  0.4837250000000  0.4150150000000 1.0
C      1  0.5006100000000  0.5593740000000  0.4122470000000 1.0
C      1  0.4125250000000  0.4853350000000  0.5093470000000 1.0
C      1  0.4434230000000  0.5764550000000  0.5306280000000 1.0
C      1  0.4861040000000  0.4241300000000  0.5276850000000 1.0
C      1  0.5324770000000  0.5836710000000  0.5094820000000 1.0
C      1  0.4891010000000  0.5516580000000  0.5786730000000 1.0
C      1  0.5442880000000  0.4923160000000  0.5098350000000 1.0
C      1  0.4389130000000  0.5291550000000  0.5241790000000 1.0
C      1  0.5201310000000  0.4230410000000  0.4213090000000 1.0
C      1  0.5103360000000  0.4171460000000  0.4773770000000 1.0
C      1  0.5999940000000  0.4980240000000  0.4885910000000 1.0
C      1  0.5037590000000  0.5263510000000  0.5712090000000 1.0
C      1  0.5360640000000  0.4902830000000  0.5786370000000 1.0
C      1  0.5212340000000  0.4383660000000  0.5670800000000 1.0
C      1  0.4988860000000  0.6059040000000  0.4922700000000 1.0
C      1  0.5985150000000  0.4993110000000  0.4605300000000 1.0
C      1  0.5433890000000  0.5460960000000  0.4553020000000 1.0
C      1  0.5253400000000  0.4775310000000  0.5300250000000 1.0
C      1  0.4584530000000  0.5099570000000  0.5397380000000 1.0
C      1  0.4515040000000  0.5359490000000  0.4348420000000 1.0
C      1  0.5788250000000  0.4798570000000  0.4980360000000 1.0
C      1  0.5041690000000  0.4625370000000  0.4406400000000 1.0
C      1  0.4939930000000  0.4139800000000  0.4286320000000 1.0
C      1  0.4853490000000  0.4591020000000  0.4169480000000 1.0
C      1  0.5451590000000  0.5203230000000  0.4381130000000 1.0
C      1  0.5875030000000  0.4675900000000  0.5233800000000 1.0
C      1  0.4226600000000  0.4859150000000  0.5551040000000 1.0
C      1  0.5602080000000  0.5834550000000  0.4744250000000 1.0
C      1  0.5312400000000  0.5373140000000  0.5796720000000 1.0
C      1  0.5641540000000  0.5275770000000  0.5471290000000 1.0
C      1  0.4017980000000  0.4726340000000  0.4859230000000 1.0
C      1  0.4839120000000  0.6001660000000  0.5181980000000 1.0
C      1  0.5310940000000  0.5195660000000  0.4994700000000 1.0
C      1  0.4609050000000  0.5471670000000  0.5762670000000 1.0
C      1  0.4896940000000  0.4115550000000  0.4578940000000 1.0
C      1  0.5730600000000  0.4559220000000  0.4672690000000 1.0
C      1  0.5345270000000  0.5949230000000  0.4832840000000 1.0
C      1  0.4174960000000  0.5132420000000  0.5626790000000 1.0
C      1  0.5232060000000  0.5381740000000  0.5229940000000 1.0
C      1  0.5523610000000  0.5300560000000  0.4799350000000 1.0
C      1  0.4413810000000  0.4616200000000  0.4501580000000 1.0
C      1  0.4707100000000  0.4323680000000  0.4198900000000 1.0
C      1  0.4671600000000  0.4987830000000  0.6044770000000 1.0
C      1  0.5759670000000  0.4832410000000  0.4543130000000 1.0
C      1  0.4638720000000  0.4704750000000  0.4698370000000 1.0
C      1  0.4993290000000  0.5322850000000  0.4604650000000 1.0
C      1  0.4783240000000  0.5296520000000  0.4223440000000 1.0
C      1  0.4617380000000  0.5176540000000  0.5710860000000 1.0
C      1  0.5416870000000  0.4649350000000  0.4129650000000 1.0
C      1  0.5049330000000  0.4134980000000  0.5058180000000 1.0
C      1  0.5375320000000  0.4726250000000  0.4856730000000 1.0
C      1  0.4772600000000  0.5167540000000  0.4956750000000 1.0
END
