TITL C-950532-2784-225 -2.05585007754803e-06 125000 -959.198996737056 0 0 154 (C1) n - 1
REM
REM in /home/bkarasulu/work/CARBON/AIRSS/Generating-Clusters/EDIP-Nigel-Params/with-SteepDescent/Only-C1/SD-CG/HFTN-CG
REM
REM
REM
REM
REM
REM ./C.cell (11c1c37f851c82e70ff6c80c92926a4b)
REM
REM compiler GCC version 9.2.1 20190827 (Red Hat 9.2.1-1)
REM options -cpp -mtune=generic -march=x86-64 -g -O0 -fpre-include=/usr/include/finclude/math-vector-fortran.h
REM seed -1586206177 498948080 1617318147 -2070045475 -1827024921 -986016152 2059534077 -1027317429 2037231400 -2131828647 948210723 -203151377 1937897879 -661474846 -1075739470 -1908218025 1526192440 -529767287 -1311150157 -1877481075 1096214788 -522299377 1688527526 -1880907614 1644905042 -663247848 -904342707 171557272 293919183 1680649176 1708883126 -1527854063 32341383
REM
CELL 1.54180   50.00000   50.00000   50.00000   90.00000   90.00000   90.00000
LATT -1
SFAC C  
C      1  0.5009430000000  0.4214360000000  0.4490010000000 1.0
C      1  0.4288670000000  0.5114140000000  0.4137370000000 1.0
C      1  0.4473290000000  0.4638320000000  0.4139350000000 1.0
C      1  0.4651700000000  0.5403980000000  0.3938360000000 1.0
C      1  0.4586790000000  0.4141810000000  0.4735010000000 1.0
C      1  0.4682410000000  0.5087920000000  0.4478480000000 1.0
C      1  0.5088620000000  0.5626150000000  0.5075840000000 1.0
C      1  0.5589790000000  0.5040000000000  0.4803030000000 1.0
C      1  0.4035270000000  0.4669690000000  0.5061850000000 1.0
C      1  0.5090440000000  0.5746460000000  0.4430430000000 1.0
C      1  0.5442130000000  0.5299020000000  0.4439470000000 1.0
C      1  0.5038160000000  0.5918890000000  0.5073940000000 1.0
C      1  0.5059880000000  0.4047010000000  0.5530800000000 1.0
C      1  0.4245350000000  0.5333860000000  0.4348080000000 1.0
C      1  0.5326880000000  0.5543350000000  0.4011020000000 1.0
C      1  0.5045810000000  0.5274340000000  0.5559870000000 1.0
C      1  0.5128380000000  0.4990580000000  0.5655290000000 1.0
C      1  0.4608360000000  0.5175100000000  0.5383580000000 1.0
C      1  0.5383570000000  0.4290230000000  0.4997480000000 1.0
C      1  0.4966440000000  0.4618570000000  0.4780660000000 1.0
C      1  0.5091460000000  0.4820470000000  0.5390700000000 1.0
C      1  0.4043730000000  0.5200320000000  0.5331860000000 1.0
C      1  0.4465670000000  0.5660830000000  0.5423620000000 1.0
C      1  0.4862660000000  0.5383650000000  0.4141430000000 1.0
C      1  0.5892670000000  0.4615300000000  0.4645070000000 1.0
C      1  0.4215970000000  0.5716410000000  0.4795080000000 1.0
C      1  0.5529250000000  0.5377460000000  0.4167600000000 1.0
C      1  0.4326540000000  0.5623740000000  0.5153300000000 1.0
C      1  0.5835920000000  0.5661930000000  0.4914770000000 1.0
C      1  0.4397490000000  0.4937190000000  0.4527630000000 1.0
C      1  0.4294950000000  0.4838970000000  0.4262020000000 1.0
C      1  0.5811610000000  0.5550970000000  0.4633050000000 1.0
C      1  0.5356850000000  0.4832690000000  0.4423700000000 1.0
C      1  0.4909070000000  0.3949110000000  0.5285950000000 1.0
C      1  0.4115600000000  0.5271660000000  0.4601110000000 1.0
C      1  0.4716710000000  0.4496880000000  0.5461050000000 1.0
C      1  0.5707710000000  0.4621850000000  0.4866250000000 1.0
C      1  0.4951440000000  0.4927650000000  0.6047560000000 1.0
C      1  0.4779240000000  0.4767400000000  0.5359600000000 1.0
C      1  0.4887640000000  0.5592230000000  0.4597150000000 1.0
C      1  0.4831480000000  0.5534610000000  0.5203190000000 1.0
C      1  0.5800930000000  0.5322750000000  0.5546170000000 1.0
C      1  0.5592510000000  0.4306780000000  0.5193540000000 1.0
C      1  0.4612700000000  0.4317100000000  0.4987010000000 1.0
C      1  0.5355490000000  0.5542270000000  0.5236110000000 1.0
C      1  0.4868570000000  0.4046290000000  0.4693630000000 1.0
C      1  0.4480950000000  0.4581970000000  0.4931800000000 1.0
C      1  0.4677800000000  0.5720450000000  0.4763740000000 1.0
C      1  0.5077350000000  0.5606270000000  0.4159750000000 1.0
C      1  0.5519460000000  0.4779760000000  0.5873340000000 1.0
C      1  0.5040670000000  0.4503710000000  0.4089440000000 1.0
C      1  0.5149770000000  0.5134560000000  0.6018770000000 1.0
C      1  0.5518050000000  0.5483210000000  0.4661220000000 1.0
C      1  0.4173580000000  0.5030790000000  0.5133320000000 1.0
C      1  0.5281480000000  0.4976000000000  0.4868070000000 1.0
C      1  0.4947500000000  0.4433970000000  0.5896480000000 1.0
C      1  0.5935470000000  0.5494350000000  0.5138230000000 1.0
C      1  0.4906890000000  0.5456910000000  0.5772870000000 1.0
C      1  0.4534620000000  0.5403620000000  0.5567640000000 1.0
C      1  0.5147880000000  0.5910280000000  0.5594600000000 1.0
C      1  0.4716630000000  0.5824240000000  0.5443050000000 1.0
C      1  0.5510690000000  0.4444190000000  0.5452370000000 1.0
C      1  0.4801610000000  0.4623600000000  0.4533780000000 1.0
C      1  0.5303200000000  0.4406380000000  0.4165470000000 1.0
C      1  0.5758090000000  0.4492450000000  0.4409120000000 1.0
C      1  0.5395840000000  0.4797650000000  0.3957960000000 1.0
C      1  0.6114860000000  0.4782850000000  0.4690470000000 1.0
C      1  0.5423760000000  0.4980940000000  0.5703220000000 1.0
C      1  0.4634480000000  0.3992750000000  0.5325150000000 1.0
C      1  0.5105090000000  0.5495730000000  0.4791430000000 1.0
C      1  0.4486390000000  0.5073680000000  0.5126340000000 1.0
C      1  0.5526560000000  0.5194120000000  0.5510370000000 1.0
C      1  0.5289390000000  0.4035060000000  0.4942110000000 1.0
C      1  0.5355060000000  0.5741060000000  0.4614980000000 1.0
C      1  0.4819700000000  0.5995670000000  0.5232120000000 1.0
C      1  0.4482530000000  0.4204960000000  0.5231110000000 1.0
C      1  0.4634290000000  0.4811630000000  0.5099790000000 1.0
C      1  0.4855620000000  0.4416560000000  0.4327630000000 1.0
C      1  0.5795870000000  0.4522300000000  0.5124230000000 1.0
C      1  0.5412530000000  0.5937850000000  0.4835870000000 1.0
C      1  0.4586360000000  0.5249400000000  0.4911030000000 1.0
C      1  0.5450100000000  0.5798760000000  0.5810320000000 1.0
C      1  0.5562530000000  0.5752680000000  0.5307110000000 1.0
C      1  0.5320330000000  0.5295650000000  0.3848930000000 1.0
C      1  0.5141990000000  0.4993730000000  0.4318480000000 1.0
C      1  0.4690960000000  0.4482310000000  0.5770900000000 1.0
C      1  0.5207090000000  0.6094580000000  0.4942510000000 1.0
C      1  0.5126730000000  0.4257620000000  0.5745920000000 1.0
C      1  0.5260890000000  0.4959020000000  0.5168110000000 1.0
C      1  0.4432270000000  0.5741240000000  0.4606080000000 1.0
C      1  0.5537260000000  0.5355860000000  0.5024340000000 1.0
C      1  0.5482270000000  0.5074470000000  0.3933300000000 1.0
C      1  0.5444220000000  0.5921870000000  0.5541870000000 1.0
C      1  0.5538010000000  0.4332970000000  0.4536270000000 1.0
C      1  0.4911520000000  0.5748300000000  0.5654210000000 1.0
C      1  0.5845060000000  0.5108930000000  0.4392480000000 1.0
C      1  0.4530620000000  0.5144430000000  0.3964500000000 1.0
C      1  0.4511530000000  0.4663770000000  0.4622640000000 1.0
C      1  0.5494700000000  0.5120020000000  0.5228770000000 1.0
C      1  0.6093840000000  0.5237840000000  0.5170540000000 1.0
C      1  0.5462710000000  0.4478860000000  0.4783260000000 1.0
C      1  0.4720240000000  0.5398490000000  0.4404200000000 1.0
C      1  0.4122900000000  0.4813300000000  0.5580920000000 1.0
C      1  0.5939160000000  0.4867440000000  0.5459540000000 1.0
C      1  0.3975880000000  0.4940520000000  0.4920820000000 1.0
C      1  0.5296600000000  0.4225400000000  0.4391830000000 1.0
C      1  0.4682790000000  0.4979860000000  0.5955230000000 1.0
C      1  0.5954400000000  0.5291640000000  0.4587880000000 1.0
C      1  0.4805770000000  0.5103420000000  0.4762980000000 1.0
C      1  0.4843770000000  0.4853970000000  0.4909350000000 1.0
C      1  0.5136740000000  0.5423200000000  0.5972540000000 1.0
C      1  0.4922390000000  0.4352320000000  0.5030450000000 1.0
C      1  0.4875140000000  0.5269050000000  0.5320840000000 1.0
C      1  0.5211070000000  0.4546840000000  0.5420600000000 1.0
C      1  0.5588150000000  0.4250960000000  0.5661520000000 1.0
C      1  0.5756320000000  0.4674040000000  0.5378740000000 1.0
C      1  0.6088570000000  0.4965370000000  0.4902100000000 1.0
C      1  0.6009030000000  0.5136500000000  0.5437920000000 1.0
C      1  0.5880350000000  0.5169420000000  0.4849210000000 1.0
C      1  0.5394590000000  0.4293640000000  0.5853350000000 1.0
C      1  0.5574090000000  0.5050390000000  0.4501240000000 1.0
C      1  0.4957950000000  0.5094370000000  0.4134480000000 1.0
C      1  0.3876300000000  0.5470930000000  0.4997990000000 1.0
C      1  0.4104380000000  0.5106340000000  0.5599210000000 1.0
C      1  0.4565020000000  0.4374450000000  0.4252260000000 1.0
C      1  0.5370270000000  0.5522510000000  0.5808760000000 1.0
C      1  0.5316190000000  0.5408650000000  0.5526190000000 1.0
C      1  0.5115290000000  0.4733640000000  0.3930070000000 1.0
C      1  0.4181130000000  0.4655630000000  0.5333820000000 1.0
C      1  0.4609820000000  0.5267780000000  0.5927530000000 1.0
C      1  0.4267680000000  0.4370000000000  0.5709090000000 1.0
C      1  0.4040880000000  0.5002590000000  0.4652580000000 1.0
C      1  0.4050960000000  0.5474190000000  0.5219370000000 1.0
C      1  0.5005960000000  0.4056120000000  0.4976840000000 1.0
C      1  0.4976560000000  0.4373570000000  0.5345870000000 1.0
C      1  0.4257680000000  0.4665380000000  0.5797900000000 1.0
C      1  0.4546760000000  0.4739020000000  0.5848110000000 1.0
C      1  0.4041250000000  0.5495130000000  0.4775350000000 1.0
C      1  0.4455800000000  0.5540250000000  0.4373830000000 1.0
C      1  0.5630650000000  0.5857330000000  0.5020660000000 1.0
C      1  0.5039430000000  0.4657700000000  0.6041120000000 1.0
C      1  0.4344790000000  0.5320520000000  0.5792290000000 1.0
C      1  0.5254930000000  0.4701620000000  0.4712230000000 1.0
C      1  0.4500520000000  0.4264710000000  0.5833550000000 1.0
C      1  0.4605270000000  0.5532680000000  0.4996650000000 1.0
C      1  0.5086670000000  0.5199210000000  0.4772370000000 1.0
C      1  0.5439930000000  0.4541870000000  0.5981890000000 1.0
C      1  0.4338470000000  0.4410120000000  0.5416140000000 1.0
C      1  0.4412540000000  0.4258860000000  0.4497760000000 1.0
C      1  0.4697910000000  0.4947680000000  0.4118410000000 1.0
C      1  0.5480990000000  0.4641790000000  0.4208170000000 1.0
C      1  0.4200200000000  0.4437430000000  0.4599160000000 1.0
C      1  0.4197890000000  0.4498710000000  0.4886190000000 1.0
C      1  0.5812080000000  0.5581380000000  0.5387410000000 1.0
END
