TITL C-950526-5686-224 2.13058411571108e-06 125000 -1070.34346691334 0 0 170 (C1) n - 1
REM
REM in /home/bkarasulu/work/CARBON/AIRSS/Generating-Clusters/EDIP-Nigel-Params/with-SteepDescent/Only-C1/SD-CG/HFTN-CG
REM
REM
REM
REM
REM
REM ./C.cell (11c1c37f851c82e70ff6c80c92926a4b)
REM
REM compiler GCC version 9.2.1 20190827 (Red Hat 9.2.1-1)
REM options -cpp -mtune=generic -march=x86-64 -g -O0 -fpre-include=/usr/include/finclude/math-vector-fortran.h
REM seed 1956492675 -1643980423 658559179 1864600500 -798391727 1667511462 -150787918 -823349743 -1583928313 1050181353 1490347712 61470111 -809162054 972248608 -654699910 -832284575 621458918 -1601379639 -608193007 1447241795 -1904972203 61109252 -938280569 1303957639 1838893215 17173477 1071532373 1517394434 275805092 1172385513 -1948415361 -1265015904 -994961373
REM
CELL 1.54180   50.00000   50.00000   50.00000   90.00000   90.00000   90.00000
LATT -1
SFAC C  
C      1  0.5888040000000  0.5314800000000  0.4585260000000 1.0
C      1  0.4254090000000  0.4543220000000  0.5231100000000 1.0
C      1  0.5733350000000  0.4435950000000  0.4736740000000 1.0
C      1  0.5528410000000  0.5487100000000  0.4305050000000 1.0
C      1  0.5739600000000  0.4318500000000  0.4437980000000 1.0
C      1  0.3759280000000  0.4821930000000  0.5151100000000 1.0
C      1  0.4794920000000  0.4874810000000  0.5632310000000 1.0
C      1  0.5890710000000  0.5649690000000  0.5006280000000 1.0
C      1  0.5125560000000  0.5261220000000  0.5554260000000 1.0
C      1  0.5676460000000  0.5010230000000  0.4236650000000 1.0
C      1  0.4077930000000  0.5716250000000  0.4795670000000 1.0
C      1  0.3865330000000  0.4919750000000  0.4925030000000 1.0
C      1  0.4536120000000  0.5387320000000  0.4012180000000 1.0
C      1  0.3918360000000  0.4903510000000  0.5366510000000 1.0
C      1  0.5074780000000  0.4960760000000  0.5507820000000 1.0
C      1  0.4802100000000  0.5301740000000  0.3909990000000 1.0
C      1  0.5417910000000  0.5484070000000  0.4019130000000 1.0
C      1  0.4932530000000  0.5470450000000  0.5406000000000 1.0
C      1  0.4838130000000  0.4327590000000  0.5733690000000 1.0
C      1  0.5256410000000  0.4202420000000  0.4324410000000 1.0
C      1  0.5080920000000  0.4067590000000  0.5008270000000 1.0
C      1  0.5580960000000  0.5123250000000  0.5849310000000 1.0
C      1  0.5297610000000  0.5357320000000  0.4484230000000 1.0
C      1  0.5068850000000  0.5525220000000  0.5929540000000 1.0
C      1  0.5046420000000  0.4862110000000  0.3963960000000 1.0
C      1  0.4531430000000  0.5026000000000  0.4466970000000 1.0
C      1  0.4265640000000  0.4927270000000  0.4384000000000 1.0
C      1  0.4273890000000  0.4258200000000  0.4863280000000 1.0
C      1  0.4276700000000  0.4808310000000  0.5685900000000 1.0
C      1  0.5113930000000  0.5949070000000  0.5316380000000 1.0
C      1  0.5518640000000  0.5726450000000  0.4673360000000 1.0
C      1  0.5841990000000  0.5704180000000  0.5560010000000 1.0
C      1  0.4794330000000  0.5854180000000  0.4514540000000 1.0
C      1  0.4623210000000  0.5538400000000  0.4252320000000 1.0
C      1  0.5617470000000  0.4301890000000  0.5406280000000 1.0
C      1  0.5811030000000  0.4966430000000  0.5741450000000 1.0
C      1  0.5561620000000  0.5389520000000  0.4863600000000 1.0
C      1  0.4277060000000  0.4591580000000  0.4475940000000 1.0
C      1  0.5256470000000  0.5814590000000  0.4432260000000 1.0
C      1  0.4848530000000  0.3876370000000  0.4657190000000 1.0
C      1  0.5410920000000  0.4987300000000  0.6044550000000 1.0
C      1  0.5112770000000  0.5493130000000  0.4038050000000 1.0
C      1  0.5448060000000  0.4072850000000  0.4721210000000 1.0
C      1  0.4471910000000  0.5192020000000  0.5927600000000 1.0
C      1  0.4366630000000  0.4246830000000  0.5601900000000 1.0
C      1  0.5313150000000  0.5572900000000  0.5182340000000 1.0
C      1  0.4896820000000  0.4114860000000  0.5535640000000 1.0
C      1  0.4303930000000  0.4688790000000  0.4971440000000 1.0
C      1  0.5702990000000  0.5851030000000  0.5123530000000 1.0
C      1  0.4220220000000  0.5076010000000  0.5803380000000 1.0
C      1  0.5284530000000  0.5391510000000  0.4962650000000 1.0
C      1  0.4583830000000  0.3944240000000  0.4816300000000 1.0
C      1  0.5626700000000  0.5794610000000  0.5404510000000 1.0
C      1  0.5483520000000  0.4996780000000  0.5122690000000 1.0
C      1  0.5243990000000  0.4536840000000  0.4814750000000 1.0
C      1  0.5514660000000  0.4119930000000  0.4442980000000 1.0
C      1  0.5773880000000  0.5376880000000  0.5090670000000 1.0
C      1  0.5188090000000  0.4089120000000  0.5483000000000 1.0
C      1  0.4333240000000  0.5756090000000  0.4689070000000 1.0
C      1  0.5019210000000  0.6015060000000  0.4858960000000 1.0
C      1  0.5573610000000  0.4950020000000  0.4813600000000 1.0
C      1  0.4476260000000  0.4653750000000  0.5841460000000 1.0
C      1  0.5050840000000  0.5978690000000  0.4570720000000 1.0
C      1  0.4816880000000  0.5350190000000  0.4396830000000 1.0
C      1  0.4786450000000  0.5661300000000  0.5583130000000 1.0
C      1  0.4110290000000  0.4703680000000  0.5461340000000 1.0
C      1  0.5005440000000  0.5247950000000  0.5842200000000 1.0
C      1  0.4780930000000  0.5797910000000  0.4227800000000 1.0
C      1  0.4317770000000  0.5499460000000  0.5647770000000 1.0
C      1  0.4811800000000  0.4606460000000  0.4568300000000 1.0
C      1  0.5340500000000  0.4459400000000  0.4194530000000 1.0
C      1  0.4975990000000  0.4507410000000  0.5170390000000 1.0
C      1  0.5019170000000  0.4765150000000  0.4688270000000 1.0
C      1  0.4626980000000  0.4776420000000  0.5385170000000 1.0
C      1  0.5089710000000  0.5293990000000  0.4263820000000 1.0
C      1  0.5297850000000  0.4766640000000  0.5522700000000 1.0
C      1  0.4315640000000  0.5215870000000  0.4131080000000 1.0
C      1  0.5278950000000  0.4041990000000  0.5209020000000 1.0
C      1  0.5073600000000  0.5753260000000  0.4185650000000 1.0
C      1  0.5310230000000  0.4529640000000  0.5726740000000 1.0
C      1  0.5101510000000  0.4561080000000  0.4008540000000 1.0
C      1  0.4707710000000  0.4335640000000  0.4577240000000 1.0
C      1  0.4588390000000  0.5096910000000  0.4755420000000 1.0
C      1  0.5332140000000  0.5608420000000  0.5768510000000 1.0
C      1  0.4202360000000  0.4527610000000  0.4755280000000 1.0
C      1  0.4121000000000  0.5599050000000  0.5045790000000 1.0
C      1  0.4669910000000  0.4801300000000  0.5992670000000 1.0
C      1  0.4686880000000  0.5158760000000  0.5705280000000 1.0
C      1  0.4755620000000  0.5303250000000  0.5234150000000 1.0
C      1  0.4201410000000  0.4244020000000  0.5162950000000 1.0
C      1  0.4970930000000  0.4139420000000  0.4537620000000 1.0
C      1  0.4784500000000  0.5020250000000  0.3971850000000 1.0
C      1  0.5875010000000  0.4699440000000  0.5171350000000 1.0
C      1  0.4980120000000  0.3809910000000  0.4931090000000 1.0
C      1  0.5202870000000  0.5017360000000  0.4161520000000 1.0
C      1  0.5445460000000  0.4730730000000  0.5268230000000 1.0
C      1  0.5377170000000  0.5087630000000  0.4605000000000 1.0
C      1  0.4953020000000  0.4749180000000  0.6016810000000 1.0
C      1  0.4028560000000  0.5320200000000  0.5085660000000 1.0
C      1  0.4513170000000  0.5924530000000  0.4842780000000 1.0
C      1  0.5118770000000  0.5008830000000  0.6010950000000 1.0
C      1  0.4855450000000  0.4406020000000  0.4025280000000 1.0
C      1  0.4345950000000  0.4983510000000  0.4962320000000 1.0
C      1  0.5507190000000  0.4740220000000  0.6134520000000 1.0
C      1  0.4711870000000  0.3832670000000  0.5076210000000 1.0
C      1  0.4604480000000  0.5853250000000  0.5443500000000 1.0
C      1  0.5516870000000  0.5269540000000  0.3871660000000 1.0
C      1  0.4842090000000  0.4768490000000  0.5189250000000 1.0
C      1  0.4759330000000  0.4985380000000  0.4275500000000 1.0
C      1  0.4692720000000  0.4062200000000  0.5291370000000 1.0
C      1  0.5473700000000  0.5042650000000  0.4032510000000 1.0
C      1  0.4807440000000  0.4688240000000  0.4294400000000 1.0
C      1  0.4386460000000  0.4080010000000  0.5364900000000 1.0
C      1  0.4470380000000  0.5492840000000  0.5903380000000 1.0
C      1  0.4372380000000  0.5019420000000  0.5289540000000 1.0
C      1  0.5983360000000  0.4959060000000  0.5244930000000 1.0
C      1  0.5784040000000  0.5432660000000  0.5604670000000 1.0
C      1  0.4523190000000  0.4496270000000  0.5344220000000 1.0
C      1  0.5222340000000  0.5128220000000  0.5082660000000 1.0
C      1  0.5058970000000  0.5668370000000  0.5230560000000 1.0
C      1  0.4750660000000  0.6021460000000  0.4977220000000 1.0
C      1  0.4073580000000  0.5107180000000  0.4865890000000 1.0
C      1  0.4321890000000  0.5730900000000  0.5470930000000 1.0
C      1  0.4478510000000  0.4393300000000  0.4364190000000 1.0
C      1  0.5756040000000  0.4564530000000  0.5427640000000 1.0
C      1  0.5041730000000  0.4504830000000  0.5862940000000 1.0
C      1  0.4387400000000  0.5680670000000  0.5169690000000 1.0
C      1  0.4853440000000  0.5535350000000  0.4644160000000 1.0
C      1  0.4794790000000  0.6021490000000  0.5270280000000 1.0
C      1  0.5241430000000  0.6030970000000  0.5042280000000 1.0
C      1  0.4396180000000  0.5543750000000  0.4473470000000 1.0
C      1  0.4081420000000  0.5126670000000  0.4550420000000 1.0
C      1  0.4555920000000  0.4385720000000  0.5764260000000 1.0
C      1  0.4932380000000  0.5048450000000  0.5095000000000 1.0
C      1  0.5932730000000  0.4612410000000  0.4888280000000 1.0
C      1  0.5182670000000  0.4208940000000  0.4764460000000 1.0
C      1  0.5438080000000  0.4682730000000  0.4411570000000 1.0
C      1  0.5801900000000  0.4753590000000  0.4237150000000 1.0
C      1  0.5759470000000  0.5287000000000  0.4323210000000 1.0
C      1  0.5639560000000  0.5268650000000  0.5353510000000 1.0
C      1  0.5582960000000  0.5415480000000  0.5820430000000 1.0
C      1  0.5382810000000  0.5422020000000  0.5428340000000 1.0
C      1  0.5962360000000  0.5159030000000  0.5032840000000 1.0
C      1  0.5279450000000  0.4516410000000  0.5111240000000 1.0
C      1  0.4572470000000  0.4241310000000  0.4847580000000 1.0
C      1  0.4595880000000  0.5408600000000  0.4780920000000 1.0
C      1  0.4118950000000  0.5284840000000  0.5613360000000 1.0
C      1  0.5464780000000  0.4262830000000  0.5152240000000 1.0
C      1  0.4808690000000  0.5650930000000  0.5871610000000 1.0
C      1  0.4185870000000  0.5350490000000  0.4368170000000 1.0
C      1  0.4593580000000  0.5478250000000  0.5065360000000 1.0
C      1  0.5226700000000  0.4888140000000  0.4446390000000 1.0
C      1  0.5727240000000  0.4481460000000  0.4190660000000 1.0
C      1  0.4090240000000  0.5150690000000  0.5343570000000 1.0
C      1  0.5833310000000  0.5613850000000  0.4696970000000 1.0
C      1  0.5485350000000  0.5895020000000  0.4932300000000 1.0
C      1  0.4566250000000  0.5211870000000  0.5422530000000 1.0
C      1  0.5767010000000  0.4677460000000  0.5720790000000 1.0
C      1  0.5632090000000  0.4208490000000  0.4905640000000 1.0
C      1  0.5964570000000  0.5041080000000  0.5516700000000 1.0
C      1  0.4710770000000  0.4332890000000  0.5143630000000 1.0
C      1  0.6036280000000  0.4815700000000  0.4719980000000 1.0
C      1  0.4866680000000  0.5004100000000  0.4816630000000 1.0
C      1  0.5508990000000  0.4635910000000  0.4706780000000 1.0
C      1  0.5874550000000  0.5052890000000  0.4771800000000 1.0
C      1  0.4606070000000  0.4514440000000  0.4127510000000 1.0
C      1  0.5393250000000  0.4269200000000  0.5599840000000 1.0
C      1  0.5357270000000  0.5839960000000  0.5532980000000 1.0
C      1  0.5547210000000  0.4588280000000  0.5902790000000 1.0
C      1  0.5149210000000  0.5492060000000  0.4712070000000 1.0
END
