TITL C-950534-5965-171 3.82525479903536e-08 125000 -61.6315174999491 0 0 11 (Cs) n - 1
REM
REM in /home/bkarasulu/work/CARBON/AIRSS/Generating-Clusters/EDIP-Nigel-Params/with-SteepDescent/Only-C1/SD-CG/HFTN-CG
REM
REM
REM
REM
REM
REM ./C.cell (11c1c37f851c82e70ff6c80c92926a4b)
REM
REM compiler GCC version 9.2.1 20190827 (Red Hat 9.2.1-1)
REM options -cpp -mtune=generic -march=x86-64 -g -O0 -fpre-include=/usr/include/finclude/math-vector-fortran.h
REM seed 759426692 1059210837 -1401483048 2006826803 1571261988 226144068 -226243124 712866332 -343791898 -1953916143 658777510 712451054 1832503509 1318170825 623417282 -785137827 -576813609 1978151271 -917348820 -221483498 -708208019 1913332941 -1405700481 -2065277335 1022326637 -470778440 -1681726184 502800914 1891222099 -982331604 -113868978 69286686 -1978699033
REM
CELL 1.54180   50.00000   50.00000   50.00000   90.00000   90.00000   90.00000
LATT -1
SFAC C  
C      1  0.5216410000000  0.4649300000000  0.4973550000000 1.0
C      1  0.4790700000000  0.4834200000000  0.5178520000000 1.0
C      1  0.4573910000000  0.4652850000000  0.5202590000000 1.0
C      1  0.5393040000000  0.4975480000000  0.4875740000000 1.0
C      1  0.5051190000000  0.5315230000000  0.5034260000000 1.0
C      1  0.4827360000000  0.5479410000000  0.4975790000000 1.0
C      1  0.5446860000000  0.4707570000000  0.4831770000000 1.0
C      1  0.5120940000000  0.5073880000000  0.4890590000000 1.0
C      1  0.4519500000000  0.4910880000000  0.5146280000000 1.0
C      1  0.5073960000000  0.5576290000000  0.4925670000000 1.0
C      1  0.4986130000000  0.4824910000000  0.4965250000000 1.0
END
