TITL C-950527-2551-317 -2.18476493891463e-06 125000 -749.885674013946 0 0 120 (C1) n - 1
REM
REM in /home/bkarasulu/work/CARBON/AIRSS/Generating-Clusters/EDIP-Nigel-Params/with-SteepDescent/Only-C1/SD-CG/HFTN-CG
REM
REM
REM
REM
REM
REM ./C.cell (11c1c37f851c82e70ff6c80c92926a4b)
REM
REM compiler GCC version 9.2.1 20190827 (Red Hat 9.2.1-1)
REM options -cpp -mtune=generic -march=x86-64 -g -O0 -fpre-include=/usr/include/finclude/math-vector-fortran.h
REM seed 328156036 -2035967297 -112763523 1615521669 216135659 -651856833 1902823218 1198377674 824823055 1632772054 16695645 1309600769 -177195294 1891338989 -937845145 -658191509 585679495 -228890202 2135339078 1904279440 699136267 727827247 -1461525196 34113431 -1604873869 617555928 375952436 1658971856 1804106896 -1241140623 722056267 -1571272514 -164607306
REM
CELL 1.54180   50.00000   50.00000   50.00000   90.00000   90.00000   90.00000
LATT -1
SFAC C  
C      1  0.4722530000000  0.5286260000000  0.6077520000000 1.0
C      1  0.5921070000000  0.5053900000000  0.4493530000000 1.0
C      1  0.5553250000000  0.4189190000000  0.5376780000000 1.0
C      1  0.5073060000000  0.4314700000000  0.4476320000000 1.0
C      1  0.5531710000000  0.4727140000000  0.5736200000000 1.0
C      1  0.4974350000000  0.4778180000000  0.4115790000000 1.0
C      1  0.4156400000000  0.5706640000000  0.4648690000000 1.0
C      1  0.5269630000000  0.4620990000000  0.5870220000000 1.0
C      1  0.4721110000000  0.5484450000000  0.5876280000000 1.0
C      1  0.4728360000000  0.5080150000000  0.4912860000000 1.0
C      1  0.5114820000000  0.5194900000000  0.5087850000000 1.0
C      1  0.4229360000000  0.5308040000000  0.5281790000000 1.0
C      1  0.5396730000000  0.4143840000000  0.4822280000000 1.0
C      1  0.5302860000000  0.4951060000000  0.5453500000000 1.0
C      1  0.5779540000000  0.5170120000000  0.5352910000000 1.0
C      1  0.4981220000000  0.5572480000000  0.5759710000000 1.0
C      1  0.4741410000000  0.4667840000000  0.4256490000000 1.0
C      1  0.4712820000000  0.4848510000000  0.4695670000000 1.0
C      1  0.5555740000000  0.5706160000000  0.4566010000000 1.0
C      1  0.5210350000000  0.5889010000000  0.4851150000000 1.0
C      1  0.5723200000000  0.5343140000000  0.5106770000000 1.0
C      1  0.5117730000000  0.5328970000000  0.5643650000000 1.0
C      1  0.4287310000000  0.4793440000000  0.5555870000000 1.0
C      1  0.4340640000000  0.5289870000000  0.5558500000000 1.0
C      1  0.5179740000000  0.5303830000000  0.4802190000000 1.0
C      1  0.5719000000000  0.5149000000000  0.4876820000000 1.0
C      1  0.5518620000000  0.5209530000000  0.4649850000000 1.0
C      1  0.5010290000000  0.4922350000000  0.5420440000000 1.0
C      1  0.5177660000000  0.4397280000000  0.5685150000000 1.0
C      1  0.5782550000000  0.4548930000000  0.4856280000000 1.0
C      1  0.4509230000000  0.5511760000000  0.5665540000000 1.0
C      1  0.4025450000000  0.5264620000000  0.4667220000000 1.0
C      1  0.5770570000000  0.4593450000000  0.4358620000000 1.0
C      1  0.5533020000000  0.5585220000000  0.5083850000000 1.0
C      1  0.5718500000000  0.4819530000000  0.5260080000000 1.0
C      1  0.5230480000000  0.5125900000000  0.5851720000000 1.0
C      1  0.5508460000000  0.5045510000000  0.5774540000000 1.0
C      1  0.4952880000000  0.4674490000000  0.4691890000000 1.0
C      1  0.5291410000000  0.4480980000000  0.4385480000000 1.0
C      1  0.4461980000000  0.4318010000000  0.5431650000000 1.0
C      1  0.5441060000000  0.5723980000000  0.4835780000000 1.0
C      1  0.5015640000000  0.5843710000000  0.5050140000000 1.0
C      1  0.4554540000000  0.5579390000000  0.4407190000000 1.0
C      1  0.5379970000000  0.5648850000000  0.5329100000000 1.0
C      1  0.5639290000000  0.5265690000000  0.5595960000000 1.0
C      1  0.4800040000000  0.5510050000000  0.4011840000000 1.0
C      1  0.4987300000000  0.5053230000000  0.4004840000000 1.0
C      1  0.5069870000000  0.4187490000000  0.5256280000000 1.0
C      1  0.4095310000000  0.4808610000000  0.5345810000000 1.0
C      1  0.5427770000000  0.4919350000000  0.4230050000000 1.0
C      1  0.4770250000000  0.5609700000000  0.4866770000000 1.0
C      1  0.5348090000000  0.5181620000000  0.5273180000000 1.0
C      1  0.4875790000000  0.4656460000000  0.5428120000000 1.0
C      1  0.5515030000000  0.5398350000000  0.4212570000000 1.0
C      1  0.4501330000000  0.4633100000000  0.4765070000000 1.0
C      1  0.5067650000000  0.5550850000000  0.4400540000000 1.0
C      1  0.4601520000000  0.5356930000000  0.4902370000000 1.0
C      1  0.4808090000000  0.4861140000000  0.5871850000000 1.0
C      1  0.4565520000000  0.4914420000000  0.5104280000000 1.0
C      1  0.5343390000000  0.4054170000000  0.5253770000000 1.0
C      1  0.4575820000000  0.4361500000000  0.4665630000000 1.0
C      1  0.5615930000000  0.4324730000000  0.4720890000000 1.0
C      1  0.4637170000000  0.4223180000000  0.4930990000000 1.0
C      1  0.4762130000000  0.5232850000000  0.4023070000000 1.0
C      1  0.5492680000000  0.4716830000000  0.5432350000000 1.0
C      1  0.4077840000000  0.5064420000000  0.5190750000000 1.0
C      1  0.5202430000000  0.4859000000000  0.4675700000000 1.0
C      1  0.4792090000000  0.4426280000000  0.4447070000000 1.0
C      1  0.5608620000000  0.4878920000000  0.4972530000000 1.0
C      1  0.5764790000000  0.4336290000000  0.5300190000000 1.0
C      1  0.5369690000000  0.5631930000000  0.4333840000000 1.0
C      1  0.5475090000000  0.4923970000000  0.4523700000000 1.0
C      1  0.4637310000000  0.4109180000000  0.5497840000000 1.0
C      1  0.4637960000000  0.5025640000000  0.6036630000000 1.0
C      1  0.5805670000000  0.5566900000000  0.4546020000000 1.0
C      1  0.5380930000000  0.5397230000000  0.5485210000000 1.0
C      1  0.4628490000000  0.5695360000000  0.5473310000000 1.0
C      1  0.4708740000000  0.4644000000000  0.5160020000000 1.0
C      1  0.5987320000000  0.5119710000000  0.4759750000000 1.0
C      1  0.4911940000000  0.5743100000000  0.5527780000000 1.0
C      1  0.5299680000000  0.4871550000000  0.4967860000000 1.0
C      1  0.4750380000000  0.4609370000000  0.5713410000000 1.0
C      1  0.4417310000000  0.5783520000000  0.4571720000000 1.0
C      1  0.5103520000000  0.5747860000000  0.5302660000000 1.0
C      1  0.4931720000000  0.5200220000000  0.5432610000000 1.0
C      1  0.5118040000000  0.4165460000000  0.4725990000000 1.0
C      1  0.5753490000000  0.4800870000000  0.4561220000000 1.0
C      1  0.4217410000000  0.5176400000000  0.4485130000000 1.0
C      1  0.5093950000000  0.4874980000000  0.5924060000000 1.0
C      1  0.4453380000000  0.4548850000000  0.5631640000000 1.0
C      1  0.5064290000000  0.5243380000000  0.4338310000000 1.0
C      1  0.5125990000000  0.4469400000000  0.5393240000000 1.0
C      1  0.5048180000000  0.5569070000000  0.4713030000000 1.0
C      1  0.4371740000000  0.5011740000000  0.5973750000000 1.0
C      1  0.4526540000000  0.4872640000000  0.4295480000000 1.0
C      1  0.4329470000000  0.5466480000000  0.5024540000000 1.0
C      1  0.4390060000000  0.5345120000000  0.4314380000000 1.0
C      1  0.4478500000000  0.5850890000000  0.5302150000000 1.0
C      1  0.4549440000000  0.5141020000000  0.4186140000000 1.0
C      1  0.4941440000000  0.4251890000000  0.4961780000000 1.0
C      1  0.4807730000000  0.5645900000000  0.4258410000000 1.0
C      1  0.5057360000000  0.5112650000000  0.4615950000000 1.0
C      1  0.5431880000000  0.3943400000000  0.5016160000000 1.0
C      1  0.5245580000000  0.4689490000000  0.4187490000000 1.0
C      1  0.4274200000000  0.4908010000000  0.5015830000000 1.0
C      1  0.4882480000000  0.4041040000000  0.5414730000000 1.0
C      1  0.4287840000000  0.5041740000000  0.5710670000000 1.0
C      1  0.5318670000000  0.5180970000000  0.4154870000000 1.0
C      1  0.4514780000000  0.4411790000000  0.5148330000000 1.0
C      1  0.5848110000000  0.4558160000000  0.5154150000000 1.0
C      1  0.4108680000000  0.5485450000000  0.4813620000000 1.0
C      1  0.5209960000000  0.4624100000000  0.5104860000000 1.0
C      1  0.4564570000000  0.5836370000000  0.4824310000000 1.0
C      1  0.4953370000000  0.4555950000000  0.4970100000000 1.0
C      1  0.4235600000000  0.4720750000000  0.4679020000000 1.0
C      1  0.4382530000000  0.5769810000000  0.5056240000000 1.0
C      1  0.5566680000000  0.4415830000000  0.4448250000000 1.0
C      1  0.5714040000000  0.5314340000000  0.4432440000000 1.0
C      1  0.4278230000000  0.4894220000000  0.4454030000000 1.0
C      1  0.4938100000000  0.4411870000000  0.5835030000000 1.0
END
