TITL C-951346-9544-527 3.65449878042024e-07 125000 -135.380189100098 0 0 23 (C1) n - 1
REM
REM in /home/bkarasulu/work/CARBON/AIRSS/Generating-Clusters/EDIP-Nigel-Params/with-SteepDescent/Only-C1/SD-CG/HFTN-CG
REM
REM
REM
REM
REM
REM ./C.cell (11c1c37f851c82e70ff6c80c92926a4b)
REM
REM compiler GCC version 9.2.1 20190827 (Red Hat 9.2.1-1)
REM options -cpp -mtune=generic -march=x86-64 -g -O0 -fpre-include=/usr/include/finclude/math-vector-fortran.h
REM seed 532278621 -1212826988 -411858642 225746903 -307395268 -1330851661 369770375 -1346113155 121195777 1246628052 -2088717693 1035203321 -767056013 -26543331 1320254929 -264002589 496325552 -942485168 859182303 2063472572 -545155741 1077138903 -1122654717 -909645322 178572174 1556564444 -388907729 1413161552 -514742708 955737043 686165571 811117754 936198557
REM
CELL 1.54180   50.00000   50.00000   50.00000   90.00000   90.00000   90.00000
LATT -1
SFAC C  
C      1  0.4909810000000  0.5479020000000  0.4532120000000 1.0
C      1  0.5438520000000  0.5134150000000  0.4880890000000 1.0
C      1  0.5492690000000  0.4862790000000  0.4924620000000 1.0
C      1  0.5278280000000  0.5166190000000  0.4642140000000 1.0
C      1  0.4901950000000  0.4924860000000  0.5470190000000 1.0
C      1  0.5165360000000  0.5407110000000  0.4564240000000 1.0
C      1  0.5370450000000  0.4629470000000  0.4857900000000 1.0
C      1  0.4840640000000  0.4998170000000  0.4965040000000 1.0
C      1  0.4693050000000  0.5369210000000  0.4642720000000 1.0
C      1  0.4650330000000  0.4620590000000  0.5202510000000 1.0
C      1  0.5381450000000  0.5292400000000  0.5104120000000 1.0
C      1  0.5148570000000  0.4699290000000  0.4695490000000 1.0
C      1  0.5185060000000  0.5233740000000  0.5293110000000 1.0
C      1  0.5235070000000  0.5202810000000  0.5568210000000 1.0
C      1  0.5067970000000  0.5013190000000  0.5678880000000 1.0
C      1  0.4981740000000  0.5044280000000  0.5226430000000 1.0
C      1  0.5196590000000  0.4923660000000  0.4529820000000 1.0
C      1  0.4480440000000  0.4815820000000  0.5095370000000 1.0
C      1  0.4756370000000  0.4688150000000  0.5453900000000 1.0
C      1  0.4452100000000  0.5040270000000  0.4937140000000 1.0
C      1  0.4892680000000  0.4719370000000  0.4842990000000 1.0
C      1  0.4825590000000  0.4505790000000  0.5014710000000 1.0
C      1  0.4655290000000  0.5229670000000  0.4877470000000 1.0
END
