TITL C-951338-5626-159 6.21698370321101e-05 125000 -179.22797601656 0 0 31 (C1) n - 1
REM
REM in /home/bkarasulu/work/CARBON/AIRSS/Generating-Clusters/EDIP-Nigel-Params/with-SteepDescent/Only-C1/SD-CG/HFTN-CG
REM
REM
REM
REM
REM
REM ./C.cell (11c1c37f851c82e70ff6c80c92926a4b)
REM
REM compiler GCC version 9.2.1 20190827 (Red Hat 9.2.1-1)
REM options -cpp -mtune=generic -march=x86-64 -g -O0 -fpre-include=/usr/include/finclude/math-vector-fortran.h
REM seed 1570402378 1156825563 -1436468729 -1199019435 1746103249 715540693 -1259377816 -1235342802 -1467198300 1332316410 -1623525898 -880013106 121604656 -1398809083 -1146882350 -2086423932 1096117946 -1472300811 -344252915 -2070780104 -1747278607 1564567454 367881533 161982517 -1126246923 958081073 -1858030026 1776346917 -1648953813 -1920983527 1585814601 1713356248 -332599013
REM
CELL 1.54180   50.00000   50.00000   50.00000   90.00000   90.00000   90.00000
LATT -1
SFAC C  
C      1  0.4788910000000  0.4614290000000  0.5048430000000 1.0
C      1  0.5428460000000  0.5279980000000  0.5250660000000 1.0
C      1  0.4747930000000  0.4456960000000  0.4826000000000 1.0
C      1  0.4491370000000  0.5083470000000  0.5035790000000 1.0
C      1  0.4790990000000  0.5602060000000  0.4781680000000 1.0
C      1  0.5046140000000  0.5578000000000  0.4673540000000 1.0
C      1  0.5746540000000  0.4834670000000  0.4848090000000 1.0
C      1  0.5260400000000  0.4738630000000  0.4869740000000 1.0
C      1  0.5798040000000  0.4954580000000  0.5092660000000 1.0
C      1  0.5528750000000  0.4711120000000  0.4965530000000 1.0
C      1  0.5055310000000  0.4803100000000  0.5575430000000 1.0
C      1  0.5071800000000  0.5076030000000  0.5467870000000 1.0
C      1  0.4942610000000  0.4614990000000  0.4401780000000 1.0
C      1  0.4385180000000  0.4879870000000  0.5167100000000 1.0
C      1  0.4760080000000  0.4500400000000  0.5312490000000 1.0
C      1  0.4563340000000  0.5604800000000  0.4621510000000 1.0
C      1  0.4799980000000  0.4658820000000  0.5547390000000 1.0
C      1  0.4361900000000  0.5447340000000  0.4707150000000 1.0
C      1  0.5192640000000  0.5420320000000  0.4836920000000 1.0
C      1  0.4987090000000  0.4879000000000  0.4472720000000 1.0
C      1  0.5043480000000  0.4773840000000  0.5077730000000 1.0
C      1  0.4797410000000  0.4449800000000  0.4564900000000 1.0
C      1  0.5320900000000  0.5202220000000  0.5498570000000 1.0
C      1  0.5006460000000  0.5074430000000  0.5172420000000 1.0
C      1  0.5228190000000  0.5237730000000  0.5045610000000 1.0
C      1  0.4760950000000  0.5464110000000  0.5020120000000 1.0
C      1  0.5124500000000  0.4628150000000  0.5334710000000 1.0
C      1  0.4738570000000  0.5205740000000  0.5119280000000 1.0
C      1  0.5681070000000  0.5184220000000  0.5188930000000 1.0
C      1  0.5222880000000  0.4792800000000  0.4590660000000 1.0
C      1  0.4328130000000  0.5248530000000  0.4884570000000 1.0
END
