TITL C-951347-9520-256 4.39153682197778e-06 125000 -608.033464143094 0 0 99 (C1) n - 1
REM
REM in /home/bkarasulu/work/CARBON/AIRSS/Generating-Clusters/EDIP-Nigel-Params/with-SteepDescent/Only-C1/SD-CG/HFTN-CG
REM
REM
REM
REM
REM
REM ./C.cell (11c1c37f851c82e70ff6c80c92926a4b)
REM
REM compiler GCC version 9.2.1 20190827 (Red Hat 9.2.1-1)
REM options -cpp -mtune=generic -march=x86-64 -g -O0 -fpre-include=/usr/include/finclude/math-vector-fortran.h
REM seed -1994904187 354674439 -212746781 1983596620 171723820 -1008136250 1443216300 1048999926 1650689945 -2079935557 -219023388 1046353880 -746268305 -1447020610 -644347394 552140310 -726300767 1952791543 -1762064787 -84932651 -537879720 470342959 -1821187026 1173377860 -1415138741 593713332 409694126 504104716 1870348889 -1286332716 -368717937 -1949527863 -76043466
REM
CELL 1.54180   50.00000   50.00000   50.00000   90.00000   90.00000   90.00000
LATT -1
SFAC C  
C      1  0.5403630000000  0.4395420000000  0.5429240000000 1.0
C      1  0.5868270000000  0.5334800000000  0.4464770000000 1.0
C      1  0.4826190000000  0.4686430000000  0.5383130000000 1.0
C      1  0.4565000000000  0.4332510000000  0.4711630000000 1.0
C      1  0.4645190000000  0.4138390000000  0.5035690000000 1.0
C      1  0.4762340000000  0.5300910000000  0.5204980000000 1.0
C      1  0.4714900000000  0.4670270000000  0.4257260000000 1.0
C      1  0.5262410000000  0.5710630000000  0.5276690000000 1.0
C      1  0.5935440000000  0.5401400000000  0.5037030000000 1.0
C      1  0.4402740000000  0.5327900000000  0.4485710000000 1.0
C      1  0.5522770000000  0.5696150000000  0.4546130000000 1.0
C      1  0.5408960000000  0.5322530000000  0.5599400000000 1.0
C      1  0.5190420000000  0.5314350000000  0.4942600000000 1.0
C      1  0.5568710000000  0.4625590000000  0.5501820000000 1.0
C      1  0.5019380000000  0.5766590000000  0.5448790000000 1.0
C      1  0.4082770000000  0.4919060000000  0.4764360000000 1.0
C      1  0.4699150000000  0.4250710000000  0.5662660000000 1.0
C      1  0.5399170000000  0.5013440000000  0.4268060000000 1.0
C      1  0.5162250000000  0.4842500000000  0.4208950000000 1.0
C      1  0.4160180000000  0.4648540000000  0.4784670000000 1.0
C      1  0.5162030000000  0.4313640000000  0.5543980000000 1.0
C      1  0.4824520000000  0.5768040000000  0.4672040000000 1.0
C      1  0.5436960000000  0.4402500000000  0.5144160000000 1.0
C      1  0.5423790000000  0.5478730000000  0.5350330000000 1.0
C      1  0.4639400000000  0.4575150000000  0.5154270000000 1.0
C      1  0.5216540000000  0.4986330000000  0.5551020000000 1.0
C      1  0.4210640000000  0.4320610000000  0.5155520000000 1.0
C      1  0.4873850000000  0.4967890000000  0.4851420000000 1.0
C      1  0.4465930000000  0.5404550000000  0.4764130000000 1.0
C      1  0.4551740000000  0.5612580000000  0.5489420000000 1.0
C      1  0.4911790000000  0.4491550000000  0.5061630000000 1.0
C      1  0.4455220000000  0.5345890000000  0.5271750000000 1.0
C      1  0.5036990000000  0.4496310000000  0.4799080000000 1.0
C      1  0.4871160000000  0.4084210000000  0.5217230000000 1.0
C      1  0.5673290000000  0.5459400000000  0.4941760000000 1.0
C      1  0.5789380000000  0.5092640000000  0.4583630000000 1.0
C      1  0.5165410000000  0.4939210000000  0.5258160000000 1.0
C      1  0.5210640000000  0.5295530000000  0.4625150000000 1.0
C      1  0.5146510000000  0.5421780000000  0.4163850000000 1.0
C      1  0.5856290000000  0.4969590000000  0.4845650000000 1.0
C      1  0.4904640000000  0.5143850000000  0.5935460000000 1.0
C      1  0.5116690000000  0.4049180000000  0.5084150000000 1.0
C      1  0.5476130000000  0.4852030000000  0.5653630000000 1.0
C      1  0.4985100000000  0.5121570000000  0.5080650000000 1.0
C      1  0.4499330000000  0.4976570000000  0.5619440000000 1.0
C      1  0.5708950000000  0.4719450000000  0.4867270000000 1.0
C      1  0.5318610000000  0.4988530000000  0.4771020000000 1.0
C      1  0.5405470000000  0.5303360000000  0.4230710000000 1.0
C      1  0.4671570000000  0.5296250000000  0.5879440000000 1.0
C      1  0.4317200000000  0.5306240000000  0.4994570000000 1.0
C      1  0.5620940000000  0.5454630000000  0.4389880000000 1.0
C      1  0.4842110000000  0.4352160000000  0.4614190000000 1.0
C      1  0.4076390000000  0.4530080000000  0.5030510000000 1.0
C      1  0.4745580000000  0.5772140000000  0.5318180000000 1.0
C      1  0.5642200000000  0.4603850000000  0.5120190000000 1.0
C      1  0.4321770000000  0.5124850000000  0.5436310000000 1.0
C      1  0.5569570000000  0.4680390000000  0.4610730000000 1.0
C      1  0.4654200000000  0.4517560000000  0.5745520000000 1.0
C      1  0.5236480000000  0.5610910000000  0.4556110000000 1.0
C      1  0.4493930000000  0.4322240000000  0.5193470000000 1.0
C      1  0.5605160000000  0.4915310000000  0.4448860000000 1.0
C      1  0.4471710000000  0.4720430000000  0.4406770000000 1.0
C      1  0.4372430000000  0.4980680000000  0.4328800000000 1.0
C      1  0.4625330000000  0.5641260000000  0.4847320000000 1.0
C      1  0.4961310000000  0.4942480000000  0.5722480000000 1.0
C      1  0.5083050000000  0.5665550000000  0.4307400000000 1.0
C      1  0.5464550000000  0.5326280000000  0.5101970000000 1.0
C      1  0.4709050000000  0.5535630000000  0.5733540000000 1.0
C      1  0.4615160000000  0.5346780000000  0.4281440000000 1.0
C      1  0.4989880000000  0.5587490000000  0.5677110000000 1.0
C      1  0.5077980000000  0.4798430000000  0.4742670000000 1.0
C      1  0.4250980000000  0.4653280000000  0.5354130000000 1.0
C      1  0.4591050000000  0.5084470000000  0.4153050000000 1.0
C      1  0.5094640000000  0.5716730000000  0.4789140000000 1.0
C      1  0.5421760000000  0.4972120000000  0.5090470000000 1.0
C      1  0.4765640000000  0.4973520000000  0.5500040000000 1.0
C      1  0.4441130000000  0.4684470000000  0.5600740000000 1.0
C      1  0.5912900000000  0.5121670000000  0.5094650000000 1.0
C      1  0.5580680000000  0.5723740000000  0.4847150000000 1.0
C      1  0.5211150000000  0.5438680000000  0.5802390000000 1.0
C      1  0.4894970000000  0.4666260000000  0.5797260000000 1.0
C      1  0.5371810000000  0.4482770000000  0.4525930000000 1.0
C      1  0.5178780000000  0.4560560000000  0.4308040000000 1.0
C      1  0.4885020000000  0.5287510000000  0.4411140000000 1.0
C      1  0.5729900000000  0.5040560000000  0.5310460000000 1.0
C      1  0.4206670000000  0.5039120000000  0.4988770000000 1.0
C      1  0.4796920000000  0.5587750000000  0.5089950000000 1.0
C      1  0.5317920000000  0.4207370000000  0.4970470000000 1.0
C      1  0.4893250000000  0.4292030000000  0.5449850000000 1.0
C      1  0.4188390000000  0.4932240000000  0.5260220000000 1.0
C      1  0.4817010000000  0.5723870000000  0.4388940000000 1.0
C      1  0.4393160000000  0.4556240000000  0.4633740000000 1.0
C      1  0.5636300000000  0.5097270000000  0.5586620000000 1.0
C      1  0.4859800000000  0.4914860000000  0.4176940000000 1.0
C      1  0.4897490000000  0.4454270000000  0.4338190000000 1.0
C      1  0.5132380000000  0.5281930000000  0.6020180000000 1.0
C      1  0.4806860000000  0.5144730000000  0.4649940000000 1.0
C      1  0.5304000000000  0.5801290000000  0.4985580000000 1.0
C      1  0.5315050000000  0.4250240000000  0.4688500000000 1.0
END
