TITL C-951346-9544-744 1.08246445078103e-06 125000 -203.812499452187 0 0 34 (C1) n - 1
REM
REM in /home/bkarasulu/work/CARBON/AIRSS/Generating-Clusters/EDIP-Nigel-Params/with-SteepDescent/Only-C1/SD-CG/HFTN-CG
REM
REM
REM
REM
REM
REM ./C.cell (11c1c37f851c82e70ff6c80c92926a4b)
REM
REM compiler GCC version 9.2.1 20190827 (Red Hat 9.2.1-1)
REM options -cpp -mtune=generic -march=x86-64 -g -O0 -fpre-include=/usr/include/finclude/math-vector-fortran.h
REM seed 1121740418 1767390850 635037149 873530582 522595152 1998851087 84302398 1789590331 -1400570070 381733347 -1838250635 2106888886 1816488572 1166973537 1927047567 445216846 957213085 52808841 1791426138 197677551 -572240788 356504966 904323847 285618280 1476782524 -685685404 -387858148 1451287865 -1879085992 157191378 -2128002670 -2033129058 310782961
REM
CELL 1.54180   50.00000   50.00000   50.00000   90.00000   90.00000   90.00000
LATT -1
SFAC C  
C      1  0.4823300000000  0.4527350000000  0.4958780000000 1.0
C      1  0.5129840000000  0.4914570000000  0.5650270000000 1.0
C      1  0.5343190000000  0.5176130000000  0.4668370000000 1.0
C      1  0.4987270000000  0.4989820000000  0.5049260000000 1.0
C      1  0.4875640000000  0.4558470000000  0.5420860000000 1.0
C      1  0.5481660000000  0.4958970000000  0.5238000000000 1.0
C      1  0.4982700000000  0.5229020000000  0.4414450000000 1.0
C      1  0.5306930000000  0.4604410000000  0.4993800000000 1.0
C      1  0.4978500000000  0.5123320000000  0.5538160000000 1.0
C      1  0.5256870000000  0.5295670000000  0.4428690000000 1.0
C      1  0.5247010000000  0.5143830000000  0.5157070000000 1.0
C      1  0.5514580000000  0.4944810000000  0.4662330000000 1.0
C      1  0.5021940000000  0.4761230000000  0.4620540000000 1.0
C      1  0.4461640000000  0.4694990000000  0.5203940000000 1.0
C      1  0.5036230000000  0.4712080000000  0.4902080000000 1.0
C      1  0.5121850000000  0.5327210000000  0.5375950000000 1.0
C      1  0.5284580000000  0.5318590000000  0.4914080000000 1.0
C      1  0.4676810000000  0.4759340000000  0.5384630000000 1.0
C      1  0.4448880000000  0.4759090000000  0.4768630000000 1.0
C      1  0.4807440000000  0.5425710000000  0.4522410000000 1.0
C      1  0.4915680000000  0.5616960000000  0.4699530000000 1.0
C      1  0.4392410000000  0.4974320000000  0.4948480000000 1.0
C      1  0.4901020000000  0.5466840000000  0.5211920000000 1.0
C      1  0.4546090000000  0.4565160000000  0.4956940000000 1.0
C      1  0.5667740000000  0.4923330000000  0.5020020000000 1.0
C      1  0.5552250000000  0.4717790000000  0.4846580000000 1.0
C      1  0.5000810000000  0.5440920000000  0.4919880000000 1.0
C      1  0.5347670000000  0.4695150000000  0.5276500000000 1.0
C      1  0.5113350000000  0.4710270000000  0.5455190000000 1.0
C      1  0.4922410000000  0.4963030000000  0.4472200000000 1.0
C      1  0.4802810000000  0.5023540000000  0.5309290000000 1.0
C      1  0.4837570000000  0.5186270000000  0.4830010000000 1.0
C      1  0.4560580000000  0.5210290000000  0.4954530000000 1.0
C      1  0.4652760000000  0.5281520000000  0.5226670000000 1.0
END
