TITL C-951334-9093-599 -4.66818268655403e-06 125000 -887.784484982803 0 0 143 (C1) n - 1
REM
REM in /home/bkarasulu/work/CARBON/AIRSS/Generating-Clusters/EDIP-Nigel-Params/with-SteepDescent/Only-C1/SD-CG/HFTN-CG
REM
REM
REM
REM
REM
REM ./C.cell (11c1c37f851c82e70ff6c80c92926a4b)
REM
REM compiler GCC version 9.2.1 20190827 (Red Hat 9.2.1-1)
REM options -cpp -mtune=generic -march=x86-64 -g -O0 -fpre-include=/usr/include/finclude/math-vector-fortran.h
REM seed -467600326 -1597365691 -648003515 -166238422 1965117827 -1140544594 -193745633 1144772017 1724158704 -872149845 -1676015094 -1221330144 -2012189218 -474135175 -180927812 -1897335138 1379871051 104198005 289314899 572281449 -2048968207 -709621012 663851794 1177845377 944781903 -1344529229 -1344989877 1824786044 -1013494389 -42634589 -1800166775 -948924510 2112654042
REM
CELL 1.54180   50.00000   50.00000   50.00000   90.00000   90.00000   90.00000
LATT -1
SFAC C  
C      1  0.5178080000000  0.5711580000000  0.5724340000000 1.0
C      1  0.4599210000000  0.4176050000000  0.5377000000000 1.0
C      1  0.5623050000000  0.5438640000000  0.5420770000000 1.0
C      1  0.4634360000000  0.5712890000000  0.4428460000000 1.0
C      1  0.5078170000000  0.4327230000000  0.4921760000000 1.0
C      1  0.5030950000000  0.5971960000000  0.4550140000000 1.0
C      1  0.4950650000000  0.4424280000000  0.4015600000000 1.0
C      1  0.5437880000000  0.4232170000000  0.4557380000000 1.0
C      1  0.4385300000000  0.4970610000000  0.5649000000000 1.0
C      1  0.6047800000000  0.5259990000000  0.4882720000000 1.0
C      1  0.5100630000000  0.5193840000000  0.5099180000000 1.0
C      1  0.4270370000000  0.4529000000000  0.5384270000000 1.0
C      1  0.5780920000000  0.4564400000000  0.4743920000000 1.0
C      1  0.4584070000000  0.5372730000000  0.5820010000000 1.0
C      1  0.5508320000000  0.5104680000000  0.4956680000000 1.0
C      1  0.4538870000000  0.5161640000000  0.4266600000000 1.0
C      1  0.4629160000000  0.4551210000000  0.5705510000000 1.0
C      1  0.4132720000000  0.4530520000000  0.4902540000000 1.0
C      1  0.4090230000000  0.5245020000000  0.5454510000000 1.0
C      1  0.4219690000000  0.5520480000000  0.5018490000000 1.0
C      1  0.5976310000000  0.4586600000000  0.5182110000000 1.0
C      1  0.4727140000000  0.5363380000000  0.4752750000000 1.0
C      1  0.4700710000000  0.5634180000000  0.5803730000000 1.0
C      1  0.5574850000000  0.3986500000000  0.4980740000000 1.0
C      1  0.4675990000000  0.4399500000000  0.4158200000000 1.0
C      1  0.5273070000000  0.5815570000000  0.4513410000000 1.0
C      1  0.4348890000000  0.4460060000000  0.5105050000000 1.0
C      1  0.4642930000000  0.6093670000000  0.5371780000000 1.0
C      1  0.4950870000000  0.4718950000000  0.4567030000000 1.0
C      1  0.4614990000000  0.4668330000000  0.4289860000000 1.0
C      1  0.4662290000000  0.5939360000000  0.4873480000000 1.0
C      1  0.5194420000000  0.4813710000000  0.5813410000000 1.0
C      1  0.4821940000000  0.5910220000000  0.4377140000000 1.0
C      1  0.5276520000000  0.5592260000000  0.4315300000000 1.0
C      1  0.5507590000000  0.5249240000000  0.4053320000000 1.0
C      1  0.4220510000000  0.4554070000000  0.4620610000000 1.0
C      1  0.4874550000000  0.4078020000000  0.5468610000000 1.0
C      1  0.5024790000000  0.5238610000000  0.4108210000000 1.0
C      1  0.5843050000000  0.4424500000000  0.4991260000000 1.0
C      1  0.5049510000000  0.5338180000000  0.5516250000000 1.0
C      1  0.4966370000000  0.4063050000000  0.4985140000000 1.0
C      1  0.4923020000000  0.4406270000000  0.4681370000000 1.0
C      1  0.4448860000000  0.4363040000000  0.5559330000000 1.0
C      1  0.4522590000000  0.4943020000000  0.4839910000000 1.0
C      1  0.5666320000000  0.5643560000000  0.4698360000000 1.0
C      1  0.4896990000000  0.5808080000000  0.5704830000000 1.0
C      1  0.4376470000000  0.5650330000000  0.5411610000000 1.0
C      1  0.4510780000000  0.5746190000000  0.4692680000000 1.0
C      1  0.5305400000000  0.5036320000000  0.5309410000000 1.0
C      1  0.4674900000000  0.4172710000000  0.4346830000000 1.0
C      1  0.4477450000000  0.5367710000000  0.5046270000000 1.0
C      1  0.4464560000000  0.4348140000000  0.4542480000000 1.0
C      1  0.4886440000000  0.5094880000000  0.5535190000000 1.0
C      1  0.5461560000000  0.5998430000000  0.4934570000000 1.0
C      1  0.3964630000000  0.4741910000000  0.4978570000000 1.0
C      1  0.4247340000000  0.5590940000000  0.4738780000000 1.0
C      1  0.5577590000000  0.5742030000000  0.5387650000000 1.0
C      1  0.4437700000000  0.5084540000000  0.5089240000000 1.0
C      1  0.4858150000000  0.4814840000000  0.4202100000000 1.0
C      1  0.4581190000000  0.5454800000000  0.5307650000000 1.0
C      1  0.5052490000000  0.5385290000000  0.4357720000000 1.0
C      1  0.4222950000000  0.4842540000000  0.4531120000000 1.0
C      1  0.5165890000000  0.5169320000000  0.4597030000000 1.0
C      1  0.5099650000000  0.4537830000000  0.5121710000000 1.0
C      1  0.5686830000000  0.4794920000000  0.5764450000000 1.0
C      1  0.4783630000000  0.5081300000000  0.4128760000000 1.0
C      1  0.5557020000000  0.4711930000000  0.4372810000000 1.0
C      1  0.4842920000000  0.4421930000000  0.5867440000000 1.0
C      1  0.4505270000000  0.4785870000000  0.5850100000000 1.0
C      1  0.4866210000000  0.5939900000000  0.5443360000000 1.0
C      1  0.5254350000000  0.3806680000000  0.4685250000000 1.0
C      1  0.4602770000000  0.5201570000000  0.5556310000000 1.0
C      1  0.5079370000000  0.3980860000000  0.5254390000000 1.0
C      1  0.5723830000000  0.4969540000000  0.4462810000000 1.0
C      1  0.5313930000000  0.5839040000000  0.5492620000000 1.0
C      1  0.4739130000000  0.4902270000000  0.5990770000000 1.0
C      1  0.5066310000000  0.4466210000000  0.5425220000000 1.0
C      1  0.4550290000000  0.4129760000000  0.4852830000000 1.0
C      1  0.5394560000000  0.5536440000000  0.4834190000000 1.0
C      1  0.5918220000000  0.5441960000000  0.5047800000000 1.0
C      1  0.5444250000000  0.4681960000000  0.5848810000000 1.0
C      1  0.4779560000000  0.5205420000000  0.5992820000000 1.0
C      1  0.5848820000000  0.5698610000000  0.4932600000000 1.0
C      1  0.4642570000000  0.4389060000000  0.4775170000000 1.0
C      1  0.4414760000000  0.4889870000000  0.4319010000000 1.0
C      1  0.5708960000000  0.5026490000000  0.5595950000000 1.0
C      1  0.4256380000000  0.5467810000000  0.5613900000000 1.0
C      1  0.5189560000000  0.4418810000000  0.4189380000000 1.0
C      1  0.5424310000000  0.5272830000000  0.4721260000000 1.0
C      1  0.5469230000000  0.5220270000000  0.5551790000000 1.0
C      1  0.5343030000000  0.5589680000000  0.5130140000000 1.0
C      1  0.4753310000000  0.5442350000000  0.4445060000000 1.0
C      1  0.4826010000000  0.5569160000000  0.5207510000000 1.0
C      1  0.5216440000000  0.4859990000000  0.4611540000000 1.0
C      1  0.4819870000000  0.4883960000000  0.4813740000000 1.0
C      1  0.5366190000000  0.4101670000000  0.5286700000000 1.0
C      1  0.5676140000000  0.5873080000000  0.5112860000000 1.0
C      1  0.5710050000000  0.4956360000000  0.5296020000000 1.0
C      1  0.4796460000000  0.4664880000000  0.5481700000000 1.0
C      1  0.5390990000000  0.4625470000000  0.4138720000000 1.0
C      1  0.5605330000000  0.4665880000000  0.5265450000000 1.0
C      1  0.5695380000000  0.4203710000000  0.5103900000000 1.0
C      1  0.4173890000000  0.5030630000000  0.5224760000000 1.0
C      1  0.5126290000000  0.5978840000000  0.5317990000000 1.0
C      1  0.5612750000000  0.4470290000000  0.4534770000000 1.0
C      1  0.5560980000000  0.4516910000000  0.5524700000000 1.0
C      1  0.5327840000000  0.4873120000000  0.4898660000000 1.0
C      1  0.4069730000000  0.5073730000000  0.4655960000000 1.0
C      1  0.5272570000000  0.5097180000000  0.4050410000000 1.0
C      1  0.3955320000000  0.5012550000000  0.4920010000000 1.0
C      1  0.4498220000000  0.5170200000000  0.4651310000000 1.0
C      1  0.5047590000000  0.5303660000000  0.5983410000000 1.0
C      1  0.5339210000000  0.4325170000000  0.5483610000000 1.0
C      1  0.5103950000000  0.4883100000000  0.5528720000000 1.0
C      1  0.5520480000000  0.5911210000000  0.4643400000000 1.0
C      1  0.5207440000000  0.5408420000000  0.5763010000000 1.0
C      1  0.4196190000000  0.5730460000000  0.5207030000000 1.0
C      1  0.4951220000000  0.4147440000000  0.4502670000000 1.0
C      1  0.4957680000000  0.5164070000000  0.4826170000000 1.0
C      1  0.5217170000000  0.4202410000000  0.4368760000000 1.0
C      1  0.4980080000000  0.4215110000000  0.5709490000000 1.0
C      1  0.5175020000000  0.5979350000000  0.5027380000000 1.0
C      1  0.4969130000000  0.4697130000000  0.5977690000000 1.0
C      1  0.5532070000000  0.5433000000000  0.4265390000000 1.0
C      1  0.4166430000000  0.5349630000000  0.4583720000000 1.0
C      1  0.5648590000000  0.5299180000000  0.4513030000000 1.0
C      1  0.5854060000000  0.4841140000000  0.4698500000000 1.0
C      1  0.4879800000000  0.4730700000000  0.5053860000000 1.0
C      1  0.5258500000000  0.4818010000000  0.3954440000000 1.0
C      1  0.5984860000000  0.4877410000000  0.5178760000000 1.0
C      1  0.4652740000000  0.4677810000000  0.5216700000000 1.0
C      1  0.5082100000000  0.5444740000000  0.5237330000000 1.0
C      1  0.5467720000000  0.3987020000000  0.4717260000000 1.0
C      1  0.4286310000000  0.4822590000000  0.5413530000000 1.0
C      1  0.6013820000000  0.4982790000000  0.4899840000000 1.0
C      1  0.4443070000000  0.4177890000000  0.5113510000000 1.0
C      1  0.4137540000000  0.5117490000000  0.5721720000000 1.0
C      1  0.4951180000000  0.6004370000000  0.4828260000000 1.0
C      1  0.5650150000000  0.5352740000000  0.5140090000000 1.0
C      1  0.5361900000000  0.4661920000000  0.5082850000000 1.0
C      1  0.4567070000000  0.6015260000000  0.5124190000000 1.0
C      1  0.4973000000000  0.4714300000000  0.3940350000000 1.0
C      1  0.4993460000000  0.3913920000000  0.4712900000000 1.0
END
