TITL C-950536-5891-174 -1.55658050078834e-06 125000 -331.894874504372 0 0 55 (C1) n - 1
REM
REM in /home/bkarasulu/work/CARBON/AIRSS/Generating-Clusters/EDIP-Nigel-Params/with-SteepDescent/Only-C1/SD-CG/HFTN-CG
REM
REM
REM
REM
REM
REM ./C.cell (11c1c37f851c82e70ff6c80c92926a4b)
REM
REM compiler GCC version 9.2.1 20190827 (Red Hat 9.2.1-1)
REM options -cpp -mtune=generic -march=x86-64 -g -O0 -fpre-include=/usr/include/finclude/math-vector-fortran.h
REM seed 1632921715 915104169 -316970631 -480635399 1118529524 256653661 1283380994 -678219992 75770832 -543751727 945311735 -481072346 -526799292 1614241698 1878942435 608261772 1508474838 -433482411 1329758550 -1443985486 253712266 887450382 914158839 1227790283 81152116 782168392 127825753 -886380543 -1323785876 -1570980730 -1460954227 -352108852 -821240894
REM
CELL 1.54180   50.00000   50.00000   50.00000   90.00000   90.00000   90.00000
LATT -1
SFAC C  
C      1  0.4291850000000  0.4820200000000  0.4908180000000 1.0
C      1  0.4636370000000  0.5071120000000  0.4384450000000 1.0
C      1  0.5183500000000  0.4438720000000  0.5388290000000 1.0
C      1  0.5268270000000  0.4835300000000  0.5681220000000 1.0
C      1  0.5149920000000  0.5049180000000  0.5811450000000 1.0
C      1  0.4928130000000  0.5221710000000  0.4316060000000 1.0
C      1  0.5450920000000  0.4427370000000  0.5301850000000 1.0
C      1  0.4666010000000  0.5339660000000  0.5201800000000 1.0
C      1  0.5349900000000  0.5386750000000  0.4923120000000 1.0
C      1  0.4699430000000  0.4673690000000  0.5168450000000 1.0
C      1  0.5549220000000  0.4554570000000  0.5073040000000 1.0
C      1  0.4791320000000  0.5482170000000  0.5439360000000 1.0
C      1  0.5054110000000  0.5447950000000  0.4898450000000 1.0
C      1  0.4550280000000  0.5539480000000  0.5007940000000 1.0
C      1  0.4402590000000  0.4653810000000  0.4467770000000 1.0
C      1  0.4732160000000  0.5273440000000  0.5665850000000 1.0
C      1  0.4475790000000  0.5204260000000  0.4614060000000 1.0
C      1  0.5464580000000  0.4464400000000  0.4799150000000 1.0
C      1  0.5095380000000  0.5461910000000  0.5506840000000 1.0
C      1  0.4952990000000  0.5708320000000  0.4938900000000 1.0
C      1  0.5119030000000  0.4490280000000  0.4920910000000 1.0
C      1  0.5328190000000  0.5103860000000  0.4465010000000 1.0
C      1  0.5007860000000  0.4352990000000  0.5174770000000 1.0
C      1  0.4446660000000  0.5073050000000  0.5315230000000 1.0
C      1  0.4889900000000  0.4600330000000  0.4446450000000 1.0
C      1  0.4891410000000  0.4457040000000  0.4721540000000 1.0
C      1  0.5026090000000  0.4872530000000  0.4684030000000 1.0
C      1  0.4729830000000  0.4390960000000  0.5236180000000 1.0
C      1  0.4639370000000  0.4765290000000  0.4371190000000 1.0
C      1  0.4884730000000  0.5244990000000  0.5022680000000 1.0
C      1  0.4636310000000  0.5398300000000  0.4760950000000 1.0
C      1  0.4442890000000  0.4632290000000  0.4745220000000 1.0
C      1  0.5484530000000  0.5541010000000  0.5313210000000 1.0
C      1  0.5379690000000  0.5264390000000  0.5231420000000 1.0
C      1  0.4699270000000  0.5780670000000  0.5014940000000 1.0
C      1  0.4721170000000  0.4676890000000  0.4848560000000 1.0
C      1  0.5149410000000  0.4667540000000  0.4341370000000 1.0
C      1  0.4293170000000  0.5064830000000  0.4770920000000 1.0
C      1  0.5031580000000  0.5294050000000  0.5757320000000 1.0
C      1  0.4851930000000  0.4831190000000  0.5386630000000 1.0
C      1  0.5495880000000  0.4900110000000  0.5531740000000 1.0
C      1  0.4420980000000  0.4813110000000  0.5178130000000 1.0
C      1  0.5371650000000  0.4819270000000  0.4416800000000 1.0
C      1  0.5548370000000  0.4704640000000  0.4626330000000 1.0
C      1  0.5594210000000  0.4947170000000  0.4805270000000 1.0
C      1  0.5445770000000  0.4839040000000  0.5043520000000 1.0
C      1  0.4913870000000  0.5150440000000  0.4612610000000 1.0
C      1  0.4658900000000  0.5020720000000  0.5513120000000 1.0
C      1  0.5201190000000  0.5260020000000  0.4268430000000 1.0
C      1  0.5509410000000  0.5012820000000  0.5277490000000 1.0
C      1  0.5503830000000  0.5631320000000  0.5030840000000 1.0
C      1  0.5296910000000  0.5662050000000  0.5485720000000 1.0
C      1  0.5143580000000  0.4798100000000  0.4964720000000 1.0
C      1  0.5073770000000  0.4684450000000  0.5520170000000 1.0
C      1  0.5475990000000  0.5200270000000  0.4700330000000 1.0
END
