TITL C-951344-124-383 1.31451775862405e-06 125000 -270.824912908606 0 0 46 (C1) n - 1
REM
REM in /home/bkarasulu/work/CARBON/AIRSS/Generating-Clusters/EDIP-Nigel-Params/with-SteepDescent/Only-C1/SD-CG/HFTN-CG
REM
REM
REM
REM
REM
REM ./C.cell (11c1c37f851c82e70ff6c80c92926a4b)
REM
REM compiler GCC version 9.2.1 20190827 (Red Hat 9.2.1-1)
REM options -cpp -mtune=generic -march=x86-64 -g -O0 -fpre-include=/usr/include/finclude/math-vector-fortran.h
REM seed 2094962009 -1571536291 1761524722 1550346940 -836880269 1479855842 398433123 -1486044730 2054346959 -758688319 -1128908581 -1592917342 160524196 -212478976 22834255 -13028793 -2054690684 -925015144 -406428957 -843139395 -1967590484 1556897378 150081405 -12364184 1965110303 982419063 -1175484103 470719252 1911947243 1078669132 -1538016130 1322948353 -2013654743
REM
CELL 1.54180   50.00000   50.00000   50.00000   90.00000   90.00000   90.00000
LATT -1
SFAC C  
C      1  0.5168870000000  0.5594110000000  0.5496120000000 1.0
C      1  0.5445470000000  0.5339080000000  0.5102200000000 1.0
C      1  0.4444570000000  0.4839070000000  0.5117320000000 1.0
C      1  0.5115280000000  0.5012140000000  0.4871230000000 1.0
C      1  0.5513790000000  0.4744440000000  0.4763970000000 1.0
C      1  0.5473970000000  0.4583120000000  0.5196040000000 1.0
C      1  0.5048610000000  0.4288200000000  0.4687100000000 1.0
C      1  0.4579450000000  0.4790750000000  0.5535310000000 1.0
C      1  0.4782870000000  0.4770770000000  0.4510250000000 1.0
C      1  0.4890210000000  0.4527390000000  0.5140400000000 1.0
C      1  0.4712450000000  0.5213830000000  0.4351190000000 1.0
C      1  0.4803390000000  0.5473020000000  0.5273260000000 1.0
C      1  0.5407610000000  0.5349540000000  0.4662020000000 1.0
C      1  0.5239090000000  0.5126670000000  0.5445980000000 1.0
C      1  0.4465630000000  0.5072650000000  0.4740670000000 1.0
C      1  0.5367400000000  0.4857410000000  0.4526160000000 1.0
C      1  0.4400130000000  0.5126870000000  0.5119500000000 1.0
C      1  0.5279190000000  0.5505300000000  0.4883000000000 1.0
C      1  0.5556080000000  0.4855490000000  0.5192950000000 1.0
C      1  0.4983790000000  0.4429440000000  0.5394440000000 1.0
C      1  0.4865650000000  0.5131950000000  0.4994980000000 1.0
C      1  0.4720430000000  0.5041090000000  0.5481500000000 1.0
C      1  0.4676480000000  0.5274560000000  0.4805360000000 1.0
C      1  0.4949430000000  0.4744240000000  0.4283460000000 1.0
C      1  0.5321520000000  0.5046300000000  0.5161090000000 1.0
C      1  0.5353440000000  0.5399930000000  0.5426740000000 1.0
C      1  0.5688490000000  0.4931720000000  0.4936430000000 1.0
C      1  0.4359410000000  0.4731610000000  0.5367240000000 1.0
C      1  0.5193810000000  0.4382050000000  0.4474480000000 1.0
C      1  0.4585770000000  0.4989830000000  0.4478150000000 1.0
C      1  0.5662510000000  0.5225580000000  0.4902100000000 1.0
C      1  0.5236270000000  0.5120160000000  0.4607130000000 1.0
C      1  0.4901680000000  0.5614730000000  0.5496640000000 1.0
C      1  0.4792350000000  0.5639860000000  0.5026290000000 1.0
C      1  0.4825330000000  0.5357240000000  0.4564270000000 1.0
C      1  0.5192170000000  0.4651890000000  0.4392030000000 1.0
C      1  0.4725490000000  0.4570870000000  0.5644530000000 1.0
C      1  0.4751950000000  0.4828030000000  0.5098470000000 1.0
C      1  0.5369650000000  0.4548950000000  0.4936510000000 1.0
C      1  0.5001320000000  0.4560510000000  0.5639010000000 1.0
C      1  0.4591830000000  0.5250720000000  0.5318930000000 1.0
C      1  0.5075330000000  0.4500560000000  0.4886490000000 1.0
C      1  0.4552410000000  0.5526610000000  0.4912670000000 1.0
C      1  0.5001000000000  0.5579340000000  0.4820250000000 1.0
C      1  0.4984350000000  0.5090380000000  0.5559630000000 1.0
C      1  0.4944080000000  0.4762030000000  0.4776520000000 1.0
END
