TITL C-951335-1172-278 -4.89274580544191e-06 125000 -1189.84318143495 0 0 189 (C1) n - 1
REM
REM in /home/bkarasulu/work/CARBON/AIRSS/Generating-Clusters/EDIP-Nigel-Params/with-SteepDescent/Only-C1/SD-CG/HFTN-CG
REM
REM
REM
REM
REM
REM ./C.cell (11c1c37f851c82e70ff6c80c92926a4b)
REM
REM compiler GCC version 9.2.1 20190827 (Red Hat 9.2.1-1)
REM options -cpp -mtune=generic -march=x86-64 -g -O0 -fpre-include=/usr/include/finclude/math-vector-fortran.h
REM seed 772456027 -1087388400 -1762377496 -662893942 -627563414 2085342786 981814761 2128823198 121288286 -2002110545 -1372485878 1469886286 -1161678902 2064129113 145133424 185533560 -1785188822 73273607 1507891959 -533799119 -2071312974 -445867890 1719590849 -1943561589 234947336 -545910516 1839908784 1864836145 -762566052 1677727467 -269876874 -468676540 22286097
REM
CELL 1.54180   50.00000   50.00000   50.00000   90.00000   90.00000   90.00000
LATT -1
SFAC C  
C      1  0.4908630000000  0.3849130000000  0.4861210000000 1.0
C      1  0.4626930000000  0.5679050000000  0.5695570000000 1.0
C      1  0.5440600000000  0.4078520000000  0.5443780000000 1.0
C      1  0.4066930000000  0.5105230000000  0.4306190000000 1.0
C      1  0.4252050000000  0.5370360000000  0.5585260000000 1.0
C      1  0.5896400000000  0.5101740000000  0.4488160000000 1.0
C      1  0.4983330000000  0.4574730000000  0.4839410000000 1.0
C      1  0.4625290000000  0.4869870000000  0.5041530000000 1.0
C      1  0.4438850000000  0.5024230000000  0.4040790000000 1.0
C      1  0.5787920000000  0.4922330000000  0.4097990000000 1.0
C      1  0.5669950000000  0.4686850000000  0.4194920000000 1.0
C      1  0.4456110000000  0.5328820000000  0.4927730000000 1.0
C      1  0.5359110000000  0.5916760000000  0.4217680000000 1.0
C      1  0.5766480000000  0.5001820000000  0.5832720000000 1.0
C      1  0.4508740000000  0.4305310000000  0.4152520000000 1.0
C      1  0.4770670000000  0.5976840000000  0.4986130000000 1.0
C      1  0.4674910000000  0.4493260000000  0.5422910000000 1.0
C      1  0.5438530000000  0.5185900000000  0.5614480000000 1.0
C      1  0.6189610000000  0.4885780000000  0.5111840000000 1.0
C      1  0.4393520000000  0.5747740000000  0.5257650000000 1.0
C      1  0.4994470000000  0.5081010000000  0.4826230000000 1.0
C      1  0.5637580000000  0.5436070000000  0.4990340000000 1.0
C      1  0.5150430000000  0.4885900000000  0.4263970000000 1.0
C      1  0.5377480000000  0.4860310000000  0.5680740000000 1.0
C      1  0.4683340000000  0.5978900000000  0.5562390000000 1.0
C      1  0.5804750000000  0.5146170000000  0.5046270000000 1.0
C      1  0.4904770000000  0.6126100000000  0.5633160000000 1.0
C      1  0.5127550000000  0.4899040000000  0.5858080000000 1.0
C      1  0.4926020000000  0.5513580000000  0.5017900000000 1.0
C      1  0.4035920000000  0.4819480000000  0.5572360000000 1.0
C      1  0.5899630000000  0.5618710000000  0.4611940000000 1.0
C      1  0.5758670000000  0.5293480000000  0.5898400000000 1.0
C      1  0.3926770000000  0.4871480000000  0.5324670000000 1.0
C      1  0.5299200000000  0.5399360000000  0.3908710000000 1.0
C      1  0.4194900000000  0.5630990000000  0.4461630000000 1.0
C      1  0.5668290000000  0.4885240000000  0.4914920000000 1.0
C      1  0.5147660000000  0.6135010000000  0.5524620000000 1.0
C      1  0.5259620000000  0.4033350000000  0.4552220000000 1.0
C      1  0.4934510000000  0.5162730000000  0.6192540000000 1.0
C      1  0.4405520000000  0.5258980000000  0.5805020000000 1.0
C      1  0.5317130000000  0.4244530000000  0.4973960000000 1.0
C      1  0.4981250000000  0.4021950000000  0.4636290000000 1.0
C      1  0.5968960000000  0.5371320000000  0.4511810000000 1.0
C      1  0.4402010000000  0.4486160000000  0.4920490000000 1.0
C      1  0.4194770000000  0.4940150000000  0.4955640000000 1.0
C      1  0.5039040000000  0.5972010000000  0.4582550000000 1.0
C      1  0.3975340000000  0.5527670000000  0.4900710000000 1.0
C      1  0.3991030000000  0.5485750000000  0.4607890000000 1.0
C      1  0.5455820000000  0.5476320000000  0.4734180000000 1.0
C      1  0.3951140000000  0.4619430000000  0.5147810000000 1.0
C      1  0.5141700000000  0.5633740000000  0.4845170000000 1.0
C      1  0.4167440000000  0.4372220000000  0.4575180000000 1.0
C      1  0.4950870000000  0.5063670000000  0.3863220000000 1.0
C      1  0.5381070000000  0.5073300000000  0.4323660000000 1.0
C      1  0.4496460000000  0.4578410000000  0.4059350000000 1.0
C      1  0.4649480000000  0.5700060000000  0.4257800000000 1.0
C      1  0.4757210000000  0.5362400000000  0.6114480000000 1.0
C      1  0.5583310000000  0.5359310000000  0.6129910000000 1.0
C      1  0.5236980000000  0.5737510000000  0.5927650000000 1.0
C      1  0.5786090000000  0.4669540000000  0.5386660000000 1.0
C      1  0.5894330000000  0.5567140000000  0.5508870000000 1.0
C      1  0.4228960000000  0.4674870000000  0.5066790000000 1.0
C      1  0.5542070000000  0.5942940000000  0.4646220000000 1.0
C      1  0.4138830000000  0.4217910000000  0.4825350000000 1.0
C      1  0.4113900000000  0.4815090000000  0.4318740000000 1.0
C      1  0.6050950000000  0.5356390000000  0.5421150000000 1.0
C      1  0.5511290000000  0.4279340000000  0.5208200000000 1.0
C      1  0.6087720000000  0.5076150000000  0.4922860000000 1.0
C      1  0.5958310000000  0.4501970000000  0.4916130000000 1.0
C      1  0.4519910000000  0.4061040000000  0.4548800000000 1.0
C      1  0.4846710000000  0.5249560000000  0.5510490000000 1.0
C      1  0.5026160000000  0.5254400000000  0.5048580000000 1.0
C      1  0.5282130000000  0.4370600000000  0.4156850000000 1.0
C      1  0.4637680000000  0.4541540000000  0.5879240000000 1.0
C      1  0.4536580000000  0.4604630000000  0.4655890000000 1.0
C      1  0.4757530000000  0.3830940000000  0.5115890000000 1.0
C      1  0.4424600000000  0.5481900000000  0.4322850000000 1.0
C      1  0.4402940000000  0.4970360000000  0.5852920000000 1.0
C      1  0.5451350000000  0.4625700000000  0.5985720000000 1.0
C      1  0.4070360000000  0.5112700000000  0.5167190000000 1.0
C      1  0.4908260000000  0.4872730000000  0.4450290000000 1.0
C      1  0.4337390000000  0.5876970000000  0.4800160000000 1.0
C      1  0.5897380000000  0.4466090000000  0.5553580000000 1.0
C      1  0.4455020000000  0.4880970000000  0.4593160000000 1.0
C      1  0.5641830000000  0.4298390000000  0.4491440000000 1.0
C      1  0.5433380000000  0.5478590000000  0.5232470000000 1.0
C      1  0.4673000000000  0.5877000000000  0.5264220000000 1.0
C      1  0.5350640000000  0.4236100000000  0.5685980000000 1.0
C      1  0.4211670000000  0.5894780000000  0.4550940000000 1.0
C      1  0.5553800000000  0.4397090000000  0.5824870000000 1.0
C      1  0.5545350000000  0.5683740000000  0.4247700000000 1.0
C      1  0.4669820000000  0.4975280000000  0.3837780000000 1.0
C      1  0.5062430000000  0.5943890000000  0.4887060000000 1.0
C      1  0.5435470000000  0.4723710000000  0.5023710000000 1.0
C      1  0.5231290000000  0.5322800000000  0.5769600000000 1.0
C      1  0.4971020000000  0.3793360000000  0.5358270000000 1.0
C      1  0.4508150000000  0.4084130000000  0.5484270000000 1.0
C      1  0.5344820000000  0.5477500000000  0.4184790000000 1.0
C      1  0.4598320000000  0.5291330000000  0.4515590000000 1.0
C      1  0.4956230000000  0.4592360000000  0.3902940000000 1.0
C      1  0.5793640000000  0.5836690000000  0.5060920000000 1.0
C      1  0.4831890000000  0.4567300000000  0.4574490000000 1.0
C      1  0.5014100000000  0.5348670000000  0.3876850000000 1.0
C      1  0.5183130000000  0.5146280000000  0.6021530000000 1.0
C      1  0.5431990000000  0.4023200000000  0.4790100000000 1.0
C      1  0.5309550000000  0.6036260000000  0.4475770000000 1.0
C      1  0.5310050000000  0.6050760000000  0.5067630000000 1.0
C      1  0.5411670000000  0.5202660000000  0.4612890000000 1.0
C      1  0.5047710000000  0.5527990000000  0.4573370000000 1.0
C      1  0.5071720000000  0.4669040000000  0.6058110000000 1.0
C      1  0.5866970000000  0.5152820000000  0.5348730000000 1.0
C      1  0.5285390000000  0.4529650000000  0.4854670000000 1.0
C      1  0.5697230000000  0.4136340000000  0.4731740000000 1.0
C      1  0.5826450000000  0.5776600000000  0.5333290000000 1.0
C      1  0.5543880000000  0.5937170000000  0.4937380000000 1.0
C      1  0.4013310000000  0.4627060000000  0.4533540000000 1.0
C      1  0.4857070000000  0.4936300000000  0.5721220000000 1.0
C      1  0.5618440000000  0.5676820000000  0.4544190000000 1.0
C      1  0.5693400000000  0.5467460000000  0.5681740000000 1.0
C      1  0.5776270000000  0.4546110000000  0.4433550000000 1.0
C      1  0.4555620000000  0.5199260000000  0.5397370000000 1.0
C      1  0.4862350000000  0.4364790000000  0.4990010000000 1.0
C      1  0.5343410000000  0.5689240000000  0.5434950000000 1.0
C      1  0.4792010000000  0.4207280000000  0.4193560000000 1.0
C      1  0.4113660000000  0.4314950000000  0.5299900000000 1.0
C      1  0.4914260000000  0.4829690000000  0.4983640000000 1.0
C      1  0.5073470000000  0.5141880000000  0.5307350000000 1.0
C      1  0.4830220000000  0.4882400000000  0.6191020000000 1.0
C      1  0.4682310000000  0.5510760000000  0.4828380000000 1.0
C      1  0.3898260000000  0.4756770000000  0.4786880000000 1.0
C      1  0.4456990000000  0.5028880000000  0.4856080000000 1.0
C      1  0.4447260000000  0.4522440000000  0.5630220000000 1.0
C      1  0.5937680000000  0.5650740000000  0.4895890000000 1.0
C      1  0.4276520000000  0.5262990000000  0.4146430000000 1.0
C      1  0.5410130000000  0.5584190000000  0.6078520000000 1.0
C      1  0.5304020000000  0.5976060000000  0.5357110000000 1.0
C      1  0.5360150000000  0.5214290000000  0.5338610000000 1.0
C      1  0.5010300000000  0.4102770000000  0.5353040000000 1.0
C      1  0.4682980000000  0.4679660000000  0.3863890000000 1.0
C      1  0.5444740000000  0.5098760000000  0.6178210000000 1.0
C      1  0.5609370000000  0.4871900000000  0.6054010000000 1.0
C      1  0.3972820000000  0.5208690000000  0.4555240000000 1.0
C      1  0.5787550000000  0.4934680000000  0.5534800000000 1.0
C      1  0.4621620000000  0.5004670000000  0.4384090000000 1.0
C      1  0.4745820000000  0.5880140000000  0.4494420000000 1.0
C      1  0.5037050000000  0.4158600000000  0.5055700000000 1.0
C      1  0.5953110000000  0.4711060000000  0.5122700000000 1.0
C      1  0.4326580000000  0.5321990000000  0.5205490000000 1.0
C      1  0.5111890000000  0.5644010000000  0.4297340000000 1.0
C      1  0.5376980000000  0.4248650000000  0.4396540000000 1.0
C      1  0.3870960000000  0.5248420000000  0.4992200000000 1.0
C      1  0.4376710000000  0.5625860000000  0.5523400000000 1.0
C      1  0.5120940000000  0.4419490000000  0.5622440000000 1.0
C      1  0.4225250000000  0.5698830000000  0.5008010000000 1.0
C      1  0.6059030000000  0.4929060000000  0.4657950000000 1.0
C      1  0.4808130000000  0.4781640000000  0.5455080000000 1.0
C      1  0.4562960000000  0.4913070000000  0.5329770000000 1.0
C      1  0.4285040000000  0.4768970000000  0.4087260000000 1.0
C      1  0.4879530000000  0.5550550000000  0.5552650000000 1.0
C      1  0.5498820000000  0.4583350000000  0.5281500000000 1.0
C      1  0.4516130000000  0.4070990000000  0.5181330000000 1.0
C      1  0.5471330000000  0.5187160000000  0.3842410000000 1.0
C      1  0.5937340000000  0.4650710000000  0.4660450000000 1.0
C      1  0.4281770000000  0.4277180000000  0.5544940000000 1.0
C      1  0.4349090000000  0.4223000000000  0.4392570000000 1.0
C      1  0.5422360000000  0.4605560000000  0.4058660000000 1.0
C      1  0.5626950000000  0.4986830000000  0.4608770000000 1.0
C      1  0.4935320000000  0.4468810000000  0.5876990000000 1.0
C      1  0.3823330000000  0.5058290000000  0.4754290000000 1.0
C      1  0.4778680000000  0.4189810000000  0.4495060000000 1.0
C      1  0.5001620000000  0.4387110000000  0.4097900000000 1.0
C      1  0.4314200000000  0.4805440000000  0.5617700000000 1.0
C      1  0.4624680000000  0.5818430000000  0.4772110000000 1.0
C      1  0.5825120000000  0.4345590000000  0.5782430000000 1.0
C      1  0.4883050000000  0.5604160000000  0.4111600000000 1.0
C      1  0.4787540000000  0.4226940000000  0.5537960000000 1.0
C      1  0.5797760000000  0.4266560000000  0.4971280000000 1.0
C      1  0.4215200000000  0.4129090000000  0.5095780000000 1.0
C      1  0.5171110000000  0.5599250000000  0.5678050000000 1.0
C      1  0.4608490000000  0.4366900000000  0.5121280000000 1.0
C      1  0.5577570000000  0.5109210000000  0.4093240000000 1.0
C      1  0.5043660000000  0.4836980000000  0.5278510000000 1.0
C      1  0.4660500000000  0.4839770000000  0.5934930000000 1.0
C      1  0.5280840000000  0.3829130000000  0.5380300000000 1.0
C      1  0.4869270000000  0.5657630000000  0.5277120000000 1.0
C      1  0.4917740000000  0.5250550000000  0.4577900000000 1.0
C      1  0.4580810000000  0.5458260000000  0.5924040000000 1.0
C      1  0.5262800000000  0.4671750000000  0.5462760000000 1.0
C      1  0.5139030000000  0.4824660000000  0.3959710000000 1.0
END
