TITL C-951339-9237-508 -5.32601772255308e-06 125000 -741.777892109766 0 0 119 (C1) n - 1
REM
REM in /home/bkarasulu/work/CARBON/AIRSS/Generating-Clusters/EDIP-Nigel-Params/with-SteepDescent/Only-C1/SD-CG/HFTN-CG
REM
REM
REM
REM
REM
REM ./C.cell (11c1c37f851c82e70ff6c80c92926a4b)
REM
REM compiler GCC version 9.2.1 20190827 (Red Hat 9.2.1-1)
REM options -cpp -mtune=generic -march=x86-64 -g -O0 -fpre-include=/usr/include/finclude/math-vector-fortran.h
REM seed 67528601 1261000933 -1426128867 94938595 227965921 -2132102957 405843218 894669189 16733235 -1142199622 1491969804 1009136049 1657854903 -2023467342 -1137730635 -1021932759 -312017593 -221686995 1190718998 1594743083 1131181689 -1371342753 -1752539037 820831006 -168240996 -947483633 161085201 488964680 753722562 1762119769 268785433 -626599723 -1164223603
REM
CELL 1.54180   50.00000   50.00000   50.00000   90.00000   90.00000   90.00000
LATT -1
SFAC C  
C      1  0.4899350000000  0.5625950000000  0.4760380000000 1.0
C      1  0.4405730000000  0.4363440000000  0.5481430000000 1.0
C      1  0.5184930000000  0.4828910000000  0.4183360000000 1.0
C      1  0.5636770000000  0.5114270000000  0.5130600000000 1.0
C      1  0.5503380000000  0.4438000000000  0.5488160000000 1.0
C      1  0.4314160000000  0.4512030000000  0.4922100000000 1.0
C      1  0.5300970000000  0.4591620000000  0.5060260000000 1.0
C      1  0.4802410000000  0.4704400000000  0.4792880000000 1.0
C      1  0.5048810000000  0.4457770000000  0.5164310000000 1.0
C      1  0.5282070000000  0.4370120000000  0.4250830000000 1.0
C      1  0.4414480000000  0.4608780000000  0.5659530000000 1.0
C      1  0.4729500000000  0.5159610000000  0.4763450000000 1.0
C      1  0.4435600000000  0.4759650000000  0.4214540000000 1.0
C      1  0.4469700000000  0.5652230000000  0.5642760000000 1.0
C      1  0.4688070000000  0.4876430000000  0.4239570000000 1.0
C      1  0.5358420000000  0.5732820000000  0.4558000000000 1.0
C      1  0.5513610000000  0.4883040000000  0.4715600000000 1.0
C      1  0.4816980000000  0.5077360000000  0.5522540000000 1.0
C      1  0.4955250000000  0.5421270000000  0.5199300000000 1.0
C      1  0.5456670000000  0.5453050000000  0.4599950000000 1.0
C      1  0.5783390000000  0.5491740000000  0.4946490000000 1.0
C      1  0.3999790000000  0.5270050000000  0.5154680000000 1.0
C      1  0.5567410000000  0.5123460000000  0.5645570000000 1.0
C      1  0.5921030000000  0.5286200000000  0.4542180000000 1.0
C      1  0.4344140000000  0.4739600000000  0.4480220000000 1.0
C      1  0.5669900000000  0.4380800000000  0.4564110000000 1.0
C      1  0.5390140000000  0.5713680000000  0.5537760000000 1.0
C      1  0.5868730000000  0.5087940000000  0.4355980000000 1.0
C      1  0.4189190000000  0.4987310000000  0.4872770000000 1.0
C      1  0.5621300000000  0.5683590000000  0.5105460000000 1.0
C      1  0.4773030000000  0.5191250000000  0.5254000000000 1.0
C      1  0.5304390000000  0.5588740000000  0.4273260000000 1.0
C      1  0.5114660000000  0.4418380000000  0.5746860000000 1.0
C      1  0.4682120000000  0.5771570000000  0.4588470000000 1.0
C      1  0.5331000000000  0.5248740000000  0.5745420000000 1.0
C      1  0.4059160000000  0.5087640000000  0.5369230000000 1.0
C      1  0.5775930000000  0.4758890000000  0.4833110000000 1.0
C      1  0.5008230000000  0.4784290000000  0.4588720000000 1.0
C      1  0.4157860000000  0.5449320000000  0.5001880000000 1.0
C      1  0.5471010000000  0.5301040000000  0.5329070000000 1.0
C      1  0.4623400000000  0.4699340000000  0.5220850000000 1.0
C      1  0.4833200000000  0.4369390000000  0.5753830000000 1.0
C      1  0.4384980000000  0.5133950000000  0.5033520000000 1.0
C      1  0.4970710000000  0.5990420000000  0.5280780000000 1.0
C      1  0.4538200000000  0.5357700000000  0.4322870000000 1.0
C      1  0.5217310000000  0.5109270000000  0.4270200000000 1.0
C      1  0.5606050000000  0.5574510000000  0.5383250000000 1.0
C      1  0.4632370000000  0.4166990000000  0.5084050000000 1.0
C      1  0.4658930000000  0.6038350000000  0.4872020000000 1.0
C      1  0.4264300000000  0.5000780000000  0.4587710000000 1.0
C      1  0.5238430000000  0.5419610000000  0.5103370000000 1.0
C      1  0.4524010000000  0.5801710000000  0.5419340000000 1.0
C      1  0.5793250000000  0.4456890000000  0.4809680000000 1.0
C      1  0.4580580000000  0.5440840000000  0.5759590000000 1.0
C      1  0.4339240000000  0.5137880000000  0.5473910000000 1.0
C      1  0.5216720000000  0.4881110000000  0.5076920000000 1.0
C      1  0.5514330000000  0.4102980000000  0.5005940000000 1.0
C      1  0.4815120000000  0.5641710000000  0.5066110000000 1.0
C      1  0.4980630000000  0.5265800000000  0.4350280000000 1.0
C      1  0.4517550000000  0.5652180000000  0.5161310000000 1.0
C      1  0.4914160000000  0.4439630000000  0.4892700000000 1.0
C      1  0.5680320000000  0.4322920000000  0.5044480000000 1.0
C      1  0.4626710000000  0.4322610000000  0.4577260000000 1.0
C      1  0.4437130000000  0.5864620000000  0.4945930000000 1.0
C      1  0.5116600000000  0.4283830000000  0.4699470000000 1.0
C      1  0.4720190000000  0.4113710000000  0.4798450000000 1.0
C      1  0.5239010000000  0.4926530000000  0.5368240000000 1.0
C      1  0.4732410000000  0.5161100000000  0.4223920000000 1.0
C      1  0.4406340000000  0.4812110000000  0.5427050000000 1.0
C      1  0.4862780000000  0.4596160000000  0.5376700000000 1.0
C      1  0.5697310000000  0.4592770000000  0.4357960000000 1.0
C      1  0.5309130000000  0.4700270000000  0.4597070000000 1.0
C      1  0.5057280000000  0.4790020000000  0.5825500000000 1.0
C      1  0.5559360000000  0.4534340000000  0.5209700000000 1.0
C      1  0.5264260000000  0.5299050000000  0.4811350000000 1.0
C      1  0.4696490000000  0.4270450000000  0.5515840000000 1.0
C      1  0.4963750000000  0.5317540000000  0.4669000000000 1.0
C      1  0.5859610000000  0.4816360000000  0.4460270000000 1.0
C      1  0.5406050000000  0.5047190000000  0.4922270000000 1.0
C      1  0.4741130000000  0.5973740000000  0.5437490000000 1.0
C      1  0.5388590000000  0.4631490000000  0.4304240000000 1.0
C      1  0.5260070000000  0.4280880000000  0.5534020000000 1.0
C      1  0.4802500000000  0.4784240000000  0.5975790000000 1.0
C      1  0.5357090000000  0.4456250000000  0.4764840000000 1.0
C      1  0.4996930000000  0.4841300000000  0.5525050000000 1.0
C      1  0.5676360000000  0.5184380000000  0.4179340000000 1.0
C      1  0.5198300000000  0.5806690000000  0.5321260000000 1.0
C      1  0.5747950000000  0.5470150000000  0.4662580000000 1.0
C      1  0.4662210000000  0.4585950000000  0.5836130000000 1.0
C      1  0.5157350000000  0.5075600000000  0.5911090000000 1.0
C      1  0.4923600000000  0.6011480000000  0.4989770000000 1.0
C      1  0.4925970000000  0.5211220000000  0.5995320000000 1.0
C      1  0.4309340000000  0.5462250000000  0.4750130000000 1.0
C      1  0.4825180000000  0.4398410000000  0.4357870000000 1.0
C      1  0.5527820000000  0.4650410000000  0.5667860000000 1.0
C      1  0.5107420000000  0.4183980000000  0.5276070000000 1.0
C      1  0.4776540000000  0.5247090000000  0.5759460000000 1.0
C      1  0.4789490000000  0.4963580000000  0.5005670000000 1.0
C      1  0.4397850000000  0.5728300000000  0.4693520000000 1.0
C      1  0.4700190000000  0.5623020000000  0.4320370000000 1.0
C      1  0.5074880000000  0.4264490000000  0.4403460000000 1.0
C      1  0.5320290000000  0.5532050000000  0.5744130000000 1.0
C      1  0.4996650000000  0.5543770000000  0.4249840000000 1.0
C      1  0.5252730000000  0.4023960000000  0.5062720000000 1.0
C      1  0.4485590000000  0.5295940000000  0.5256260000000 1.0
C      1  0.5882140000000  0.5258940000000  0.5063830000000 1.0
C      1  0.4119220000000  0.4726090000000  0.4997730000000 1.0
C      1  0.4499360000000  0.4578060000000  0.4687540000000 1.0
C      1  0.5515710000000  0.4879960000000  0.5489560000000 1.0
C      1  0.5171230000000  0.5793940000000  0.4785360000000 1.0
C      1  0.5743300000000  0.4805260000000  0.5182100000000 1.0
C      1  0.5090160000000  0.4016680000000  0.4823800000000 1.0
C      1  0.4470200000000  0.4420770000000  0.5160320000000 1.0
C      1  0.4818030000000  0.4091870000000  0.5308440000000 1.0
C      1  0.4118750000000  0.4790240000000  0.5298950000000 1.0
C      1  0.5421060000000  0.5296890000000  0.4197400000000 1.0
C      1  0.4463560000000  0.5242710000000  0.4601130000000 1.0
C      1  0.5317420000000  0.5708550000000  0.5061790000000 1.0
C      1  0.4920450000000  0.4711800000000  0.4314320000000 1.0
END
