TITL C-951338-5626-716 -1.95999062485032e-06 125000 -635.520140815716 0 0 103 (C1) n - 1
REM
REM in /home/bkarasulu/work/CARBON/AIRSS/Generating-Clusters/EDIP-Nigel-Params/with-SteepDescent/Only-C1/SD-CG/HFTN-CG
REM
REM
REM
REM
REM
REM ./C.cell (11c1c37f851c82e70ff6c80c92926a4b)
REM
REM compiler GCC version 9.2.1 20190827 (Red Hat 9.2.1-1)
REM options -cpp -mtune=generic -march=x86-64 -g -O0 -fpre-include=/usr/include/finclude/math-vector-fortran.h
REM seed 146693045 -951508277 -2066499049 -1638693946 1067166353 1641388595 -2089147505 -435505208 659611891 618747898 -1247256110 2000918410 -734100118 204311041 -1976220688 384434672 -567481955 250460628 1403081644 -469232277 -862770474 809119463 1719867333 1748983654 870460036 -769634288 2037536677 -1110541253 705687923 612803571 950271645 1209837679 -777744984
REM
CELL 1.54180   50.00000   50.00000   50.00000   90.00000   90.00000   90.00000
LATT -1
SFAC C  
C      1  0.5421750000000  0.5619440000000  0.5230010000000 1.0
C      1  0.5618740000000  0.5317010000000  0.4409600000000 1.0
C      1  0.5348770000000  0.4767760000000  0.4731200000000 1.0
C      1  0.4969030000000  0.5817510000000  0.5367970000000 1.0
C      1  0.4586080000000  0.4721130000000  0.5574890000000 1.0
C      1  0.5874350000000  0.4908420000000  0.4948520000000 1.0
C      1  0.5347840000000  0.4905660000000  0.4208630000000 1.0
C      1  0.5713620000000  0.5143610000000  0.5067080000000 1.0
C      1  0.4415400000000  0.4802820000000  0.4632020000000 1.0
C      1  0.4643210000000  0.5444920000000  0.4344160000000 1.0
C      1  0.4260870000000  0.4584000000000  0.5049160000000 1.0
C      1  0.5558710000000  0.4479520000000  0.5436470000000 1.0
C      1  0.5037590000000  0.5620460000000  0.4588540000000 1.0
C      1  0.5110750000000  0.4731690000000  0.4541030000000 1.0
C      1  0.4489660000000  0.4466020000000  0.5176300000000 1.0
C      1  0.4134990000000  0.5288090000000  0.4855580000000 1.0
C      1  0.5426280000000  0.4606390000000  0.5658700000000 1.0
C      1  0.4856890000000  0.4575460000000  0.4701760000000 1.0
C      1  0.4875570000000  0.5005380000000  0.5896690000000 1.0
C      1  0.5786910000000  0.4862040000000  0.4440090000000 1.0
C      1  0.4761280000000  0.4120620000000  0.5252970000000 1.0
C      1  0.5229250000000  0.4417390000000  0.5757560000000 1.0
C      1  0.5558530000000  0.4568530000000  0.4759030000000 1.0
C      1  0.5249360000000  0.4863710000000  0.4983210000000 1.0
C      1  0.4482740000000  0.5007870000000  0.5397460000000 1.0
C      1  0.4733660000000  0.4664650000000  0.5161520000000 1.0
C      1  0.5470000000000  0.5544440000000  0.4926110000000 1.0
C      1  0.5352830000000  0.5021220000000  0.5902070000000 1.0
C      1  0.5709400000000  0.5016500000000  0.5596150000000 1.0
C      1  0.4985360000000  0.4523030000000  0.5841840000000 1.0
C      1  0.4966310000000  0.4746610000000  0.5350640000000 1.0
C      1  0.4210520000000  0.5135060000000  0.5423160000000 1.0
C      1  0.5403160000000  0.5100060000000  0.5087120000000 1.0
C      1  0.5877370000000  0.5030860000000  0.4677350000000 1.0
C      1  0.5228790000000  0.4655330000000  0.5200290000000 1.0
C      1  0.5390890000000  0.4642890000000  0.4122790000000 1.0
C      1  0.5835550000000  0.5254150000000  0.5315190000000 1.0
C      1  0.4778520000000  0.4634450000000  0.4270630000000 1.0
C      1  0.5285210000000  0.5725570000000  0.4764750000000 1.0
C      1  0.4144530000000  0.5031680000000  0.4997810000000 1.0
C      1  0.4880810000000  0.4288120000000  0.4804530000000 1.0
C      1  0.5670600000000  0.5304200000000  0.5550270000000 1.0
C      1  0.4237450000000  0.5254160000000  0.4585260000000 1.0
C      1  0.4210610000000  0.5419860000000  0.5366190000000 1.0
C      1  0.4532030000000  0.4176180000000  0.5060360000000 1.0
C      1  0.5382440000000  0.4332370000000  0.4813240000000 1.0
C      1  0.4534790000000  0.5517950000000  0.4863780000000 1.0
C      1  0.4652290000000  0.5163210000000  0.5834290000000 1.0
C      1  0.4254930000000  0.5538600000000  0.5007160000000 1.0
C      1  0.5739710000000  0.4648170000000  0.4987670000000 1.0
C      1  0.4768640000000  0.5783510000000  0.5136730000000 1.0
C      1  0.4436870000000  0.5592640000000  0.5404400000000 1.0
C      1  0.5127070000000  0.5338290000000  0.4261050000000 1.0
C      1  0.4509320000000  0.4447930000000  0.5476900000000 1.0
C      1  0.4870190000000  0.5952480000000  0.4901490000000 1.0
C      1  0.4475470000000  0.4316860000000  0.4570190000000 1.0
C      1  0.5247250000000  0.4354750000000  0.5100660000000 1.0
C      1  0.4599590000000  0.4577640000000  0.4529900000000 1.0
C      1  0.5586500000000  0.5035530000000  0.4313550000000 1.0
C      1  0.5235360000000  0.5853600000000  0.5232600000000 1.0
C      1  0.4989720000000  0.5059930000000  0.5398680000000 1.0
C      1  0.5320370000000  0.5195660000000  0.4631420000000 1.0
C      1  0.5264410000000  0.4344270000000  0.4463350000000 1.0
C      1  0.5610320000000  0.4675600000000  0.5239140000000 1.0
C      1  0.5162870000000  0.5429710000000  0.5673630000000 1.0
C      1  0.4616580000000  0.4174290000000  0.4771070000000 1.0
C      1  0.5492120000000  0.4452750000000  0.4305480000000 1.0
C      1  0.5173020000000  0.5934930000000  0.4945860000000 1.0
C      1  0.5122500000000  0.5151050000000  0.5812250000000 1.0
C      1  0.4575870000000  0.5064820000000  0.5085680000000 1.0
C      1  0.4565090000000  0.5225090000000  0.4790260000000 1.0
C      1  0.4981070000000  0.4986370000000  0.4907070000000 1.0
C      1  0.4027240000000  0.5006860000000  0.5254140000000 1.0
C      1  0.5718960000000  0.5320380000000  0.4721140000000 1.0
C      1  0.5231600000000  0.4196230000000  0.5579570000000 1.0
C      1  0.4767140000000  0.4778290000000  0.4896780000000 1.0
C      1  0.4695360000000  0.4229760000000  0.5512600000000 1.0
C      1  0.5098050000000  0.5054420000000  0.4184580000000 1.0
C      1  0.4619280000000  0.5130260000000  0.4332960000000 1.0
C      1  0.5700090000000  0.4565580000000  0.4493410000000 1.0
C      1  0.4835690000000  0.4934770000000  0.4258480000000 1.0
C      1  0.4374040000000  0.5030920000000  0.4455830000000 1.0
C      1  0.4682390000000  0.5183210000000  0.5544530000000 1.0
C      1  0.4234500000000  0.4789920000000  0.4864550000000 1.0
C      1  0.5392240000000  0.4249800000000  0.5348790000000 1.0
C      1  0.4818230000000  0.5827370000000  0.4628160000000 1.0
C      1  0.4686090000000  0.5458520000000  0.5466510000000 1.0
C      1  0.5037990000000  0.5087750000000  0.4619670000000 1.0
C      1  0.5322780000000  0.5302730000000  0.4900820000000 1.0
C      1  0.5019710000000  0.4444660000000  0.4298680000000 1.0
C      1  0.4970250000000  0.4249290000000  0.5077410000000 1.0
C      1  0.4820930000000  0.4740120000000  0.5768510000000 1.0
C      1  0.4866900000000  0.5328180000000  0.4638810000000 1.0
C      1  0.4930000000000  0.5592010000000  0.5557140000000 1.0
C      1  0.4907550000000  0.5517200000000  0.4241210000000 1.0
C      1  0.5393920000000  0.5403920000000  0.5461680000000 1.0
C      1  0.5280280000000  0.5157850000000  0.5345030000000 1.0
C      1  0.4470840000000  0.5796180000000  0.5204940000000 1.0
C      1  0.4573990000000  0.5655050000000  0.4593850000000 1.0
C      1  0.5369040000000  0.5461350000000  0.4356890000000 1.0
C      1  0.4866490000000  0.5186550000000  0.5124290000000 1.0
C      1  0.4803510000000  0.5495620000000  0.5038850000000 1.0
C      1  0.5528820000000  0.4862810000000  0.5760030000000 1.0
END
