TITL C-951344-124-191 -16.5152677383628 125000 -116.445082077324 0 0 22 (C1) n - 1
REM
REM in /home/bkarasulu/work/CARBON/AIRSS/Generating-Clusters/EDIP-Nigel-Params/with-SteepDescent/Only-C1/SD-CG/HFTN-CG
REM
REM
REM
REM
REM
REM ./C.cell (11c1c37f851c82e70ff6c80c92926a4b)
REM
REM compiler GCC version 9.2.1 20190827 (Red Hat 9.2.1-1)
REM options -cpp -mtune=generic -march=x86-64 -g -O0 -fpre-include=/usr/include/finclude/math-vector-fortran.h
REM seed 1324270734 -1074273138 -1268680744 618801589 2065921483 -1503752297 -1339704539 792184819 -739704981 -880733473 604813689 -8803548 1590858422 757668465 1389635370 -1249118790 1817901431 -1991109825 1443898522 1269736319 780487448 1200428311 -279949187 -1942034745 -2075077804 -1114967054 -1013061510 1047065771 -960642016 -325904909 -1855741219 -575820495 -450077712
REM
CELL 1.54180   50.00000   50.00000   50.00000   90.00000   90.00000   90.00000
LATT -1
SFAC C  
C      1  0.5401570000000  0.5887030000000  0.4474150000000 1.0
C      1  0.4142430000000  0.4780560000000  0.4600560000000 1.0
C      1  0.4724580000000  0.4525760000000  0.5328350000000 1.0
C      1  0.5276830000000  0.5824690000000  0.4733200000000 1.0
C      1  0.4674140000000  0.5036730000000  0.4839280000000 1.0
C      1  0.4525450000000  0.4823180000000  0.4927240000000 1.0
C      1  0.4921210000000  0.5481680000000  0.4697690000000 1.0
C      1  0.4123220000000  0.4565720000000  0.4762420000000 1.0
C      1  0.4815480000000  0.4380850000000  0.5529730000000 1.0
C      1  0.4378740000000  0.4683070000000  0.4723860000000 1.0
C      1  0.5574570000000  0.4481820000000  0.6104740000000 1.0
C      1  0.4914150000000  0.4236060000000  0.5739920000000 1.0
C      1  0.4640880000000  0.4664660000000  0.5119590000000 1.0
C      1  0.5884000000000  0.5709630000000  0.4320550000000 1.0
C      1  0.6115200000000  0.5629430000000  0.4246370000000 1.0
C      1  0.5361790000000  0.4403590000000  0.5986470000000 1.0
C      1  0.4789870000000  0.4016930000000  0.5819060000000 1.0
C      1  0.5146250000000  0.5781060000000  0.4373480000000 1.0
C      1  0.5141720000000  0.4317950000000  0.5867910000000 1.0
C      1  0.4790190000000  0.5264430000000  0.4771730000000 1.0
C      1  0.5016900000000  0.5730330000000  0.4632800000000 1.0
C      1  0.5640820000000  0.5774820000000  0.4400910000000 1.0
END
