TITL C-950532-2784-324 2.34706071258614e-06 125000 -1121.88044767636 0 0 177 (C1) n - 1
REM
REM in /home/bkarasulu/work/CARBON/AIRSS/Generating-Clusters/EDIP-Nigel-Params/with-SteepDescent/Only-C1/SD-CG/HFTN-CG
REM
REM
REM
REM
REM
REM ./C.cell (11c1c37f851c82e70ff6c80c92926a4b)
REM
REM compiler GCC version 9.2.1 20190827 (Red Hat 9.2.1-1)
REM options -cpp -mtune=generic -march=x86-64 -g -O0 -fpre-include=/usr/include/finclude/math-vector-fortran.h
REM seed 64308544 1922122136 -2139595460 515693306 934674359 408165400 805352879 -1994660561 1299331964 -1616008777 -1035571311 -790998063 1022259205 -798479941 1346919727 258624823 -741728759 508269138 -324328829 1543662489 -1466204294 986243431 412230719 1123477706 -639846900 1510156110 1297326470 -1142921905 828276380 1394334634 -1020390503 362839084 -1250908207
REM
CELL 1.54180   50.00000   50.00000   50.00000   90.00000   90.00000   90.00000
LATT -1
SFAC C  
C      1  0.4316710000000  0.5598110000000  0.4524190000000 1.0
C      1  0.4687890000000  0.6050730000000  0.4846790000000 1.0
C      1  0.6016300000000  0.4622590000000  0.4987560000000 1.0
C      1  0.5200630000000  0.6034230000000  0.4283540000000 1.0
C      1  0.4959310000000  0.5941420000000  0.4166310000000 1.0
C      1  0.5570740000000  0.4873700000000  0.4409240000000 1.0
C      1  0.5703640000000  0.5085310000000  0.4117450000000 1.0
C      1  0.5140650000000  0.6073100000000  0.4568180000000 1.0
C      1  0.4990610000000  0.5551660000000  0.5116950000000 1.0
C      1  0.4752500000000  0.5979090000000  0.5325410000000 1.0
C      1  0.5759820000000  0.5848920000000  0.4976840000000 1.0
C      1  0.4032400000000  0.4572400000000  0.4615290000000 1.0
C      1  0.4419920000000  0.4929960000000  0.5013870000000 1.0
C      1  0.5618160000000  0.5097730000000  0.6001880000000 1.0
C      1  0.5137660000000  0.5475450000000  0.4013230000000 1.0
C      1  0.5326160000000  0.4063150000000  0.4575220000000 1.0
C      1  0.4654000000000  0.3859870000000  0.5258680000000 1.0
C      1  0.4375960000000  0.3890000000000  0.5181200000000 1.0
C      1  0.5778950000000  0.4719610000000  0.5421810000000 1.0
C      1  0.4482260000000  0.4964670000000  0.5921450000000 1.0
C      1  0.4879360000000  0.3997200000000  0.4379840000000 1.0
C      1  0.5459940000000  0.4182930000000  0.5044310000000 1.0
C      1  0.5130070000000  0.4066300000000  0.5315340000000 1.0
C      1  0.5472160000000  0.5589770000000  0.5895690000000 1.0
C      1  0.5964840000000  0.4931500000000  0.5673510000000 1.0
C      1  0.5042880000000  0.5317960000000  0.5950900000000 1.0
C      1  0.5287710000000  0.4669610000000  0.5573210000000 1.0
C      1  0.4259850000000  0.5002750000000  0.5747640000000 1.0
C      1  0.5233260000000  0.6061390000000  0.5378510000000 1.0
C      1  0.4132740000000  0.4937310000000  0.4267810000000 1.0
C      1  0.4426480000000  0.5638100000000  0.5014810000000 1.0
C      1  0.4137950000000  0.4327740000000  0.5044940000000 1.0
C      1  0.4172880000000  0.4537380000000  0.5486830000000 1.0
C      1  0.4581290000000  0.4829120000000  0.5469150000000 1.0
C      1  0.5399430000000  0.4505520000000  0.4222770000000 1.0
C      1  0.5107830000000  0.5057110000000  0.6069430000000 1.0
C      1  0.5944180000000  0.5210270000000  0.4507890000000 1.0
C      1  0.4965090000000  0.5068120000000  0.5503130000000 1.0
C      1  0.5021020000000  0.4788800000000  0.5653780000000 1.0
C      1  0.4616720000000  0.5387290000000  0.4841400000000 1.0
C      1  0.4773420000000  0.5137320000000  0.3994790000000 1.0
C      1  0.4197110000000  0.5266350000000  0.5676870000000 1.0
C      1  0.4655750000000  0.4842810000000  0.5185750000000 1.0
C      1  0.5386620000000  0.5271350000000  0.5323090000000 1.0
C      1  0.4338990000000  0.4282090000000  0.5479790000000 1.0
C      1  0.4644760000000  0.4736990000000  0.4481770000000 1.0
C      1  0.4180900000000  0.4971790000000  0.5223040000000 1.0
C      1  0.5006530000000  0.5024120000000  0.4115320000000 1.0
C      1  0.4600980000000  0.4550280000000  0.5814020000000 1.0
C      1  0.5879190000000  0.4827120000000  0.5154180000000 1.0
C      1  0.4200660000000  0.5570220000000  0.4819200000000 1.0
C      1  0.3952830000000  0.4822720000000  0.4812050000000 1.0
C      1  0.5793820000000  0.4669730000000  0.4437170000000 1.0
C      1  0.5137330000000  0.4410020000000  0.4316280000000 1.0
C      1  0.5004880000000  0.5746010000000  0.5756970000000 1.0
C      1  0.5088140000000  0.5203980000000  0.4746900000000 1.0
C      1  0.5910610000000  0.5489620000000  0.4634540000000 1.0
C      1  0.5582660000000  0.5526870000000  0.5536710000000 1.0
C      1  0.5378660000000  0.6029880000000  0.4775660000000 1.0
C      1  0.5582570000000  0.4240970000000  0.4601730000000 1.0
C      1  0.5613730000000  0.4373880000000  0.4883540000000 1.0
C      1  0.4607930000000  0.5494660000000  0.4571320000000 1.0
C      1  0.5187470000000  0.5585630000000  0.5969680000000 1.0
C      1  0.5624640000000  0.5367590000000  0.5940940000000 1.0
C      1  0.4979130000000  0.4801440000000  0.5964420000000 1.0
C      1  0.5516000000000  0.4668670000000  0.4866860000000 1.0
C      1  0.4682380000000  0.5010630000000  0.4564450000000 1.0
C      1  0.4438090000000  0.5948010000000  0.4978690000000 1.0
C      1  0.4303460000000  0.5062980000000  0.4061890000000 1.0
C      1  0.5047590000000  0.4395650000000  0.4840730000000 1.0
C      1  0.4917300000000  0.4996740000000  0.5212990000000 1.0
C      1  0.4493010000000  0.5789130000000  0.4267620000000 1.0
C      1  0.5282080000000  0.5445140000000  0.5108480000000 1.0
C      1  0.4757190000000  0.4490810000000  0.4864120000000 1.0
C      1  0.5150410000000  0.4534250000000  0.4592160000000 1.0
C      1  0.4931140000000  0.5161480000000  0.4471680000000 1.0
C      1  0.4609180000000  0.4078940000000  0.4797680000000 1.0
C      1  0.4426340000000  0.4231360000000  0.4333080000000 1.0
C      1  0.5846360000000  0.5617180000000  0.5109700000000 1.0
C      1  0.4627770000000  0.4667720000000  0.4193050000000 1.0
C      1  0.6050930000000  0.5416350000000  0.5513520000000 1.0
C      1  0.5719350000000  0.4888700000000  0.5826560000000 1.0
C      1  0.4888290000000  0.5340380000000  0.4935470000000 1.0
C      1  0.4730470000000  0.5636560000000  0.5799420000000 1.0
C      1  0.4742020000000  0.5931720000000  0.4344360000000 1.0
C      1  0.5874820000000  0.5383140000000  0.4918300000000 1.0
C      1  0.6069440000000  0.5036610000000  0.5210560000000 1.0
C      1  0.4985280000000  0.4019880000000  0.5572180000000 1.0
C      1  0.4671530000000  0.4766690000000  0.6003330000000 1.0
C      1  0.5080040000000  0.5658770000000  0.4433240000000 1.0
C      1  0.6026500000000  0.4739940000000  0.4712970000000 1.0
C      1  0.4707050000000  0.3909920000000  0.5547770000000 1.0
C      1  0.5325830000000  0.4289320000000  0.5276500000000 1.0
C      1  0.4657690000000  0.4103760000000  0.4244470000000 1.0
C      1  0.4101870000000  0.5258360000000  0.5209070000000 1.0
C      1  0.5665840000000  0.5639470000000  0.4556440000000 1.0
C      1  0.5124880000000  0.4507660000000  0.5145840000000 1.0
C      1  0.6015180000000  0.5142570000000  0.5473950000000 1.0
C      1  0.5633390000000  0.5876670000000  0.4727220000000 1.0
C      1  0.6104770000000  0.5198190000000  0.4968100000000 1.0
C      1  0.4137330000000  0.4310550000000  0.4744560000000 1.0
C      1  0.4966610000000  0.4249170000000  0.5751870000000 1.0
C      1  0.4266490000000  0.5394220000000  0.5426970000000 1.0
C      1  0.5415660000000  0.4691370000000  0.6145230000000 1.0
C      1  0.4656950000000  0.5557370000000  0.5248160000000 1.0
C      1  0.5386470000000  0.4990450000000  0.6151960000000 1.0
C      1  0.4848940000000  0.5441360000000  0.4391710000000 1.0
C      1  0.5104890000000  0.4082280000000  0.4795510000000 1.0
C      1  0.4317910000000  0.5774830000000  0.5427770000000 1.0
C      1  0.3997640000000  0.5108690000000  0.4727040000000 1.0
C      1  0.5356270000000  0.4736000000000  0.4049610000000 1.0
C      1  0.4524920000000  0.5572460000000  0.4061420000000 1.0
C      1  0.4979560000000  0.5997630000000  0.5527210000000 1.0
C      1  0.5372190000000  0.5713380000000  0.5447360000000 1.0
C      1  0.4550260000000  0.5309540000000  0.5377900000000 1.0
C      1  0.4079800000000  0.5320950000000  0.4917230000000 1.0
C      1  0.4910130000000  0.4538060000000  0.4129840000000 1.0
C      1  0.4541540000000  0.5694910000000  0.5592790000000 1.0
C      1  0.5335630000000  0.5383380000000  0.4824370000000 1.0
C      1  0.5229390000000  0.5199160000000  0.4061650000000 1.0
C      1  0.4421140000000  0.4270260000000  0.4630370000000 1.0
C      1  0.4674190000000  0.4128980000000  0.5101480000000 1.0
C      1  0.4853830000000  0.4410800000000  0.5299000000000 1.0
C      1  0.4801940000000  0.5432810000000  0.4079610000000 1.0
C      1  0.5423580000000  0.4466260000000  0.5734870000000 1.0
C      1  0.4778510000000  0.4608450000000  0.5569660000000 1.0
C      1  0.6105530000000  0.5034130000000  0.4706300000000 1.0
C      1  0.4533520000000  0.5111110000000  0.4798880000000 1.0
C      1  0.4371480000000  0.4491820000000  0.4204380000000 1.0
C      1  0.4852050000000  0.5989730000000  0.4607800000000 1.0
C      1  0.4279980000000  0.4830440000000  0.5499610000000 1.0
C      1  0.5130220000000  0.5581120000000  0.5531340000000 1.0
C      1  0.4022340000000  0.4531730000000  0.5223390000000 1.0
C      1  0.5176040000000  0.5284470000000  0.5530030000000 1.0
C      1  0.5659080000000  0.5132610000000  0.4552620000000 1.0
C      1  0.5067660000000  0.4753860000000  0.4012420000000 1.0
C      1  0.5198640000000  0.4345090000000  0.5899980000000 1.0
C      1  0.5337060000000  0.4758380000000  0.4650060000000 1.0
C      1  0.5699660000000  0.5360220000000  0.4169390000000 1.0
C      1  0.5049420000000  0.5822790000000  0.4969760000000 1.0
C      1  0.4257310000000  0.4143040000000  0.5238400000000 1.0
C      1  0.4565160000000  0.4937150000000  0.4033950000000 1.0
C      1  0.4693240000000  0.4279450000000  0.5858830000000 1.0
C      1  0.5144410000000  0.4570590000000  0.6087910000000 1.0
C      1  0.4682500000000  0.4561060000000  0.5124740000000 1.0
C      1  0.5250020000000  0.5670290000000  0.4698890000000 1.0
C      1  0.5617030000000  0.5201510000000  0.4840410000000 1.0
C      1  0.5177770000000  0.3935190000000  0.5051590000000 1.0
C      1  0.5410120000000  0.4974100000000  0.5225860000000 1.0
C      1  0.5152330000000  0.4109050000000  0.4331850000000 1.0
C      1  0.5294680000000  0.5968870000000  0.5097120000000 1.0
C      1  0.5290650000000  0.5667270000000  0.4192490000000 1.0
C      1  0.4765180000000  0.5350950000000  0.5853410000000 1.0
C      1  0.5613960000000  0.4623770000000  0.5921550000000 1.0
C      1  0.5163860000000  0.4932490000000  0.4821590000000 1.0
C      1  0.4315050000000  0.4687700000000  0.4859190000000 1.0
C      1  0.4517890000000  0.4123850000000  0.5670490000000 1.0
C      1  0.4454410000000  0.5991070000000  0.5278670000000 1.0
C      1  0.4153900000000  0.4650970000000  0.4344580000000 1.0
C      1  0.4532900000000  0.4551950000000  0.4689140000000 1.0
C      1  0.5644170000000  0.4426180000000  0.4371090000000 1.0
C      1  0.5861200000000  0.4378290000000  0.5063130000000 1.0
C      1  0.3968810000000  0.4797300000000  0.5112020000000 1.0
C      1  0.5494600000000  0.4820750000000  0.5449850000000 1.0
C      1  0.5151850000000  0.4854580000000  0.5106310000000 1.0
C      1  0.4854260000000  0.3976510000000  0.4671410000000 1.0
C      1  0.5451670000000  0.5012780000000  0.4018490000000 1.0
C      1  0.5617670000000  0.4921640000000  0.5011550000000 1.0
C      1  0.5848920000000  0.5583770000000  0.5409150000000 1.0
C      1  0.4297080000000  0.5369230000000  0.4096200000000 1.0
C      1  0.5572210000000  0.5585230000000  0.4284040000000 1.0
C      1  0.4693190000000  0.5170940000000  0.5608570000000 1.0
C      1  0.4862670000000  0.6046700000000  0.5068290000000 1.0
C      1  0.4156060000000  0.5412240000000  0.4350480000000 1.0
C      1  0.5536590000000  0.4305740000000  0.5498580000000 1.0
C      1  0.5788630000000  0.4419070000000  0.5375380000000 1.0
C      1  0.4060810000000  0.5153230000000  0.4449500000000 1.0
END
