TITL C-950521-2237-642 -3.25805706696238e-06 125000 -1198.1669432773 0 0 191 (C1) n - 1
REM
REM in /home/bkarasulu/work/CARBON/AIRSS/Generating-Clusters/EDIP-Nigel-Params/with-SteepDescent/Only-C1/SD-CG/HFTN-CG
REM
REM
REM
REM
REM
REM ./C.cell (11c1c37f851c82e70ff6c80c92926a4b)
REM
REM compiler GCC version 9.2.1 20190827 (Red Hat 9.2.1-1)
REM options -cpp -mtune=generic -march=x86-64 -g -O0 -fpre-include=/usr/include/finclude/math-vector-fortran.h
REM seed 248677621 1822781931 505606186 1379885957 -388024697 694267702 -1222783764 -298888646 1946937655 925598658 1324213454 -1216020491 1621972712 -987243315 677433148 -875925131 1725527342 13965087 -836354942 1413458828 1375174845 -1722244652 468458111 -57626887 -867402891 -1150893095 823454781 -1762348242 -1980868671 -590517122 795815574 -1615320799 1789481279
REM
CELL 1.54180   50.00000   50.00000   50.00000   90.00000   90.00000   90.00000
LATT -1
SFAC C  
C      1  0.3961000000000  0.4913930000000  0.4600090000000 1.0
C      1  0.4503480000000  0.4154180000000  0.4883930000000 1.0
C      1  0.4744230000000  0.3821150000000  0.4715760000000 1.0
C      1  0.5629510000000  0.5877860000000  0.4943550000000 1.0
C      1  0.5345550000000  0.4831640000000  0.4341560000000 1.0
C      1  0.5510090000000  0.5277830000000  0.5827010000000 1.0
C      1  0.4343790000000  0.4736440000000  0.5858800000000 1.0
C      1  0.4814680000000  0.5937920000000  0.4666990000000 1.0
C      1  0.5235820000000  0.5755000000000  0.5507060000000 1.0
C      1  0.4818850000000  0.4231200000000  0.4969530000000 1.0
C      1  0.5557130000000  0.4215240000000  0.5049570000000 1.0
C      1  0.4768880000000  0.4674180000000  0.4429450000000 1.0
C      1  0.4983990000000  0.6004380000000  0.5162750000000 1.0
C      1  0.5904290000000  0.5267690000000  0.4474520000000 1.0
C      1  0.5221670000000  0.5921190000000  0.4326140000000 1.0
C      1  0.4304890000000  0.4248810000000  0.5458060000000 1.0
C      1  0.4991520000000  0.4659350000000  0.3961520000000 1.0
C      1  0.5468720000000  0.5785570000000  0.4240580000000 1.0
C      1  0.5871810000000  0.5507940000000  0.5423590000000 1.0
C      1  0.4389510000000  0.4445320000000  0.5905780000000 1.0
C      1  0.5473880000000  0.4385960000000  0.5783500000000 1.0
C      1  0.4496360000000  0.5159870000000  0.6062150000000 1.0
C      1  0.5122450000000  0.5343890000000  0.3803420000000 1.0
C      1  0.4563410000000  0.4198270000000  0.4390740000000 1.0
C      1  0.5657670000000  0.5939430000000  0.5414150000000 1.0
C      1  0.4883330000000  0.5448170000000  0.4435300000000 1.0
C      1  0.4779700000000  0.6059490000000  0.4945000000000 1.0
C      1  0.5434350000000  0.5206480000000  0.4088250000000 1.0
C      1  0.5831200000000  0.4994810000000  0.5701270000000 1.0
C      1  0.3959510000000  0.4314720000000  0.4793420000000 1.0
C      1  0.5238780000000  0.5830070000000  0.5204880000000 1.0
C      1  0.4769270000000  0.4002230000000  0.4482030000000 1.0
C      1  0.4640450000000  0.5307080000000  0.5610810000000 1.0
C      1  0.5456350000000  0.4847000000000  0.4983870000000 1.0
C      1  0.5737100000000  0.5063090000000  0.4623820000000 1.0
C      1  0.5281410000000  0.5101050000000  0.3828950000000 1.0
C      1  0.5975010000000  0.5044660000000  0.5447160000000 1.0
C      1  0.5394970000000  0.5543220000000  0.5881610000000 1.0
C      1  0.6077600000000  0.4828300000000  0.5285050000000 1.0
C      1  0.4506820000000  0.5753060000000  0.4404460000000 1.0
C      1  0.5143710000000  0.5463320000000  0.5569710000000 1.0
C      1  0.4767640000000  0.5647630000000  0.5313490000000 1.0
C      1  0.4215720000000  0.5490140000000  0.5790630000000 1.0
C      1  0.5257510000000  0.3922760000000  0.4780000000000 1.0
C      1  0.5211080000000  0.5267570000000  0.5111850000000 1.0
C      1  0.5513260000000  0.4106180000000  0.4416580000000 1.0
C      1  0.4290310000000  0.4769230000000  0.4239780000000 1.0
C      1  0.5305830000000  0.4531780000000  0.4360910000000 1.0
C      1  0.4839420000000  0.4958400000000  0.4316170000000 1.0
C      1  0.4863130000000  0.4908490000000  0.5215510000000 1.0
C      1  0.5633260000000  0.4284460000000  0.5548360000000 1.0
C      1  0.5938130000000  0.5740780000000  0.4464900000000 1.0
C      1  0.5549300000000  0.5955010000000  0.4673290000000 1.0
C      1  0.5257830000000  0.5928440000000  0.4623660000000 1.0
C      1  0.5207310000000  0.4455390000000  0.4727140000000 1.0
C      1  0.6072810000000  0.5315200000000  0.5365640000000 1.0
C      1  0.5627420000000  0.5436040000000  0.4964980000000 1.0
C      1  0.4691160000000  0.4552590000000  0.3976820000000 1.0
C      1  0.4439600000000  0.4671320000000  0.4020670000000 1.0
C      1  0.3812850000000  0.4483710000000  0.4957430000000 1.0
C      1  0.4882970000000  0.4482300000000  0.5392380000000 1.0
C      1  0.5671260000000  0.5259970000000  0.5210770000000 1.0
C      1  0.4884990000000  0.5635860000000  0.4694460000000 1.0
C      1  0.5038410000000  0.4506530000000  0.5916230000000 1.0
C      1  0.5988290000000  0.4711470000000  0.4333140000000 1.0
C      1  0.5757140000000  0.5015920000000  0.5000860000000 1.0
C      1  0.5505140000000  0.4113660000000  0.5330770000000 1.0
C      1  0.5233400000000  0.4673960000000  0.6083440000000 1.0
C      1  0.5323760000000  0.5426420000000  0.4558160000000 1.0
C      1  0.4735450000000  0.5081340000000  0.4051390000000 1.0
C      1  0.5170410000000  0.4462960000000  0.4099600000000 1.0
C      1  0.4262020000000  0.5108250000000  0.4990800000000 1.0
C      1  0.3994880000000  0.4697410000000  0.5510970000000 1.0
C      1  0.5712000000000  0.5436910000000  0.3984160000000 1.0
C      1  0.4139350000000  0.4886310000000  0.5138190000000 1.0
C      1  0.5982090000000  0.5508950000000  0.4615570000000 1.0
C      1  0.5496410000000  0.4655570000000  0.5919970000000 1.0
C      1  0.5121320000000  0.4211610000000  0.5139640000000 1.0
C      1  0.5569990000000  0.4966610000000  0.4224790000000 1.0
C      1  0.5376710000000  0.5087880000000  0.5630290000000 1.0
C      1  0.4895710000000  0.3858890000000  0.5192790000000 1.0
C      1  0.4526650000000  0.6029610000000  0.5384420000000 1.0
C      1  0.5813300000000  0.4838820000000  0.4171120000000 1.0
C      1  0.5193800000000  0.5309840000000  0.4310980000000 1.0
C      1  0.4893550000000  0.5330260000000  0.3984330000000 1.0
C      1  0.4601370000000  0.4838200000000  0.5337650000000 1.0
C      1  0.5891250000000  0.5778310000000  0.5320420000000 1.0
C      1  0.5299450000000  0.5085280000000  0.4896300000000 1.0
C      1  0.5304220000000  0.4195310000000  0.4901650000000 1.0
C      1  0.5335820000000  0.4717190000000  0.5227860000000 1.0
C      1  0.4581640000000  0.5997070000000  0.4515040000000 1.0
C      1  0.4727930000000  0.5184810000000  0.4481390000000 1.0
C      1  0.3973090000000  0.5403620000000  0.4845530000000 1.0
C      1  0.4242160000000  0.5595020000000  0.5310740000000 1.0
C      1  0.5435060000000  0.4648900000000  0.4765610000000 1.0
C      1  0.5095770000000  0.5001750000000  0.5700730000000 1.0
C      1  0.5103750000000  0.4092360000000  0.5665310000000 1.0
C      1  0.5002940000000  0.5113230000000  0.5953660000000 1.0
C      1  0.4455060000000  0.5244220000000  0.5148670000000 1.0
C      1  0.4783840000000  0.4192270000000  0.5394940000000 1.0
C      1  0.5487750000000  0.5254040000000  0.4739860000000 1.0
C      1  0.4611770000000  0.4448320000000  0.6104490000000 1.0
C      1  0.4437870000000  0.5449240000000  0.3970640000000 1.0
C      1  0.6136350000000  0.5355700000000  0.5076050000000 1.0
C      1  0.4703840000000  0.4648470000000  0.5551020000000 1.0
C      1  0.4712890000000  0.5147320000000  0.5864830000000 1.0
C      1  0.5015910000000  0.5919550000000  0.5638580000000 1.0
C      1  0.5677100000000  0.5839590000000  0.4438760000000 1.0
C      1  0.5784160000000  0.5228030000000  0.5852870000000 1.0
C      1  0.4354040000000  0.5801620000000  0.5501780000000 1.0
C      1  0.5936610000000  0.4578020000000  0.5259240000000 1.0
C      1  0.5403390000000  0.5211320000000  0.5342110000000 1.0
C      1  0.5876440000000  0.4430640000000  0.5490780000000 1.0
C      1  0.5200580000000  0.4355640000000  0.5727300000000 1.0
C      1  0.3867330000000  0.4941560000000  0.4871820000000 1.0
C      1  0.5188680000000  0.5640420000000  0.4728040000000 1.0
C      1  0.5837070000000  0.5321720000000  0.4205910000000 1.0
C      1  0.4669530000000  0.5070710000000  0.4743380000000 1.0
C      1  0.4702730000000  0.5556370000000  0.3976950000000 1.0
C      1  0.6079820000000  0.4691310000000  0.4817090000000 1.0
C      1  0.4151330000000  0.4486190000000  0.5335220000000 1.0
C      1  0.4984000000000  0.4273630000000  0.4197950000000 1.0
C      1  0.5197330000000  0.4013740000000  0.5381120000000 1.0
C      1  0.4363210000000  0.4673620000000  0.5141020000000 1.0
C      1  0.4721100000000  0.4688190000000  0.4723870000000 1.0
C      1  0.4093780000000  0.5407020000000  0.5516930000000 1.0
C      1  0.5122190000000  0.4865500000000  0.3816610000000 1.0
C      1  0.4412060000000  0.4278320000000  0.4623070000000 1.0
C      1  0.4920330000000  0.5205470000000  0.5184500000000 1.0
C      1  0.4147960000000  0.4397590000000  0.4594470000000 1.0
C      1  0.3833380000000  0.5205270000000  0.4997090000000 1.0
C      1  0.4479140000000  0.5602170000000  0.5703690000000 1.0
C      1  0.5488990000000  0.5985670000000  0.5171920000000 1.0
C      1  0.5931690000000  0.5517340000000  0.4911420000000 1.0
C      1  0.5280080000000  0.3967370000000  0.4489730000000 1.0
C      1  0.4729760000000  0.4418910000000  0.4248480000000 1.0
C      1  0.5771230000000  0.4324920000000  0.4870270000000 1.0
C      1  0.4265330000000  0.5294190000000  0.5977780000000 1.0
C      1  0.4863840000000  0.4740180000000  0.5791350000000 1.0
C      1  0.4512880000000  0.4141500000000  0.5273510000000 1.0
C      1  0.4372760000000  0.5571880000000  0.4596630000000 1.0
C      1  0.5671440000000  0.4514670000000  0.4651500000000 1.0
C      1  0.5501860000000  0.5809560000000  0.5624970000000 1.0
C      1  0.5896650000000  0.5791480000000  0.5020080000000 1.0
C      1  0.4513840000000  0.5987700000000  0.5073500000000 1.0
C      1  0.5996770000000  0.4462490000000  0.4994900000000 1.0
C      1  0.4960340000000  0.5865580000000  0.4235580000000 1.0
C      1  0.6254830000000  0.5134430000000  0.4952190000000 1.0
C      1  0.4256240000000  0.5055800000000  0.4235780000000 1.0
C      1  0.4644350000000  0.5743430000000  0.5894510000000 1.0
C      1  0.4821660000000  0.5924370000000  0.5403450000000 1.0
C      1  0.3825560000000  0.4886680000000  0.5361620000000 1.0
C      1  0.5116190000000  0.4928480000000  0.6140820000000 1.0
C      1  0.5280670000000  0.5573750000000  0.3829970000000 1.0
C      1  0.4694060000000  0.4727130000000  0.6129870000000 1.0
C      1  0.5032560000000  0.4096330000000  0.4414970000000 1.0
C      1  0.3939680000000  0.4362040000000  0.5173560000000 1.0
C      1  0.4473910000000  0.5206790000000  0.4116750000000 1.0
C      1  0.5125410000000  0.5020140000000  0.4359570000000 1.0
C      1  0.4924420000000  0.5781880000000  0.5882830000000 1.0
C      1  0.4376980000000  0.4990320000000  0.4747060000000 1.0
C      1  0.4872420000000  0.5396400000000  0.5429970000000 1.0
C      1  0.4756440000000  0.5662140000000  0.4251610000000 1.0
C      1  0.4539540000000  0.5677350000000  0.5119060000000 1.0
C      1  0.4843900000000  0.4293800000000  0.6011320000000 1.0
C      1  0.5021970000000  0.4657890000000  0.5177510000000 1.0
C      1  0.4157580000000  0.4685160000000  0.4509180000000 1.0
C      1  0.4183600000000  0.5099250000000  0.5505780000000 1.0
C      1  0.4411540000000  0.4676370000000  0.4807650000000 1.0
C      1  0.4694440000000  0.5265240000000  0.4974560000000 1.0
C      1  0.6063100000000  0.4923160000000  0.5005520000000 1.0
C      1  0.4125240000000  0.5415580000000  0.4605130000000 1.0
C      1  0.5499860000000  0.5632710000000  0.3994060000000 1.0
C      1  0.4132050000000  0.4865990000000  0.5705850000000 1.0
C      1  0.4803790000000  0.4104700000000  0.5771650000000 1.0
C      1  0.4475050000000  0.5116870000000  0.5416810000000 1.0
C      1  0.5564130000000  0.4380020000000  0.4402170000000 1.0
C      1  0.5566780000000  0.4841470000000  0.5675250000000 1.0
C      1  0.4460250000000  0.4259430000000  0.5699000000000 1.0
C      1  0.4450190000000  0.4874020000000  0.6096210000000 1.0
C      1  0.4642210000000  0.5535580000000  0.4864940000000 1.0
C      1  0.4939520000000  0.4528580000000  0.4887190000000 1.0
C      1  0.4974180000000  0.3877160000000  0.4893580000000 1.0
C      1  0.3858040000000  0.5179790000000  0.5300290000000 1.0
C      1  0.5556200000000  0.4648100000000  0.5437860000000 1.0
C      1  0.4500460000000  0.3846870000000  0.4886460000000 1.0
C      1  0.5266730000000  0.5577290000000  0.5017590000000 1.0
C      1  0.4583790000000  0.3853000000000  0.5184470000000 1.0
C      1  0.5876460000000  0.4738720000000  0.4598980000000 1.0
C      1  0.5091990000000  0.5535410000000  0.5876080000000 1.0
C      1  0.4166250000000  0.5129690000000  0.4514350000000 1.0
END
