TITL C-951333-8791-5 -2.44261353268941e-06 125000 -368.277977291167 0 0 61 (C1) n - 1
REM
REM in /home/bkarasulu/work/CARBON/AIRSS/Generating-Clusters/EDIP-Nigel-Params/with-SteepDescent/Only-C1/SD-CG/HFTN-CG
REM
REM
REM
REM
REM
REM ./C.cell (11c1c37f851c82e70ff6c80c92926a4b)
REM
REM compiler GCC version 9.2.1 20190827 (Red Hat 9.2.1-1)
REM options -cpp -mtune=generic -march=x86-64 -g -O0 -fpre-include=/usr/include/finclude/math-vector-fortran.h
REM seed -634799946 -145970620 575340731 1637544142 1144811145 -1501382389 1044932834 1223267887 -462439602 -1954200408 -208359448 355876196 1730237070 1246021629 471973827 -1463201450 715241784 823505127 -2033840890 609532049 -302509308 17027227 -114884807 -1355740408 791722866 -20020054 -432102986 -597494321 1631971158 -1886887755 582060754 -1840757001 918805924
REM
CELL 1.54180   50.00000   50.00000   50.00000   90.00000   90.00000   90.00000
LATT -1
SFAC C  
C      1  0.5365900000000  0.4445540000000  0.4616350000000 1.0
C      1  0.5109130000000  0.4759540000000  0.5573410000000 1.0
C      1  0.5516940000000  0.4647740000000  0.4733880000000 1.0
C      1  0.4436000000000  0.4696180000000  0.5113640000000 1.0
C      1  0.5212460000000  0.5632340000000  0.5429140000000 1.0
C      1  0.5576540000000  0.4772830000000  0.5226020000000 1.0
C      1  0.4816940000000  0.5242200000000  0.5316010000000 1.0
C      1  0.5103290000000  0.4447950000000  0.4522840000000 1.0
C      1  0.5142220000000  0.4850880000000  0.4261600000000 1.0
C      1  0.4993510000000  0.4731270000000  0.4496300000000 1.0
C      1  0.4852480000000  0.5238200000000  0.4386220000000 1.0
C      1  0.5334570000000  0.5287410000000  0.4354790000000 1.0
C      1  0.5282350000000  0.5359930000000  0.4647570000000 1.0
C      1  0.4840040000000  0.4721430000000  0.5465140000000 1.0
C      1  0.4517490000000  0.4664070000000  0.4649950000000 1.0
C      1  0.5164940000000  0.5776030000000  0.5010180000000 1.0
C      1  0.5612230000000  0.5223820000000  0.5376970000000 1.0
C      1  0.4587720000000  0.4788740000000  0.4900130000000 1.0
C      1  0.4473320000000  0.4389260000000  0.4648710000000 1.0
C      1  0.5738000000000  0.5027820000000  0.5198500000000 1.0
C      1  0.5084040000000  0.5154700000000  0.4214440000000 1.0
C      1  0.5082040000000  0.5187720000000  0.5185670000000 1.0
C      1  0.5322030000000  0.5149170000000  0.5396140000000 1.0
C      1  0.5196650000000  0.5656850000000  0.4742950000000 1.0
C      1  0.4587330000000  0.5265400000000  0.5109430000000 1.0
C      1  0.5115930000000  0.5479900000000  0.5656950000000 1.0
C      1  0.4460550000000  0.5464550000000  0.4697160000000 1.0
C      1  0.4666170000000  0.5083550000000  0.4869960000000 1.0
C      1  0.4612110000000  0.5071180000000  0.4397670000000 1.0
C      1  0.5068240000000  0.4932110000000  0.5040990000000 1.0
C      1  0.4315990000000  0.4740590000000  0.5353160000000 1.0
C      1  0.4550820000000  0.5527460000000  0.4963290000000 1.0
C      1  0.4344480000000  0.5188760000000  0.5247160000000 1.0
C      1  0.4730390000000  0.4463910000000  0.5480350000000 1.0
C      1  0.5100400000000  0.4890890000000  0.4749390000000 1.0
C      1  0.5068920000000  0.4998920000000  0.5767690000000 1.0
C      1  0.5380910000000  0.5868450000000  0.5166120000000 1.0
C      1  0.4489760000000  0.5183830000000  0.4650880000000 1.0
C      1  0.4737170000000  0.4231720000000  0.5325090000000 1.0
C      1  0.5297420000000  0.4846330000000  0.5339760000000 1.0
C      1  0.5446440000000  0.5163880000000  0.4820040000000 1.0
C      1  0.4924000000000  0.5281240000000  0.4670960000000 1.0
C      1  0.5487400000000  0.5675310000000  0.5346770000000 1.0
C      1  0.4794210000000  0.5125710000000  0.5741070000000 1.0
C      1  0.4983450000000  0.4085370000000  0.5300160000000 1.0
C      1  0.4403950000000  0.4992640000000  0.5437890000000 1.0
C      1  0.4837890000000  0.5405010000000  0.5658440000000 1.0
C      1  0.4802140000000  0.4138430000000  0.4813550000000 1.0
C      1  0.4903910000000  0.4239170000000  0.5067970000000 1.0
C      1  0.5386430000000  0.4911540000000  0.4673480000000 1.0
C      1  0.4910730000000  0.5583930000000  0.4710630000000 1.0
C      1  0.5247370000000  0.5216630000000  0.5674720000000 1.0
C      1  0.4525850000000  0.4159020000000  0.4777440000000 1.0
C      1  0.5640740000000  0.5462710000000  0.5227160000000 1.0
C      1  0.4699290000000  0.4992030000000  0.5490630000000 1.0
C      1  0.5399330000000  0.4979650000000  0.4373460000000 1.0
C      1  0.5699550000000  0.5197950000000  0.4949770000000 1.0
C      1  0.5592500000000  0.4616210000000  0.4996860000000 1.0
C      1  0.4945500000000  0.4232260000000  0.4595280000000 1.0
C      1  0.4796130000000  0.5677990000000  0.4956070000000 1.0
C      1  0.4685770000000  0.4774130000000  0.4436070000000 1.0
END
