TITL C-951343-2256-616 -4.0423904071293e-07 125000 -695.33047442787 0 0 111 (C1) n - 1
REM
REM in /home/bkarasulu/work/CARBON/AIRSS/Generating-Clusters/EDIP-Nigel-Params/with-SteepDescent/Only-C1/SD-CG/HFTN-CG
REM
REM
REM
REM
REM
REM ./C.cell (11c1c37f851c82e70ff6c80c92926a4b)
REM
REM compiler GCC version 9.2.1 20190827 (Red Hat 9.2.1-1)
REM options -cpp -mtune=generic -march=x86-64 -g -O0 -fpre-include=/usr/include/finclude/math-vector-fortran.h
REM seed 1324096662 -1577049362 160490105 985772190 -463529047 -1925987127 -139113064 782756953 -2092165720 734131561 120292181 -92083318 1183164747 -1292072848 -219728706 351486654 1002957295 1088319708 -662079672 -1001763223 -1893862628 -436193731 1004169492 1559707018 1724670413 -2144084058 1556099551 2052977651 211265237 -843342466 539809251 92555948 1457262223
REM
CELL 1.54180   50.00000   50.00000   50.00000   90.00000   90.00000   90.00000
LATT -1
SFAC C  
C      1  0.4826080000000  0.4656080000000  0.5837450000000 1.0
C      1  0.5639320000000  0.4434500000000  0.4841540000000 1.0
C      1  0.4732150000000  0.5410870000000  0.5681880000000 1.0
C      1  0.5029870000000  0.4993890000000  0.4839700000000 1.0
C      1  0.4844280000000  0.4058140000000  0.4831290000000 1.0
C      1  0.5745720000000  0.5479140000000  0.4589150000000 1.0
C      1  0.5920700000000  0.4876300000000  0.4709980000000 1.0
C      1  0.4570680000000  0.5220030000000  0.5067890000000 1.0
C      1  0.4413590000000  0.4569330000000  0.5462910000000 1.0
C      1  0.5700370000000  0.5393550000000  0.5280020000000 1.0
C      1  0.4673030000000  0.4399680000000  0.5459780000000 1.0
C      1  0.5844810000000  0.4906640000000  0.4449190000000 1.0
C      1  0.5305450000000  0.5230500000000  0.5005950000000 1.0
C      1  0.4618210000000  0.4935150000000  0.5196180000000 1.0
C      1  0.4778090000000  0.5318260000000  0.4247910000000 1.0
C      1  0.5025920000000  0.5176400000000  0.4218980000000 1.0
C      1  0.5800150000000  0.5534510000000  0.5056400000000 1.0
C      1  0.4297310000000  0.5779990000000  0.4947730000000 1.0
C      1  0.4827080000000  0.5595720000000  0.4332660000000 1.0
C      1  0.4029790000000  0.4961200000000  0.5401880000000 1.0
C      1  0.4621850000000  0.4863310000000  0.4453220000000 1.0
C      1  0.4188070000000  0.5036940000000  0.4945450000000 1.0
C      1  0.4268190000000  0.4581540000000  0.5208970000000 1.0
C      1  0.4383890000000  0.4191260000000  0.4691920000000 1.0
C      1  0.4945000000000  0.4651650000000  0.4133580000000 1.0
C      1  0.4258250000000  0.4980890000000  0.4665720000000 1.0
C      1  0.4739980000000  0.5388760000000  0.5238650000000 1.0
C      1  0.5200540000000  0.5468070000000  0.4878470000000 1.0
C      1  0.5092420000000  0.5703150000000  0.4302560000000 1.0
C      1  0.5710080000000  0.4977300000000  0.5370490000000 1.0
C      1  0.4549940000000  0.5122350000000  0.4292620000000 1.0
C      1  0.4973500000000  0.5403910000000  0.4693930000000 1.0
C      1  0.5319750000000  0.5525050000000  0.4353230000000 1.0
C      1  0.5605220000000  0.5753300000000  0.5016900000000 1.0
C      1  0.4290620000000  0.4713980000000  0.4553630000000 1.0
C      1  0.5472690000000  0.4412780000000  0.4586230000000 1.0
C      1  0.4250930000000  0.5015430000000  0.5559870000000 1.0
C      1  0.4276390000000  0.5263680000000  0.5673710000000 1.0
C      1  0.4680920000000  0.5245810000000  0.4775980000000 1.0
C      1  0.4755200000000  0.4407000000000  0.5732520000000 1.0
C      1  0.4939600000000  0.5834400000000  0.4623180000000 1.0
C      1  0.5522430000000  0.4757530000000  0.4183910000000 1.0
C      1  0.5889200000000  0.4614280000000  0.4857790000000 1.0
C      1  0.4632410000000  0.5672340000000  0.5278780000000 1.0
C      1  0.5255690000000  0.4792590000000  0.5226600000000 1.0
C      1  0.5594670000000  0.4966980000000  0.4350120000000 1.0
C      1  0.4133300000000  0.4846080000000  0.5166370000000 1.0
C      1  0.5002420000000  0.4970050000000  0.5160210000000 1.0
C      1  0.5218460000000  0.4911160000000  0.5974110000000 1.0
C      1  0.4734090000000  0.5693020000000  0.4781370000000 1.0
C      1  0.5173940000000  0.5926010000000  0.4789750000000 1.0
C      1  0.5300800000000  0.5825960000000  0.5437390000000 1.0
C      1  0.5209630000000  0.5593690000000  0.5609210000000 1.0
C      1  0.5379180000000  0.5700170000000  0.4808680000000 1.0
C      1  0.4454520000000  0.4480690000000  0.5003110000000 1.0
C      1  0.5070430000000  0.5149050000000  0.5933600000000 1.0
C      1  0.5515540000000  0.5634430000000  0.4545770000000 1.0
C      1  0.5230660000000  0.5314890000000  0.5473730000000 1.0
C      1  0.5486590000000  0.5041660000000  0.4849630000000 1.0
C      1  0.5058680000000  0.4266700000000  0.4392670000000 1.0
C      1  0.5114830000000  0.4657020000000  0.5883980000000 1.0
C      1  0.4497770000000  0.4863180000000  0.5495270000000 1.0
C      1  0.4202600000000  0.5312420000000  0.5031050000000 1.0
C      1  0.5256760000000  0.4497710000000  0.5682050000000 1.0
C      1  0.4917770000000  0.5645890000000  0.5660970000000 1.0
C      1  0.5971980000000  0.4680880000000  0.5121020000000 1.0
C      1  0.4751490000000  0.4963330000000  0.4712800000000 1.0
C      1  0.4400620000000  0.5452140000000  0.4621880000000 1.0
C      1  0.5455770000000  0.4870970000000  0.5459580000000 1.0
C      1  0.4397560000000  0.4100940000000  0.4976960000000 1.0
C      1  0.5385830000000  0.4577360000000  0.4350290000000 1.0
C      1  0.5522200000000  0.4316450000000  0.5100920000000 1.0
C      1  0.4932940000000  0.4566450000000  0.4777910000000 1.0
C      1  0.5260360000000  0.4174080000000  0.5093960000000 1.0
C      1  0.4850620000000  0.4575880000000  0.5294670000000 1.0
C      1  0.5195240000000  0.4734070000000  0.4715500000000 1.0
C      1  0.4671910000000  0.4100730000000  0.5055840000000 1.0
C      1  0.5021320000000  0.4918990000000  0.4115810000000 1.0
C      1  0.4572190000000  0.5788200000000  0.5004240000000 1.0
C      1  0.5879610000000  0.4947130000000  0.5152080000000 1.0
C      1  0.5115900000000  0.4169910000000  0.4846500000000 1.0
C      1  0.5139370000000  0.4520960000000  0.5324880000000 1.0
C      1  0.5091410000000  0.6027930000000  0.5037860000000 1.0
C      1  0.5184390000000  0.5271480000000  0.4453460000000 1.0
C      1  0.5792820000000  0.5072370000000  0.4890550000000 1.0
C      1  0.5070340000000  0.5925670000000  0.5298410000000 1.0
C      1  0.4788090000000  0.4137330000000  0.5323780000000 1.0
C      1  0.5391310000000  0.4773760000000  0.4959720000000 1.0
C      1  0.4449980000000  0.5474890000000  0.5647100000000 1.0
C      1  0.4709460000000  0.4898530000000  0.5717620000000 1.0
C      1  0.4391850000000  0.5661090000000  0.5445030000000 1.0
C      1  0.4831720000000  0.4408000000000  0.4528090000000 1.0
C      1  0.5529540000000  0.5821440000000  0.5277760000000 1.0
C      1  0.4235440000000  0.5527220000000  0.4842920000000 1.0
C      1  0.4989210000000  0.5237220000000  0.5306210000000 1.0
C      1  0.4310120000000  0.4488030000000  0.4733090000000 1.0
C      1  0.4834180000000  0.5826950000000  0.5436560000000 1.0
C      1  0.5259550000000  0.4210630000000  0.4599530000000 1.0
C      1  0.5851140000000  0.5364880000000  0.4823260000000 1.0
C      1  0.5430510000000  0.5304390000000  0.5264440000000 1.0
C      1  0.4727800000000  0.4644560000000  0.5019390000000 1.0
C      1  0.5591490000000  0.4419920000000  0.5356070000000 1.0
C      1  0.4729140000000  0.4607290000000  0.4326110000000 1.0
C      1  0.5322920000000  0.5082780000000  0.5647550000000 1.0
C      1  0.4810270000000  0.5157980000000  0.5815310000000 1.0
C      1  0.5164890000000  0.4461650000000  0.4204860000000 1.0
C      1  0.5501750000000  0.4591040000000  0.5563670000000 1.0
C      1  0.5087830000000  0.4140690000000  0.5326960000000 1.0
C      1  0.4675520000000  0.4157130000000  0.4602720000000 1.0
C      1  0.4344210000000  0.5205260000000  0.4491870000000 1.0
C      1  0.5380180000000  0.5037500000000  0.4549840000000 1.0
END
