TITL C-951333-8791-689 -6.15267150441673e-06 125000 -872.328272527864 0 0 139 (C1) n - 1
REM
REM in /home/bkarasulu/work/CARBON/AIRSS/Generating-Clusters/EDIP-Nigel-Params/with-SteepDescent/Only-C1/SD-CG/HFTN-CG
REM
REM
REM
REM
REM
REM ./C.cell (11c1c37f851c82e70ff6c80c92926a4b)
REM
REM compiler GCC version 9.2.1 20190827 (Red Hat 9.2.1-1)
REM options -cpp -mtune=generic -march=x86-64 -g -O0 -fpre-include=/usr/include/finclude/math-vector-fortran.h
REM seed 879359545 -1340796736 574576834 855705548 1578086149 1238274409 -162084843 -124775218 558913372 -826302180 597605830 2028776015 -772520035 546173709 1604558945 -58557296 1998623933 139102593 1851005848 -1132755116 -1876004218 1583278832 971946284 -1155458681 642872418 -2144185926 1791053033 2146137793 -427485068 -793305512 -774078006 802525303 -1647271286
REM
CELL 1.54180   50.00000   50.00000   50.00000   90.00000   90.00000   90.00000
LATT -1
SFAC C  
C      1  0.5443190000000  0.5300240000000  0.4008990000000 1.0
C      1  0.4725820000000  0.4829440000000  0.4510850000000 1.0
C      1  0.4630500000000  0.5669660000000  0.4965260000000 1.0
C      1  0.5594260000000  0.4285080000000  0.4707860000000 1.0
C      1  0.4686370000000  0.4438480000000  0.4831350000000 1.0
C      1  0.4238280000000  0.4680830000000  0.5053020000000 1.0
C      1  0.5128980000000  0.4880470000000  0.4024560000000 1.0
C      1  0.5550730000000  0.4193180000000  0.5229890000000 1.0
C      1  0.4178830000000  0.5311030000000  0.5435220000000 1.0
C      1  0.4893810000000  0.5150430000000  0.4415430000000 1.0
C      1  0.4768560000000  0.5715530000000  0.4396230000000 1.0
C      1  0.5425370000000  0.5819250000000  0.4676090000000 1.0
C      1  0.5042320000000  0.4270420000000  0.5532190000000 1.0
C      1  0.5854590000000  0.4508040000000  0.5393910000000 1.0
C      1  0.5957890000000  0.4627630000000  0.5162910000000 1.0
C      1  0.5102270000000  0.5711640000000  0.5811520000000 1.0
C      1  0.5424750000000  0.5385540000000  0.5826360000000 1.0
C      1  0.4332930000000  0.4256340000000  0.5136370000000 1.0
C      1  0.4330150000000  0.5049420000000  0.5458830000000 1.0
C      1  0.5544140000000  0.5148530000000  0.5904630000000 1.0
C      1  0.5444840000000  0.4848090000000  0.5540610000000 1.0
C      1  0.5231090000000  0.4554240000000  0.5817840000000 1.0
C      1  0.5807270000000  0.4512750000000  0.4664390000000 1.0
C      1  0.5280760000000  0.4483270000000  0.4342440000000 1.0
C      1  0.5634090000000  0.4936460000000  0.5754600000000 1.0
C      1  0.4800370000000  0.5255240000000  0.4895340000000 1.0
C      1  0.5603760000000  0.4889210000000  0.4971830000000 1.0
C      1  0.4668190000000  0.5323180000000  0.5811050000000 1.0
C      1  0.4579570000000  0.5551680000000  0.4542200000000 1.0
C      1  0.5092000000000  0.5743220000000  0.5342680000000 1.0
C      1  0.4071670000000  0.4674830000000  0.4812350000000 1.0
C      1  0.5104840000000  0.5864830000000  0.5060510000000 1.0
C      1  0.4714740000000  0.4536900000000  0.5779580000000 1.0
C      1  0.4777150000000  0.5664590000000  0.5435220000000 1.0
C      1  0.4336630000000  0.5618990000000  0.5597860000000 1.0
C      1  0.4236760000000  0.4621170000000  0.4330360000000 1.0
C      1  0.5126130000000  0.4910140000000  0.5072570000000 1.0
C      1  0.5132270000000  0.5386410000000  0.5182870000000 1.0
C      1  0.5792650000000  0.4971000000000  0.4518750000000 1.0
C      1  0.3955030000000  0.5115290000000  0.5008660000000 1.0
C      1  0.5393660000000  0.4794770000000  0.4357520000000 1.0
C      1  0.4461060000000  0.5216810000000  0.5979120000000 1.0
C      1  0.4437420000000  0.5119440000000  0.4682050000000 1.0
C      1  0.4665980000000  0.4658990000000  0.5324580000000 1.0
C      1  0.5184570000000  0.3952400000000  0.4882680000000 1.0
C      1  0.4942050000000  0.5566860000000  0.4189290000000 1.0
C      1  0.5485130000000  0.5341480000000  0.4527620000000 1.0
C      1  0.4258500000000  0.5451380000000  0.5184840000000 1.0
C      1  0.5448750000000  0.5545940000000  0.4144880000000 1.0
C      1  0.5569190000000  0.4997670000000  0.5271520000000 1.0
C      1  0.4979380000000  0.4393090000000  0.5784370000000 1.0
C      1  0.4609180000000  0.4520540000000  0.4539740000000 1.0
C      1  0.5620570000000  0.4364580000000  0.5461480000000 1.0
C      1  0.5193670000000  0.4826770000000  0.5911880000000 1.0
C      1  0.3978800000000  0.4950700000000  0.4756560000000 1.0
C      1  0.4487740000000  0.4974740000000  0.4171080000000 1.0
C      1  0.5743320000000  0.4695780000000  0.4456410000000 1.0
C      1  0.4256160000000  0.4890720000000  0.5704130000000 1.0
C      1  0.4315060000000  0.5715910000000  0.5319410000000 1.0
C      1  0.4635930000000  0.5385330000000  0.5089610000000 1.0
C      1  0.4516450000000  0.4199450000000  0.5371180000000 1.0
C      1  0.5337360000000  0.5050230000000  0.4010560000000 1.0
C      1  0.5156270000000  0.5452400000000  0.5910870000000 1.0
C      1  0.5049960000000  0.5408690000000  0.4873150000000 1.0
C      1  0.4950190000000  0.4958550000000  0.5976410000000 1.0
C      1  0.4096720000000  0.4716610000000  0.5304290000000 1.0
C      1  0.5742580000000  0.4622400000000  0.4959930000000 1.0
C      1  0.4157770000000  0.5099440000000  0.4563280000000 1.0
C      1  0.4964560000000  0.4633600000000  0.5422710000000 1.0
C      1  0.6042180000000  0.5096360000000  0.4955510000000 1.0
C      1  0.4743740000000  0.4106930000000  0.5192020000000 1.0
C      1  0.5859960000000  0.5060100000000  0.5382930000000 1.0
C      1  0.6027020000000  0.5377560000000  0.5066420000000 1.0
C      1  0.5891730000000  0.4972640000000  0.5657130000000 1.0
C      1  0.4853470000000  0.4100760000000  0.4573000000000 1.0
C      1  0.4265170000000  0.4247820000000  0.4662140000000 1.0
C      1  0.5228120000000  0.4925710000000  0.4598780000000 1.0
C      1  0.4139450000000  0.5442770000000  0.4698500000000 1.0
C      1  0.4931810000000  0.5712380000000  0.4864580000000 1.0
C      1  0.3986340000000  0.5002280000000  0.5288940000000 1.0
C      1  0.4247600000000  0.4627060000000  0.5562350000000 1.0
C      1  0.5393300000000  0.4542770000000  0.5555460000000 1.0
C      1  0.4714550000000  0.4814570000000  0.5875350000000 1.0
C      1  0.5254170000000  0.5113850000000  0.5256650000000 1.0
C      1  0.4490790000000  0.4522230000000  0.5069840000000 1.0
C      1  0.5000640000000  0.4089310000000  0.5316850000000 1.0
C      1  0.4611990000000  0.5592500000000  0.5685930000000 1.0
C      1  0.5910690000000  0.5735730000000  0.4719200000000 1.0
C      1  0.4811940000000  0.5122720000000  0.5507390000000 1.0
C      1  0.5489760000000  0.5557310000000  0.5597920000000 1.0
C      1  0.4228030000000  0.4920520000000  0.4303780000000 1.0
C      1  0.5574400000000  0.5949890000000  0.5126000000000 1.0
C      1  0.4962700000000  0.4542600000000  0.4821280000000 1.0
C      1  0.5206310000000  0.4123920000000  0.5113640000000 1.0
C      1  0.5061020000000  0.4910190000000  0.5554790000000 1.0
C      1  0.5684570000000  0.5766850000000  0.4553730000000 1.0
C      1  0.5268630000000  0.5750460000000  0.5584590000000 1.0
C      1  0.4054090000000  0.5391590000000  0.4971680000000 1.0
C      1  0.4457890000000  0.4944240000000  0.5911520000000 1.0
C      1  0.4175810000000  0.4505550000000  0.4593560000000 1.0
C      1  0.4524320000000  0.4485540000000  0.5534920000000 1.0
C      1  0.4356720000000  0.5639700000000  0.4699070000000 1.0
C      1  0.4476280000000  0.4499260000000  0.4179540000000 1.0
C      1  0.5165740000000  0.5272260000000  0.4588850000000 1.0
C      1  0.5332960000000  0.4880060000000  0.4866280000000 1.0
C      1  0.4687430000000  0.4131690000000  0.4870450000000 1.0
C      1  0.4925040000000  0.4708960000000  0.4110340000000 1.0
C      1  0.5152210000000  0.4654870000000  0.5204700000000 1.0
C      1  0.4584830000000  0.5800570000000  0.5235090000000 1.0
C      1  0.5682430000000  0.5693630000000  0.5144420000000 1.0
C      1  0.5141180000000  0.4074610000000  0.4633310000000 1.0
C      1  0.4596320000000  0.5269310000000  0.4480730000000 1.0
C      1  0.4615580000000  0.4974200000000  0.5321390000000 1.0
C      1  0.5365960000000  0.5928720000000  0.4942440000000 1.0
C      1  0.4587880000000  0.4888140000000  0.4777060000000 1.0
C      1  0.5576670000000  0.5096020000000  0.4374220000000 1.0
C      1  0.5211140000000  0.5598760000000  0.4293850000000 1.0
C      1  0.4790210000000  0.4978760000000  0.5000390000000 1.0
C      1  0.6047910000000  0.4911570000000  0.5198300000000 1.0
C      1  0.5536770000000  0.4388770000000  0.4993150000000 1.0
C      1  0.4860730000000  0.5282760000000  0.4132770000000 1.0
C      1  0.4948200000000  0.5844710000000  0.4591810000000 1.0
C      1  0.4770980000000  0.4315580000000  0.4359260000000 1.0
C      1  0.5184380000000  0.4445280000000  0.5005960000000 1.0
C      1  0.5776480000000  0.5071120000000  0.4805370000000 1.0
C      1  0.4632740000000  0.4735410000000  0.4087500000000 1.0
C      1  0.5638840000000  0.5333900000000  0.4791730000000 1.0
C      1  0.5815520000000  0.5546800000000  0.4919840000000 1.0
C      1  0.4983490000000  0.4758750000000  0.4624810000000 1.0
C      1  0.5675380000000  0.5599930000000  0.4316610000000 1.0
C      1  0.4575090000000  0.5237460000000  0.4095860000000 1.0
C      1  0.4939870000000  0.5249360000000  0.5910680000000 1.0
C      1  0.5912500000000  0.5349530000000  0.5344050000000 1.0
C      1  0.5008820000000  0.4459300000000  0.4226860000000 1.0
C      1  0.4842850000000  0.5378880000000  0.5319960000000 1.0
C      1  0.4383170000000  0.4107990000000  0.4874230000000 1.0
C      1  0.5214200000000  0.5811270000000  0.4484970000000 1.0
C      1  0.5335460000000  0.4287700000000  0.4557570000000 1.0
C      1  0.5694230000000  0.5541740000000  0.5385860000000 1.0
END
