TITL C-950525-1983-109 -8.28298169528829e-07 125000 -767.497002028313 0 0 123 (C1) n - 1
REM
REM in /home/bkarasulu/work/CARBON/AIRSS/Generating-Clusters/EDIP-Nigel-Params/with-SteepDescent/Only-C1/SD-CG/HFTN-CG
REM
REM
REM
REM
REM
REM ./C.cell (11c1c37f851c82e70ff6c80c92926a4b)
REM
REM compiler GCC version 9.2.1 20190827 (Red Hat 9.2.1-1)
REM options -cpp -mtune=generic -march=x86-64 -g -O0 -fpre-include=/usr/include/finclude/math-vector-fortran.h
REM seed 1807406210 1006724741 -1280733082 411224979 -1004547427 -451067511 1560061624 1237008623 -1544864038 857010963 -2000101294 2006328034 689135668 441129622 -88077906 1015953613 -715141389 -1375526813 1443954758 803957933 -1852499843 1698370658 -245361362 -152540355 1264867245 -2115087537 524298604 563882253 -105014941 -1637282759 -1005966995 -307720354 -1219197267
REM
CELL 1.54180   50.00000   50.00000   50.00000   90.00000   90.00000   90.00000
LATT -1
SFAC C  
C      1  0.4698830000000  0.5660490000000  0.5603790000000 1.0
C      1  0.5283310000000  0.5232020000000  0.5509120000000 1.0
C      1  0.5844250000000  0.4998530000000  0.5348910000000 1.0
C      1  0.4477580000000  0.5731160000000  0.4722690000000 1.0
C      1  0.4738900000000  0.4333500000000  0.4516830000000 1.0
C      1  0.4494030000000  0.5318630000000  0.4992350000000 1.0
C      1  0.4478000000000  0.5659220000000  0.5376370000000 1.0
C      1  0.4358980000000  0.4147120000000  0.4743920000000 1.0
C      1  0.4577560000000  0.4861120000000  0.5080520000000 1.0
C      1  0.5251010000000  0.4830240000000  0.5801400000000 1.0
C      1  0.5045870000000  0.5784790000000  0.5228720000000 1.0
C      1  0.5329490000000  0.5517870000000  0.5594420000000 1.0
C      1  0.5951920000000  0.4848060000000  0.5110820000000 1.0
C      1  0.5403090000000  0.5115410000000  0.4113850000000 1.0
C      1  0.5146610000000  0.4559580000000  0.5722560000000 1.0
C      1  0.5324470000000  0.5411450000000  0.4788200000000 1.0
C      1  0.5707190000000  0.5617890000000  0.4577350000000 1.0
C      1  0.4204350000000  0.5309940000000  0.4377210000000 1.0
C      1  0.5816590000000  0.4317320000000  0.5059900000000 1.0
C      1  0.3995590000000  0.4761100000000  0.5284690000000 1.0
C      1  0.5642550000000  0.4812590000000  0.5461120000000 1.0
C      1  0.4443440000000  0.5201220000000  0.5439950000000 1.0
C      1  0.4721670000000  0.4313530000000  0.5658300000000 1.0
C      1  0.5002250000000  0.5273640000000  0.4186540000000 1.0
C      1  0.5208850000000  0.5098980000000  0.3909070000000 1.0
C      1  0.5549110000000  0.5689570000000  0.5506220000000 1.0
C      1  0.4720390000000  0.4759530000000  0.4267930000000 1.0
C      1  0.5491700000000  0.4246300000000  0.4647510000000 1.0
C      1  0.5007920000000  0.4790580000000  0.5244130000000 1.0
C      1  0.4839470000000  0.4139960000000  0.5461340000000 1.0
C      1  0.5535110000000  0.4636910000000  0.5251130000000 1.0
C      1  0.5329740000000  0.5693230000000  0.5195390000000 1.0
C      1  0.4280360000000  0.4901690000000  0.4218240000000 1.0
C      1  0.4815190000000  0.4087830000000  0.4941450000000 1.0
C      1  0.4837250000000  0.4914650000000  0.4504210000000 1.0
C      1  0.5498020000000  0.5382090000000  0.4194500000000 1.0
C      1  0.5100650000000  0.4157520000000  0.4913010000000 1.0
C      1  0.4595080000000  0.5404030000000  0.5255650000000 1.0
C      1  0.4513480000000  0.5331560000000  0.4443550000000 1.0
C      1  0.4496150000000  0.5245770000000  0.5723510000000 1.0
C      1  0.5238390000000  0.4832650000000  0.4789210000000 1.0
C      1  0.4922100000000  0.5833800000000  0.4953200000000 1.0
C      1  0.5049900000000  0.5137960000000  0.4466940000000 1.0
C      1  0.4733130000000  0.5113500000000  0.3971940000000 1.0
C      1  0.5527500000000  0.4875930000000  0.4219230000000 1.0
C      1  0.4662690000000  0.5095510000000  0.4915900000000 1.0
C      1  0.5430770000000  0.4621630000000  0.4320580000000 1.0
C      1  0.4288560000000  0.4687220000000  0.4452800000000 1.0
C      1  0.4852500000000  0.5136310000000  0.6005850000000 1.0
C      1  0.4639050000000  0.4135170000000  0.4704340000000 1.0
C      1  0.5146680000000  0.5580570000000  0.5813450000000 1.0
C      1  0.5280600000000  0.4336220000000  0.5572170000000 1.0
C      1  0.5395380000000  0.5185920000000  0.5227920000000 1.0
C      1  0.4558960000000  0.4932480000000  0.5376870000000 1.0
C      1  0.5508160000000  0.4912630000000  0.5699610000000 1.0
C      1  0.5076030000000  0.5801360000000  0.4697040000000 1.0
C      1  0.5017280000000  0.4710040000000  0.4634780000000 1.0
C      1  0.4883680000000  0.4486860000000  0.5822880000000 1.0
C      1  0.5751880000000  0.4620330000000  0.5035510000000 1.0
C      1  0.5577670000000  0.5184180000000  0.5749840000000 1.0
C      1  0.5583810000000  0.4172090000000  0.4924620000000 1.0
C      1  0.4426430000000  0.4693780000000  0.5504260000000 1.0
C      1  0.4920890000000  0.5667210000000  0.4473860000000 1.0
C      1  0.4595910000000  0.4489470000000  0.5348360000000 1.0
C      1  0.4945240000000  0.5191110000000  0.4972270000000 1.0
C      1  0.4429760000000  0.4285950000000  0.5192810000000 1.0
C      1  0.4624150000000  0.5616370000000  0.4493430000000 1.0
C      1  0.5712050000000  0.5263420000000  0.5245010000000 1.0
C      1  0.5813160000000  0.5292240000000  0.4968410000000 1.0
C      1  0.5744660000000  0.4242530000000  0.5335930000000 1.0
C      1  0.5663210000000  0.5371510000000  0.4432090000000 1.0
C      1  0.4897300000000  0.5368030000000  0.5228130000000 1.0
C      1  0.5765190000000  0.4959200000000  0.4680240000000 1.0
C      1  0.4964050000000  0.4692420000000  0.4111230000000 1.0
C      1  0.5327260000000  0.4995770000000  0.4528920000000 1.0
C      1  0.4191220000000  0.4622070000000  0.4827330000000 1.0
C      1  0.5742340000000  0.5577210000000  0.5318910000000 1.0
C      1  0.5310630000000  0.5420310000000  0.5080140000000 1.0
C      1  0.5338150000000  0.4175150000000  0.5095810000000 1.0
C      1  0.5199090000000  0.4180240000000  0.4638780000000 1.0
C      1  0.4559920000000  0.4536660000000  0.4387210000000 1.0
C      1  0.5155570000000  0.4975310000000  0.5052330000000 1.0
C      1  0.4747670000000  0.4676190000000  0.5974320000000 1.0
C      1  0.4962000000000  0.5752380000000  0.5517830000000 1.0
C      1  0.4771340000000  0.5368010000000  0.5714140000000 1.0
C      1  0.4552690000000  0.4940920000000  0.4119510000000 1.0
C      1  0.5244690000000  0.5342970000000  0.5991830000000 1.0
C      1  0.5052270000000  0.5565660000000  0.4224430000000 1.0
C      1  0.4137550000000  0.4842080000000  0.5044120000000 1.0
C      1  0.4045230000000  0.5117430000000  0.5156830000000 1.0
C      1  0.4149920000000  0.4674120000000  0.5493720000000 1.0
C      1  0.4968220000000  0.4936890000000  0.3918870000000 1.0
C      1  0.4342030000000  0.5445200000000  0.4773670000000 1.0
C      1  0.4958680000000  0.5223910000000  0.5485150000000 1.0
C      1  0.4430990000000  0.5035480000000  0.5899880000000 1.0
C      1  0.5549200000000  0.5181920000000  0.4631970000000 1.0
C      1  0.5839080000000  0.5560490000000  0.4837600000000 1.0
C      1  0.5658190000000  0.4699170000000  0.4759090000000 1.0
C      1  0.4647200000000  0.5854950000000  0.4909490000000 1.0
C      1  0.5587810000000  0.4508760000000  0.4545410000000 1.0
C      1  0.5114680000000  0.4116340000000  0.5509390000000 1.0
C      1  0.5130150000000  0.4584660000000  0.4358930000000 1.0
C      1  0.5048780000000  0.5320540000000  0.4714530000000 1.0
C      1  0.4675560000000  0.4086470000000  0.5206100000000 1.0
C      1  0.4107940000000  0.5120440000000  0.4194130000000 1.0
C      1  0.4151500000000  0.5205730000000  0.4646910000000 1.0
C      1  0.4197680000000  0.5571650000000  0.5400170000000 1.0
C      1  0.4319710000000  0.4940640000000  0.4655290000000 1.0
C      1  0.4855230000000  0.4944280000000  0.5446230000000 1.0
C      1  0.5475850000000  0.5841540000000  0.4982920000000 1.0
C      1  0.4780690000000  0.4638860000000  0.5127990000000 1.0
C      1  0.5025940000000  0.4313890000000  0.4438170000000 1.0
C      1  0.5465020000000  0.4352300000000  0.5329110000000 1.0
C      1  0.5122310000000  0.5068810000000  0.5949520000000 1.0
C      1  0.4158540000000  0.5281360000000  0.5376010000000 1.0
C      1  0.5374760000000  0.5715100000000  0.4724450000000 1.0
C      1  0.5951440000000  0.5049960000000  0.4884930000000 1.0
C      1  0.4327150000000  0.4362240000000  0.4921330000000 1.0
C      1  0.5528530000000  0.5311540000000  0.5992040000000 1.0
C      1  0.4657210000000  0.4934320000000  0.6025270000000 1.0
C      1  0.5751930000000  0.5740850000000  0.5056930000000 1.0
C      1  0.5326760000000  0.5606650000000  0.4185180000000 1.0
C      1  0.4600980000000  0.5060360000000  0.4630110000000 1.0
END
