TITL C-950524-1808-479 -1.80397523498614e-06 125000 -338.882916085664 0 0 56 (C1) n - 1
REM
REM in /home/bkarasulu/work/CARBON/AIRSS/Generating-Clusters/EDIP-Nigel-Params/with-SteepDescent/Only-C1/SD-CG/HFTN-CG
REM
REM
REM
REM
REM
REM ./C.cell (11c1c37f851c82e70ff6c80c92926a4b)
REM
REM compiler GCC version 9.2.1 20190827 (Red Hat 9.2.1-1)
REM options -cpp -mtune=generic -march=x86-64 -g -O0 -fpre-include=/usr/include/finclude/math-vector-fortran.h
REM seed 824794729 541689108 -2093251614 1782324215 -774442941 -1603350094 -1652368586 -897982847 -532611276 410119099 1310753618 -1391570095 520429148 -926414763 -928797938 -1046463004 -1315717316 -335063826 943451003 -1106744864 318112178 -173313243 565609443 1446042767 2066653877 1829589290 -1493362923 1327027820 163971276 1141197750 957538071 174992583 -982052068
REM
CELL 1.54180   50.00000   50.00000   50.00000   90.00000   90.00000   90.00000
LATT -1
SFAC C  
C      1  0.4694180000000  0.5076880000000  0.5735360000000 1.0
C      1  0.5062350000000  0.4888360000000  0.5455860000000 1.0
C      1  0.4506390000000  0.5354420000000  0.5394170000000 1.0
C      1  0.4723710000000  0.4552650000000  0.5309320000000 1.0
C      1  0.5565040000000  0.4657460000000  0.5038600000000 1.0
C      1  0.5495640000000  0.5131320000000  0.5440350000000 1.0
C      1  0.5553900000000  0.4454230000000  0.4827810000000 1.0
C      1  0.4936060000000  0.5512840000000  0.5630910000000 1.0
C      1  0.4771530000000  0.5372510000000  0.4759810000000 1.0
C      1  0.5183840000000  0.4465840000000  0.4905840000000 1.0
C      1  0.4400620000000  0.5498340000000  0.5051960000000 1.0
C      1  0.5143270000000  0.5659040000000  0.4553100000000 1.0
C      1  0.4347550000000  0.5219750000000  0.5068790000000 1.0
C      1  0.5378180000000  0.4958350000000  0.4769680000000 1.0
C      1  0.5304520000000  0.5442820000000  0.4453110000000 1.0
C      1  0.5373170000000  0.5300400000000  0.5629290000000 1.0
C      1  0.5257090000000  0.4919880000000  0.4306640000000 1.0
C      1  0.4949320000000  0.4345370000000  0.4622260000000 1.0
C      1  0.5205120000000  0.5213660000000  0.4316260000000 1.0
C      1  0.4505080000000  0.4555210000000  0.4759810000000 1.0
C      1  0.5106880000000  0.5310020000000  0.5717310000000 1.0
C      1  0.5744890000000  0.4875370000000  0.5024850000000 1.0
C      1  0.4795360000000  0.4359350000000  0.5098790000000 1.0
C      1  0.4982130000000  0.5205760000000  0.4943270000000 1.0
C      1  0.5355820000000  0.5509210000000  0.5163770000000 1.0
C      1  0.4367090000000  0.4779680000000  0.4813850000000 1.0
C      1  0.5186500000000  0.4444830000000  0.5359940000000 1.0
C      1  0.4405780000000  0.5054080000000  0.4842890000000 1.0
C      1  0.4628440000000  0.5039630000000  0.4412390000000 1.0
C      1  0.4957230000000  0.4870350000000  0.4654870000000 1.0
C      1  0.4991070000000  0.4787580000000  0.4375130000000 1.0
C      1  0.5450570000000  0.4522380000000  0.4557260000000 1.0
C      1  0.5579820000000  0.5091860000000  0.4950090000000 1.0
C      1  0.4765230000000  0.5507080000000  0.5410290000000 1.0
C      1  0.5143130000000  0.5670240000000  0.5073730000000 1.0
C      1  0.4477000000000  0.5117290000000  0.5570740000000 1.0
C      1  0.4967110000000  0.5057250000000  0.5689060000000 1.0
C      1  0.5129940000000  0.5121690000000  0.4686310000000 1.0
C      1  0.5456280000000  0.5243760000000  0.5173370000000 1.0
C      1  0.5408750000000  0.4634100000000  0.5286030000000 1.0
C      1  0.4990510000000  0.4970830000000  0.5149960000000 1.0
C      1  0.4772360000000  0.4896720000000  0.4230320000000 1.0
C      1  0.4469780000000  0.4642430000000  0.5384710000000 1.0
C      1  0.4922010000000  0.5481600000000  0.4527120000000 1.0
C      1  0.5171670000000  0.5756730000000  0.4811320000000 1.0
C      1  0.5146350000000  0.4774060000000  0.4953390000000 1.0
C      1  0.4749630000000  0.4434240000000  0.4819220000000 1.0
C      1  0.5464580000000  0.4821360000000  0.4512340000000 1.0
C      1  0.4958410000000  0.4602640000000  0.5477960000000 1.0
C      1  0.4375900000000  0.4881500000000  0.5463400000000 1.0
C      1  0.4655640000000  0.5586240000000  0.4941490000000 1.0
C      1  0.4566280000000  0.5183750000000  0.4645420000000 1.0
C      1  0.5083400000000  0.4297450000000  0.5129200000000 1.0
C      1  0.5192270000000  0.4409940000000  0.4489480000000 1.0
C      1  0.4858500000000  0.5618390000000  0.5157210000000 1.0
C      1  0.5367110000000  0.4861240000000  0.5474550000000 1.0
END
