TITL C-950535-5962-374 -3.98079983529993e-06 125000 -962.178568562697 0 0 154 (C1) n - 1
REM
REM in /home/bkarasulu/work/CARBON/AIRSS/Generating-Clusters/EDIP-Nigel-Params/with-SteepDescent/Only-C1/SD-CG/HFTN-CG
REM
REM
REM
REM
REM
REM ./C.cell (11c1c37f851c82e70ff6c80c92926a4b)
REM
REM compiler GCC version 9.2.1 20190827 (Red Hat 9.2.1-1)
REM options -cpp -mtune=generic -march=x86-64 -g -O0 -fpre-include=/usr/include/finclude/math-vector-fortran.h
REM seed -839702077 -1252745868 -266724691 558675563 -1903002388 1510034771 2054626893 803364581 672086543 1625939743 2140917371 22445335 70260962 1809881562 -819848459 1318806413 1851135674 -1742300816 -563690984 1576208525 895643915 545098446 1283375971 -486708224 1623307838 -169572989 -2102577535 -1046064962 2104531715 -1949654021 152606198 2083326240 457501881
REM
CELL 1.54180   50.00000   50.00000   50.00000   90.00000   90.00000   90.00000
LATT -1
SFAC C  
C      1  0.4238490000000  0.4493850000000  0.5723870000000 1.0
C      1  0.4786740000000  0.4090300000000  0.4972290000000 1.0
C      1  0.4913800000000  0.4736230000000  0.4170130000000 1.0
C      1  0.4458500000000  0.4751740000000  0.4360730000000 1.0
C      1  0.4998810000000  0.5943520000000  0.5469450000000 1.0
C      1  0.4566160000000  0.4320480000000  0.4285640000000 1.0
C      1  0.5301400000000  0.5536560000000  0.5566250000000 1.0
C      1  0.4234550000000  0.5802240000000  0.5067180000000 1.0
C      1  0.5674850000000  0.4237660000000  0.4648370000000 1.0
C      1  0.5573750000000  0.5244530000000  0.4850650000000 1.0
C      1  0.5092420000000  0.5254900000000  0.4931560000000 1.0
C      1  0.5219350000000  0.5021750000000  0.5911550000000 1.0
C      1  0.6050790000000  0.4734040000000  0.4719560000000 1.0
C      1  0.3999840000000  0.4961220000000  0.4922330000000 1.0
C      1  0.4779810000000  0.5295740000000  0.5952940000000 1.0
C      1  0.4696230000000  0.5637740000000  0.4297990000000 1.0
C      1  0.4430300000000  0.5807490000000  0.4835800000000 1.0
C      1  0.5820050000000  0.5104590000000  0.5582480000000 1.0
C      1  0.5536420000000  0.5433930000000  0.4329660000000 1.0
C      1  0.5712420000000  0.5716380000000  0.5341950000000 1.0
C      1  0.5839410000000  0.4343600000000  0.5099870000000 1.0
C      1  0.5577840000000  0.4805400000000  0.4579760000000 1.0
C      1  0.4098480000000  0.5558430000000  0.4662350000000 1.0
C      1  0.4977850000000  0.4579400000000  0.5825700000000 1.0
C      1  0.4847450000000  0.4788160000000  0.4935680000000 1.0
C      1  0.4853740000000  0.4898740000000  0.5477950000000 1.0
C      1  0.4954740000000  0.4071640000000  0.5614910000000 1.0
C      1  0.4606700000000  0.4142020000000  0.5188370000000 1.0
C      1  0.5382530000000  0.4061370000000  0.5027110000000 1.0
C      1  0.5592850000000  0.5157650000000  0.4278470000000 1.0
C      1  0.5585830000000  0.4615710000000  0.4345320000000 1.0
C      1  0.4480340000000  0.5435940000000  0.5948280000000 1.0
C      1  0.5715450000000  0.5063360000000  0.4537830000000 1.0
C      1  0.5586640000000  0.5487540000000  0.5468980000000 1.0
C      1  0.5116820000000  0.4977030000000  0.5353800000000 1.0
C      1  0.5181660000000  0.5760650000000  0.4380070000000 1.0
C      1  0.4449340000000  0.5657370000000  0.5759130000000 1.0
C      1  0.4269080000000  0.5308820000000  0.4694760000000 1.0
C      1  0.4798650000000  0.5449510000000  0.4087910000000 1.0
C      1  0.5450830000000  0.4916930000000  0.5738460000000 1.0
C      1  0.4125720000000  0.4554940000000  0.5269680000000 1.0
C      1  0.5617990000000  0.5554820000000  0.4910370000000 1.0
C      1  0.4651710000000  0.4076820000000  0.4707110000000 1.0
C      1  0.5726910000000  0.5251170000000  0.5354820000000 1.0
C      1  0.6087130000000  0.5230820000000  0.4705640000000 1.0
C      1  0.5003830000000  0.4173210000000  0.5346230000000 1.0
C      1  0.4499520000000  0.4901270000000  0.5830070000000 1.0
C      1  0.4899690000000  0.4975240000000  0.3980750000000 1.0
C      1  0.6078540000000  0.4824560000000  0.4998570000000 1.0
C      1  0.5854060000000  0.5602680000000  0.5099490000000 1.0
C      1  0.4121040000000  0.4973850000000  0.5542670000000 1.0
C      1  0.4479300000000  0.4616020000000  0.5795520000000 1.0
C      1  0.4283940000000  0.5576270000000  0.5274280000000 1.0
C      1  0.4442110000000  0.5054460000000  0.5110880000000 1.0
C      1  0.5617880000000  0.5808300000000  0.4626770000000 1.0
C      1  0.4571990000000  0.4774700000000  0.5077280000000 1.0
C      1  0.4247280000000  0.5274380000000  0.5906970000000 1.0
C      1  0.4778220000000  0.4206400000000  0.4465780000000 1.0
C      1  0.5071940000000  0.5348210000000  0.4177520000000 1.0
C      1  0.5966850000000  0.5336190000000  0.5187310000000 1.0
C      1  0.5600690000000  0.4686320000000  0.5819870000000 1.0
C      1  0.5079870000000  0.4007770000000  0.5022930000000 1.0
C      1  0.4980070000000  0.4858060000000  0.5900640000000 1.0
C      1  0.4370300000000  0.4176790000000  0.4694240000000 1.0
C      1  0.4988820000000  0.4885170000000  0.4456660000000 1.0
C      1  0.5841250000000  0.4420700000000  0.4815210000000 1.0
C      1  0.5370210000000  0.5670850000000  0.5065070000000 1.0
C      1  0.4252670000000  0.5131030000000  0.4446070000000 1.0
C      1  0.4945960000000  0.4452740000000  0.4561040000000 1.0
C      1  0.4572250000000  0.4333920000000  0.5409800000000 1.0
C      1  0.4696850000000  0.6118310000000  0.5097080000000 1.0
C      1  0.5286180000000  0.4844330000000  0.4911920000000 1.0
C      1  0.4668680000000  0.5172730000000  0.4051470000000 1.0
C      1  0.5336250000000  0.4795090000000  0.5481330000000 1.0
C      1  0.5268510000000  0.5818710000000  0.5473830000000 1.0
C      1  0.4899040000000  0.5799300000000  0.4433120000000 1.0
C      1  0.5667750000000  0.4446350000000  0.5700610000000 1.0
C      1  0.5404860000000  0.4708650000000  0.4136350000000 1.0
C      1  0.6012460000000  0.4988080000000  0.4552010000000 1.0
C      1  0.4720740000000  0.5259940000000  0.4527970000000 1.0
C      1  0.5284350000000  0.5236090000000  0.4704440000000 1.0
C      1  0.4737530000000  0.5002500000000  0.5953840000000 1.0
C      1  0.4053020000000  0.4435480000000  0.5010560000000 1.0
C      1  0.5207070000000  0.4390160000000  0.4381750000000 1.0
C      1  0.5325850000000  0.3950610000000  0.4550480000000 1.0
C      1  0.4904040000000  0.5902830000000  0.4716550000000 1.0
C      1  0.5501740000000  0.5926960000000  0.5326550000000 1.0
C      1  0.3989560000000  0.4794720000000  0.5366660000000 1.0
C      1  0.4281610000000  0.5772940000000  0.4570290000000 1.0
C      1  0.5838280000000  0.4709030000000  0.5394050000000 1.0
C      1  0.4697900000000  0.4206190000000  0.5663700000000 1.0
C      1  0.5265370000000  0.5510100000000  0.5850840000000 1.0
C      1  0.4930100000000  0.4012190000000  0.4312760000000 1.0
C      1  0.5543170000000  0.4269850000000  0.5223220000000 1.0
C      1  0.5286950000000  0.5544440000000  0.4227320000000 1.0
C      1  0.4259000000000  0.5623420000000  0.5553520000000 1.0
C      1  0.5069480000000  0.4979780000000  0.5048100000000 1.0
C      1  0.4775730000000  0.4844920000000  0.4657700000000 1.0
C      1  0.5728360000000  0.5585650000000  0.4486680000000 1.0
C      1  0.4821150000000  0.5900020000000  0.5227820000000 1.0
C      1  0.4842190000000  0.5216230000000  0.5577090000000 1.0
C      1  0.4197310000000  0.5173220000000  0.4964590000000 1.0
C      1  0.5094800000000  0.5371170000000  0.5410150000000 1.0
C      1  0.4614070000000  0.5507390000000  0.5004140000000 1.0
C      1  0.5357900000000  0.5914970000000  0.4547310000000 1.0
C      1  0.5106230000000  0.5490060000000  0.5113130000000 1.0
C      1  0.4547360000000  0.5102620000000  0.4331570000000 1.0
C      1  0.5976460000000  0.4884990000000  0.5568650000000 1.0
C      1  0.4648490000000  0.6017370000000  0.4837750000000 1.0
C      1  0.5369380000000  0.4993840000000  0.4170030000000 1.0
C      1  0.6027990000000  0.5130300000000  0.4976010000000 1.0
C      1  0.5054480000000  0.4464390000000  0.5342050000000 1.0
C      1  0.5101910000000  0.5297230000000  0.5922610000000 1.0
C      1  0.5159510000000  0.5122130000000  0.4012510000000 1.0
C      1  0.4415300000000  0.4629210000000  0.4845550000000 1.0
C      1  0.4427660000000  0.5709790000000  0.4337820000000 1.0
C      1  0.4117480000000  0.4732640000000  0.4768710000000 1.0
C      1  0.4552880000000  0.5395770000000  0.4729840000000 1.0
C      1  0.4872280000000  0.5673950000000  0.5033000000000 1.0
C      1  0.4339190000000  0.5108400000000  0.5685470000000 1.0
C      1  0.4988120000000  0.4515830000000  0.4861580000000 1.0
C      1  0.4565480000000  0.5323850000000  0.5501020000000 1.0
C      1  0.5178620000000  0.4507870000000  0.5616200000000 1.0
C      1  0.5178980000000  0.6031120000000  0.4750710000000 1.0
C      1  0.5314480000000  0.5959190000000  0.4988790000000 1.0
C      1  0.3851080000000  0.4906050000000  0.5152550000000 1.0
C      1  0.5015080000000  0.5215160000000  0.4452600000000 1.0
C      1  0.4325590000000  0.4356370000000  0.4926640000000 1.0
C      1  0.5191920000000  0.4090490000000  0.4349420000000 1.0
C      1  0.4078470000000  0.5396440000000  0.5131450000000 1.0
C      1  0.4601640000000  0.5275740000000  0.5206790000000 1.0
C      1  0.5497340000000  0.4031520000000  0.4756260000000 1.0
C      1  0.5689110000000  0.4685130000000  0.4852060000000 1.0
C      1  0.4593480000000  0.4632540000000  0.4597360000000 1.0
C      1  0.4280040000000  0.4400700000000  0.5462920000000 1.0
C      1  0.4738710000000  0.4631740000000  0.5338700000000 1.0
C      1  0.5269180000000  0.4558600000000  0.4915230000000 1.0
C      1  0.5154520000000  0.4550690000000  0.4130270000000 1.0
C      1  0.5336900000000  0.4500980000000  0.5188030000000 1.0
C      1  0.5620470000000  0.4800630000000  0.5184600000000 1.0
C      1  0.4869320000000  0.5865820000000  0.5705880000000 1.0
C      1  0.4700700000000  0.5658100000000  0.5633950000000 1.0
C      1  0.5294030000000  0.4234880000000  0.5669390000000 1.0
C      1  0.5585210000000  0.4335700000000  0.4396350000000 1.0
C      1  0.5947590000000  0.5453790000000  0.4603330000000 1.0
C      1  0.4329370000000  0.4304170000000  0.4440530000000 1.0
C      1  0.4627990000000  0.4591530000000  0.4159710000000 1.0
C      1  0.6006490000000  0.4586150000000  0.5196930000000 1.0
C      1  0.5294590000000  0.4921290000000  0.4630900000000 1.0
C      1  0.5567470000000  0.5099290000000  0.5140380000000 1.0
C      1  0.4168490000000  0.4838700000000  0.4479030000000 1.0
C      1  0.4006040000000  0.5629350000000  0.4938940000000 1.0
C      1  0.5555470000000  0.4236150000000  0.5537010000000 1.0
C      1  0.4714900000000  0.4447570000000  0.5829640000000 1.0
END
