TITL C-950531-5884-366 -1.69449507928493e-05 125000 -91.9847884779809 0 0 17 (C1) n - 1
REM
REM in /home/bkarasulu/work/CARBON/AIRSS/Generating-Clusters/EDIP-Nigel-Params/with-SteepDescent/Only-C1/SD-CG/HFTN-CG
REM
REM
REM
REM
REM
REM ./C.cell (11c1c37f851c82e70ff6c80c92926a4b)
REM
REM compiler GCC version 9.2.1 20190827 (Red Hat 9.2.1-1)
REM options -cpp -mtune=generic -march=x86-64 -g -O0 -fpre-include=/usr/include/finclude/math-vector-fortran.h
REM seed 1765316542 1299048325 -716438316 -1803417264 -187550835 -1562735600 -1096885149 -409686465 -1685322008 57931014 913947349 -1688266276 351719763 40705763 433927523 -1266916364 -350029687 -2000959017 175702638 1486813673 -536267351 1906236480 -860214033 -650328974 1788198744 1866915340 149645580 -1970166537 792418384 -613400289 1255317542 -633823280 -613801280
REM
CELL 1.54180   50.00000   50.00000   50.00000   90.00000   90.00000   90.00000
LATT -1
SFAC C  
C      1  0.4933620000000  0.5042840000000  0.5422900000000 1.0
C      1  0.5384800000000  0.4549900000000  0.4674970000000 1.0
C      1  0.4732590000000  0.4554090000000  0.4912210000000 1.0
C      1  0.5157890000000  0.4654520000000  0.4832410000000 1.0
C      1  0.4632280000000  0.4685680000000  0.5129580000000 1.0
C      1  0.5223290000000  0.5154110000000  0.4914440000000 1.0
C      1  0.5518780000000  0.4783200000000  0.4761620000000 1.0
C      1  0.5062040000000  0.5512900000000  0.5205260000000 1.0
C      1  0.4612420000000  0.4919110000000  0.5271420000000 1.0
C      1  0.5017390000000  0.5558370000000  0.4765250000000 1.0
C      1  0.4686750000000  0.4637540000000  0.4652870000000 1.0
C      1  0.4941170000000  0.4745580000000  0.4654910000000 1.0
C      1  0.4871300000000  0.5610690000000  0.5001920000000 1.0
C      1  0.5319470000000  0.4897580000000  0.4946300000000 1.0
C      1  0.4695260000000  0.4952640000000  0.5535210000000 1.0
C      1  0.5216860000000  0.5435370000000  0.4944480000000 1.0
C      1  0.4994100000000  0.5305880000000  0.5374230000000 1.0
END
