TITL C-950528-5794-672 1.03146913758211e-06 125000 -573.712185668533 0 0 94 (C1) n - 1
REM
REM in /home/bkarasulu/work/CARBON/AIRSS/Generating-Clusters/EDIP-Nigel-Params/with-SteepDescent/Only-C1/SD-CG/HFTN-CG
REM
REM
REM
REM
REM
REM ./C.cell (11c1c37f851c82e70ff6c80c92926a4b)
REM
REM compiler GCC version 9.2.1 20190827 (Red Hat 9.2.1-1)
REM options -cpp -mtune=generic -march=x86-64 -g -O0 -fpre-include=/usr/include/finclude/math-vector-fortran.h
REM seed -1234807784 421168520 132262587 -178995657 880558119 -912693515 84920644 521022921 -1711973541 -1669795929 -1620954573 -1813362214 -2019636890 -1945349677 505421989 1472988955 -1221013169 318172051 272197590 1890661059 1935030272 1717116349 30790475 556834850 -2041424725 839184641 -1455302848 -893577527 2029766962 2045185476 -29596036 -719277964 -1046966063
REM
CELL 1.54180   50.00000   50.00000   50.00000   90.00000   90.00000   90.00000
LATT -1
SFAC C  
C      1  0.4920220000000  0.5770550000000  0.5196780000000 1.0
C      1  0.5117780000000  0.4116900000000  0.5059100000000 1.0
C      1  0.4875870000000  0.4982390000000  0.5846200000000 1.0
C      1  0.5504400000000  0.5207790000000  0.5321850000000 1.0
C      1  0.5131700000000  0.5035910000000  0.5940140000000 1.0
C      1  0.4604040000000  0.5899290000000  0.4759130000000 1.0
C      1  0.5316220000000  0.5284430000000  0.5542080000000 1.0
C      1  0.4279970000000  0.4881060000000  0.4682210000000 1.0
C      1  0.5624260000000  0.5010200000000  0.4351960000000 1.0
C      1  0.4986380000000  0.5577690000000  0.5587740000000 1.0
C      1  0.4265610000000  0.5591130000000  0.4887950000000 1.0
C      1  0.5113660000000  0.4381520000000  0.5228290000000 1.0
C      1  0.5268970000000  0.5348040000000  0.4972270000000 1.0
C      1  0.4716370000000  0.4533230000000  0.5642690000000 1.0
C      1  0.4814380000000  0.5709200000000  0.4773300000000 1.0
C      1  0.5273340000000  0.5713910000000  0.4636970000000 1.0
C      1  0.4621940000000  0.4070280000000  0.4928990000000 1.0
C      1  0.5773330000000  0.5247810000000  0.5383770000000 1.0
C      1  0.4831690000000  0.5580540000000  0.5820780000000 1.0
C      1  0.5000150000000  0.5309720000000  0.5432910000000 1.0
C      1  0.5464160000000  0.4224900000000  0.5207820000000 1.0
C      1  0.5509140000000  0.5023050000000  0.4097090000000 1.0
C      1  0.4781720000000  0.4715620000000  0.5850940000000 1.0
C      1  0.4884080000000  0.4299990000000  0.5590040000000 1.0
C      1  0.5129920000000  0.4809340000000  0.4625980000000 1.0
C      1  0.4681910000000  0.5031790000000  0.4607450000000 1.0
C      1  0.4138700000000  0.5157520000000  0.5053020000000 1.0
C      1  0.4602840000000  0.4141450000000  0.5199410000000 1.0
C      1  0.5297220000000  0.5036220000000  0.5717420000000 1.0
C      1  0.5211320000000  0.5779340000000  0.5151800000000 1.0
C      1  0.5282850000000  0.5606920000000  0.5602610000000 1.0
C      1  0.5598790000000  0.4686320000000  0.5204390000000 1.0
C      1  0.4998000000000  0.5315060000000  0.5096270000000 1.0
C      1  0.4592790000000  0.5473550000000  0.5756690000000 1.0
C      1  0.5721740000000  0.4766790000000  0.4765680000000 1.0
C      1  0.5254500000000  0.4752260000000  0.4892190000000 1.0
C      1  0.5643830000000  0.4744020000000  0.4479910000000 1.0
C      1  0.5529290000000  0.4285930000000  0.4922920000000 1.0
C      1  0.5635980000000  0.5028490000000  0.4937720000000 1.0
C      1  0.5955490000000  0.5304630000000  0.5193580000000 1.0
C      1  0.5267890000000  0.4748370000000  0.4383160000000 1.0
C      1  0.4408060000000  0.4460950000000  0.4749110000000 1.0
C      1  0.5360850000000  0.4487100000000  0.4425540000000 1.0
C      1  0.4467300000000  0.5334360000000  0.5551580000000 1.0
C      1  0.4703800000000  0.4812890000000  0.4196710000000 1.0
C      1  0.5358560000000  0.5624320000000  0.4916660000000 1.0
C      1  0.4852580000000  0.4125110000000  0.5349550000000 1.0
C      1  0.5170230000000  0.4368040000000  0.4611850000000 1.0
C      1  0.5013010000000  0.4604060000000  0.5024680000000 1.0
C      1  0.4632670000000  0.5068430000000  0.4310320000000 1.0
C      1  0.4734330000000  0.4164740000000  0.4702040000000 1.0
C      1  0.4840410000000  0.4824640000000  0.5143030000000 1.0
C      1  0.4822450000000  0.5237160000000  0.4156610000000 1.0
C      1  0.4544280000000  0.5258530000000  0.4790690000000 1.0
C      1  0.4407980000000  0.4559630000000  0.5016400000000 1.0
C      1  0.5416630000000  0.4925080000000  0.5251000000000 1.0
C      1  0.4823830000000  0.5079190000000  0.5567360000000 1.0
C      1  0.5000750000000  0.5713700000000  0.4565100000000 1.0
C      1  0.5703140000000  0.5511300000000  0.4834600000000 1.0
C      1  0.4949750000000  0.5465480000000  0.4281650000000 1.0
C      1  0.4862070000000  0.4393910000000  0.4587910000000 1.0
C      1  0.5004930000000  0.5017650000000  0.4079210000000 1.0
C      1  0.5826600000000  0.5268450000000  0.4946170000000 1.0
C      1  0.4500040000000  0.4826450000000  0.5112890000000 1.0
C      1  0.4440240000000  0.5819480000000  0.4976930000000 1.0
C      1  0.4347950000000  0.4645940000000  0.4537590000000 1.0
C      1  0.4734020000000  0.4666670000000  0.4742440000000 1.0
C      1  0.4963370000000  0.5036840000000  0.4690510000000 1.0
C      1  0.4362470000000  0.5031710000000  0.4919220000000 1.0
C      1  0.5520500000000  0.4463670000000  0.5375280000000 1.0
C      1  0.5361480000000  0.5770020000000  0.5389740000000 1.0
C      1  0.5148340000000  0.4352520000000  0.5654680000000 1.0
C      1  0.5325640000000  0.4552470000000  0.5571190000000 1.0
C      1  0.4443060000000  0.5049100000000  0.5582780000000 1.0
C      1  0.4477650000000  0.5449210000000  0.5285520000000 1.0
C      1  0.4609890000000  0.4604330000000  0.4380420000000 1.0
C      1  0.5280230000000  0.4177160000000  0.4806940000000 1.0
C      1  0.4454040000000  0.4389040000000  0.5242990000000 1.0
C      1  0.5236190000000  0.4832590000000  0.5496470000000 1.0
C      1  0.4757040000000  0.5457790000000  0.4950270000000 1.0
C      1  0.4386390000000  0.4833850000000  0.5398240000000 1.0
C      1  0.4937220000000  0.4849960000000  0.5425180000000 1.0
C      1  0.5423620000000  0.5584110000000  0.4419150000000 1.0
C      1  0.4241190000000  0.5411580000000  0.5117750000000 1.0
C      1  0.5228400000000  0.5418950000000  0.4241920000000 1.0
C      1  0.5259250000000  0.5146470000000  0.4141970000000 1.0
C      1  0.4358260000000  0.5444190000000  0.4657600000000 1.0
C      1  0.4614230000000  0.5715030000000  0.5211020000000 1.0
C      1  0.5377580000000  0.5114620000000  0.4806990000000 1.0
C      1  0.5480180000000  0.5210370000000  0.4520820000000 1.0
C      1  0.4939280000000  0.5053330000000  0.4986740000000 1.0
C      1  0.5663900000000  0.5451190000000  0.4553440000000 1.0
C      1  0.4468510000000  0.4557690000000  0.5487540000000 1.0
C      1  0.5533170000000  0.4595810000000  0.4926820000000 1.0
END
