TITL C-951336-9012-543 -1.65711623325307e-06 125000 -457.984909935749 0 0 74 (C1) n - 1
REM
REM in /home/bkarasulu/work/CARBON/AIRSS/Generating-Clusters/EDIP-Nigel-Params/with-SteepDescent/Only-C1/SD-CG/HFTN-CG
REM
REM
REM
REM
REM
REM ./C.cell (11c1c37f851c82e70ff6c80c92926a4b)
REM
REM compiler GCC version 9.2.1 20190827 (Red Hat 9.2.1-1)
REM options -cpp -mtune=generic -march=x86-64 -g -O0 -fpre-include=/usr/include/finclude/math-vector-fortran.h
REM seed -228811842 376582447 1414153147 -791541441 2125365396 -1570482422 423698703 81759945 1097271901 524970884 36942500 807277851 -1106157758 1802222832 -967867094 1835761900 570440257 -182234981 -373267068 1829723341 1672940507 -725983651 882879326 -1715692022 771295847 1635393294 1989644635 -344286028 -822271961 -1480843845 -1722237057 131803478 8824469
REM
CELL 1.54180   50.00000   50.00000   50.00000   90.00000   90.00000   90.00000
LATT -1
SFAC C  
C      1  0.4609890000000  0.5570750000000  0.5031120000000 1.0
C      1  0.4603920000000  0.4257820000000  0.5221210000000 1.0
C      1  0.4212320000000  0.5155590000000  0.4938120000000 1.0
C      1  0.4378540000000  0.4494810000000  0.4899530000000 1.0
C      1  0.4656020000000  0.5354960000000  0.5481360000000 1.0
C      1  0.5073970000000  0.5190100000000  0.5276090000000 1.0
C      1  0.5117620000000  0.4896860000000  0.4811900000000 1.0
C      1  0.4386340000000  0.4964020000000  0.4829540000000 1.0
C      1  0.5169970000000  0.4312620000000  0.4629090000000 1.0
C      1  0.5031810000000  0.4887190000000  0.5311270000000 1.0
C      1  0.5380730000000  0.5556810000000  0.4819940000000 1.0
C      1  0.5702250000000  0.4833800000000  0.4804940000000 1.0
C      1  0.5332740000000  0.4391770000000  0.5312470000000 1.0
C      1  0.4717850000000  0.4525440000000  0.4521260000000 1.0
C      1  0.5037920000000  0.4860490000000  0.4170400000000 1.0
C      1  0.5588810000000  0.5070140000000  0.5301730000000 1.0
C      1  0.5066490000000  0.5176060000000  0.4888070000000 1.0
C      1  0.5240050000000  0.4792140000000  0.5093890000000 1.0
C      1  0.4997380000000  0.4431420000000  0.4440320000000 1.0
C      1  0.4850360000000  0.4532210000000  0.5856500000000 1.0
C      1  0.5524020000000  0.4646160000000  0.4679430000000 1.0
C      1  0.4566670000000  0.4358200000000  0.4733540000000 1.0
C      1  0.4508950000000  0.5391500000000  0.5236470000000 1.0
C      1  0.4263980000000  0.5236580000000  0.5201240000000 1.0
C      1  0.5585990000000  0.5232480000000  0.4519850000000 1.0
C      1  0.4490890000000  0.5556800000000  0.4533640000000 1.0
C      1  0.5135170000000  0.4342780000000  0.5520550000000 1.0
C      1  0.4575180000000  0.5146970000000  0.5648530000000 1.0
C      1  0.4898400000000  0.4509490000000  0.5010540000000 1.0
C      1  0.5309580000000  0.4803190000000  0.4550030000000 1.0
C      1  0.4762760000000  0.4292740000000  0.5460740000000 1.0
C      1  0.5084850000000  0.5703660000000  0.4815950000000 1.0
C      1  0.5167580000000  0.4645440000000  0.4332040000000 1.0
C      1  0.4619470000000  0.4801060000000  0.4428350000000 1.0
C      1  0.5073360000000  0.5420840000000  0.5733430000000 1.0
C      1  0.4845800000000  0.4753120000000  0.4806620000000 1.0
C      1  0.5481670000000  0.5557280000000  0.5282990000000 1.0
C      1  0.5209590000000  0.4495370000000  0.5056930000000 1.0
C      1  0.5842190000000  0.5176400000000  0.5237010000000 1.0
C      1  0.4217880000000  0.5040190000000  0.5396340000000 1.0
C      1  0.4683720000000  0.4756070000000  0.5208270000000 1.0
C      1  0.5273320000000  0.5738320000000  0.5318490000000 1.0
C      1  0.5632280000000  0.5580980000000  0.5022030000000 1.0
C      1  0.5208580000000  0.5550550000000  0.4369050000000 1.0
C      1  0.4403720000000  0.4920950000000  0.4556250000000 1.0
C      1  0.4392510000000  0.4946170000000  0.5591610000000 1.0
C      1  0.5791360000000  0.5312900000000  0.4990420000000 1.0
C      1  0.4483790000000  0.4680620000000  0.5583750000000 1.0
C      1  0.5362570000000  0.4419580000000  0.4806520000000 1.0
C      1  0.4747950000000  0.4251720000000  0.4948180000000 1.0
C      1  0.4983260000000  0.5649910000000  0.4538120000000 1.0
C      1  0.5065370000000  0.5202940000000  0.5915400000000 1.0
C      1  0.4466770000000  0.5603050000000  0.4797000000000 1.0
C      1  0.5088130000000  0.4559840000000  0.5706330000000 1.0
C      1  0.5541440000000  0.4575410000000  0.5379730000000 1.0
C      1  0.5091740000000  0.5343170000000  0.4179020000000 1.0
C      1  0.5520690000000  0.4802660000000  0.5208890000000 1.0
C      1  0.4813350000000  0.5275540000000  0.4273110000000 1.0
C      1  0.5324250000000  0.5279340000000  0.4926910000000 1.0
C      1  0.4946630000000  0.5407870000000  0.5462130000000 1.0
C      1  0.5302170000000  0.5269650000000  0.5805190000000 1.0
C      1  0.5463620000000  0.5507650000000  0.4532340000000 1.0
C      1  0.4752400000000  0.5470170000000  0.4486300000000 1.0
C      1  0.5244250000000  0.5084890000000  0.4152830000000 1.0
C      1  0.5379800000000  0.5272010000000  0.5222340000000 1.0
C      1  0.5006090000000  0.5659000000000  0.5310990000000 1.0
C      1  0.4891060000000  0.5656050000000  0.5044470000000 1.0
C      1  0.5416300000000  0.5031710000000  0.4390360000000 1.0
C      1  0.4655870000000  0.4471310000000  0.5662070000000 1.0
C      1  0.4817700000000  0.4981500000000  0.4317740000000 1.0
C      1  0.5105450000000  0.4803230000000  0.5573230000000 1.0
C      1  0.4473890000000  0.4520470000000  0.5169610000000 1.0
C      1  0.4645850000000  0.4927860000000  0.4957250000000 1.0
C      1  0.5705120000000  0.5121670000000  0.4771100000000 1.0
END
