TITL C-951346-9544-259 2.65278037915096e-06 125000 -651.079578926242 0 0 105 (C1) n - 1
REM
REM in /home/bkarasulu/work/CARBON/AIRSS/Generating-Clusters/EDIP-Nigel-Params/with-SteepDescent/Only-C1/SD-CG/HFTN-CG
REM
REM
REM
REM
REM
REM ./C.cell (11c1c37f851c82e70ff6c80c92926a4b)
REM
REM compiler GCC version 9.2.1 20190827 (Red Hat 9.2.1-1)
REM options -cpp -mtune=generic -march=x86-64 -g -O0 -fpre-include=/usr/include/finclude/math-vector-fortran.h
REM seed -1209356331 2131011203 1142804174 -1108807577 615957277 579437869 -1539927228 -851789043 1067999615 -568314800 -1583236414 1822527873 1659627707 530456880 -1150933367 1469198386 90999819 -1659131321 1978124743 1360067447 541752088 -1223651568 -454748732 1338981475 337836348 1177212703 -62579308 -763431524 897656809 -587129512 420261490 -1964305142 1496390222
REM
CELL 1.54180   50.00000   50.00000   50.00000   90.00000   90.00000   90.00000
LATT -1
SFAC C  
C      1  0.5058010000000  0.4847600000000  0.4945820000000 1.0
C      1  0.5299460000000  0.4829850000000  0.4256760000000 1.0
C      1  0.5822720000000  0.4519520000000  0.4865310000000 1.0
C      1  0.4794980000000  0.5624450000000  0.4756890000000 1.0
C      1  0.4957920000000  0.4223610000000  0.4546820000000 1.0
C      1  0.5903210000000  0.5366260000000  0.4899520000000 1.0
C      1  0.5367450000000  0.5097230000000  0.5281020000000 1.0
C      1  0.5192450000000  0.4258780000000  0.4721580000000 1.0
C      1  0.5529180000000  0.4593740000000  0.4839580000000 1.0
C      1  0.5460080000000  0.5672050000000  0.5437770000000 1.0
C      1  0.4186080000000  0.5254450000000  0.4986850000000 1.0
C      1  0.5865570000000  0.4731180000000  0.5292540000000 1.0
C      1  0.4877000000000  0.4416600000000  0.5533160000000 1.0
C      1  0.4608560000000  0.4470560000000  0.5608960000000 1.0
C      1  0.4465200000000  0.5610800000000  0.4740030000000 1.0
C      1  0.5267440000000  0.4939020000000  0.5906450000000 1.0
C      1  0.5024780000000  0.5857750000000  0.5258080000000 1.0
C      1  0.4354530000000  0.5504410000000  0.5022300000000 1.0
C      1  0.5015320000000  0.4940730000000  0.4232760000000 1.0
C      1  0.5112080000000  0.5434550000000  0.4371970000000 1.0
C      1  0.4338520000000  0.4339990000000  0.4716740000000 1.0
C      1  0.5395050000000  0.4497780000000  0.5101600000000 1.0
C      1  0.5157530000000  0.5708860000000  0.5485100000000 1.0
C      1  0.5380850000000  0.4454490000000  0.4615790000000 1.0
C      1  0.4434030000000  0.4200620000000  0.5220160000000 1.0
C      1  0.4713360000000  0.5274560000000  0.4140830000000 1.0
C      1  0.6019050000000  0.5175670000000  0.5083050000000 1.0
C      1  0.5833710000000  0.4468670000000  0.5161940000000 1.0
C      1  0.4681780000000  0.5143120000000  0.5307590000000 1.0
C      1  0.5470360000000  0.5444030000000  0.4682840000000 1.0
C      1  0.4230300000000  0.5190210000000  0.4494410000000 1.0
C      1  0.4570890000000  0.5742480000000  0.5443400000000 1.0
C      1  0.4188440000000  0.5134080000000  0.5251200000000 1.0
C      1  0.5245260000000  0.5376430000000  0.4868820000000 1.0
C      1  0.4767490000000  0.4788340000000  0.4114970000000 1.0
C      1  0.5660760000000  0.5198190000000  0.5230840000000 1.0
C      1  0.5005810000000  0.4778630000000  0.5225990000000 1.0
C      1  0.4947830000000  0.4924960000000  0.4528300000000 1.0
C      1  0.4224530000000  0.4590350000000  0.4592490000000 1.0
C      1  0.4392930000000  0.5546320000000  0.5339400000000 1.0
C      1  0.5290170000000  0.4542460000000  0.4348140000000 1.0
C      1  0.4906010000000  0.5305650000000  0.5755180000000 1.0
C      1  0.4263960000000  0.5062350000000  0.4772890000000 1.0
C      1  0.5516060000000  0.4888440000000  0.4805550000000 1.0
C      1  0.4621910000000  0.4394410000000  0.4618730000000 1.0
C      1  0.5757590000000  0.5270330000000  0.5509320000000 1.0
C      1  0.5244290000000  0.5009340000000  0.4764310000000 1.0
C      1  0.5315770000000  0.5264490000000  0.5535540000000 1.0
C      1  0.4719500000000  0.4122720000000  0.5165100000000 1.0
C      1  0.4326640000000  0.5091880000000  0.5674660000000 1.0
C      1  0.5043660000000  0.5419470000000  0.5524840000000 1.0
C      1  0.4739290000000  0.5795860000000  0.5225530000000 1.0
C      1  0.5449970000000  0.5898310000000  0.5010960000000 1.0
C      1  0.5019210000000  0.4825120000000  0.5848830000000 1.0
C      1  0.4549110000000  0.5001770000000  0.5841400000000 1.0
C      1  0.4572930000000  0.4772670000000  0.5004970000000 1.0
C      1  0.4554820000000  0.5012160000000  0.4827850000000 1.0
C      1  0.5696930000000  0.5031580000000  0.5677540000000 1.0
C      1  0.4424410000000  0.4303670000000  0.5483450000000 1.0
C      1  0.4887270000000  0.5405780000000  0.4574950000000 1.0
C      1  0.5367910000000  0.5292940000000  0.4450280000000 1.0
C      1  0.4981470000000  0.4640260000000  0.4646710000000 1.0
C      1  0.4279720000000  0.4680820000000  0.5048970000000 1.0
C      1  0.4568470000000  0.4751960000000  0.5548410000000 1.0
C      1  0.4709940000000  0.4851270000000  0.5278010000000 1.0
C      1  0.4892420000000  0.4376210000000  0.5094010000000 1.0
C      1  0.4632340000000  0.4579740000000  0.4283480000000 1.0
C      1  0.5344390000000  0.4621370000000  0.5567230000000 1.0
C      1  0.5082620000000  0.4574140000000  0.5690000000000 1.0
C      1  0.5588050000000  0.5709290000000  0.5169340000000 1.0
C      1  0.5645660000000  0.5441770000000  0.5033920000000 1.0
C      1  0.5431760000000  0.5125980000000  0.5782870000000 1.0
C      1  0.4154650000000  0.4841460000000  0.5280930000000 1.0
C      1  0.4292710000000  0.4375090000000  0.5014040000000 1.0
C      1  0.4747720000000  0.4543410000000  0.4862140000000 1.0
C      1  0.4884360000000  0.4152820000000  0.5412400000000 1.0
C      1  0.5158220000000  0.5240200000000  0.5110870000000 1.0
C      1  0.4266100000000  0.4815610000000  0.5552610000000 1.0
C      1  0.4405720000000  0.5440720000000  0.4492900000000 1.0
C      1  0.5932950000000  0.4903550000000  0.5062860000000 1.0
C      1  0.5171780000000  0.5856390000000  0.4999930000000 1.0
C      1  0.5195720000000  0.5744220000000  0.4509280000000 1.0
C      1  0.5027740000000  0.4412900000000  0.4338500000000 1.0
C      1  0.5961070000000  0.4766980000000  0.4808770000000 1.0
C      1  0.5483510000000  0.5029900000000  0.4389360000000 1.0
C      1  0.5841020000000  0.5225880000000  0.4662770000000 1.0
C      1  0.5006830000000  0.5239510000000  0.4145790000000 1.0
C      1  0.5714610000000  0.4973070000000  0.4594900000000 1.0
C      1  0.5607680000000  0.5496670000000  0.5614030000000 1.0
C      1  0.4902400000000  0.5336470000000  0.5247350000000 1.0
C      1  0.4140650000000  0.4782420000000  0.4803430000000 1.0
C      1  0.4660280000000  0.5007900000000  0.4557260000000 1.0
C      1  0.4324300000000  0.4981360000000  0.4274800000000 1.0
C      1  0.5596100000000  0.4337750000000  0.5243370000000 1.0
C      1  0.5465770000000  0.5724350000000  0.4595620000000 1.0
C      1  0.4821820000000  0.5034130000000  0.5767680000000 1.0
C      1  0.5687560000000  0.4784150000000  0.5521950000000 1.0
C      1  0.4420600000000  0.4733250000000  0.4416560000000 1.0
C      1  0.5023990000000  0.5826840000000  0.4741430000000 1.0
C      1  0.4659810000000  0.5288150000000  0.4435840000000 1.0
C      1  0.4413460000000  0.5247220000000  0.5415370000000 1.0
C      1  0.5170120000000  0.4311240000000  0.5009380000000 1.0
C      1  0.4568670000000  0.5020550000000  0.4080940000000 1.0
C      1  0.5305390000000  0.4740150000000  0.5297070000000 1.0
C      1  0.4741920000000  0.5550590000000  0.5067320000000 1.0
END
