TITL C-951342-2639-569 6.69252866851894e-07 125000 -1164.14367114046 0 0 185 (C1) n - 1
REM
REM in /home/bkarasulu/work/CARBON/AIRSS/Generating-Clusters/EDIP-Nigel-Params/with-SteepDescent/Only-C1/SD-CG/HFTN-CG
REM
REM
REM
REM
REM
REM ./C.cell (11c1c37f851c82e70ff6c80c92926a4b)
REM
REM compiler GCC version 9.2.1 20190827 (Red Hat 9.2.1-1)
REM options -cpp -mtune=generic -march=x86-64 -g -O0 -fpre-include=/usr/include/finclude/math-vector-fortran.h
REM seed 2118128617 -862667938 580491441 -947816568 -504516220 -1439508429 1880597204 -1367425303 -1275861638 1846384500 -388730550 -836048339 -967601278 578133404 1139640661 1794865357 1519090954 1294319163 1278391133 -613022282 -224476469 1898801042 790472575 -343694847 729048747 2132282106 1330923186 -1155389033 -934428465 -1284582286 2068554769 55067436 871353863
REM
CELL 1.54180   50.00000   50.00000   50.00000   90.00000   90.00000   90.00000
LATT -1
SFAC C  
C      1  0.4529310000000  0.4208090000000  0.5884850000000 1.0
C      1  0.4860600000000  0.3852310000000  0.5330510000000 1.0
C      1  0.5257640000000  0.5617870000000  0.5074130000000 1.0
C      1  0.5037110000000  0.5792380000000  0.4034870000000 1.0
C      1  0.4040390000000  0.4581160000000  0.4859740000000 1.0
C      1  0.5967640000000  0.4454880000000  0.5269000000000 1.0
C      1  0.4626660000000  0.4049660000000  0.4689870000000 1.0
C      1  0.4297970000000  0.4816630000000  0.4366230000000 1.0
C      1  0.5805760000000  0.4208710000000  0.5247840000000 1.0
C      1  0.5938580000000  0.4572750000000  0.5531750000000 1.0
C      1  0.5397650000000  0.5079900000000  0.5649980000000 1.0
C      1  0.6092710000000  0.5200870000000  0.5692540000000 1.0
C      1  0.4148010000000  0.5267340000000  0.5664500000000 1.0
C      1  0.5209840000000  0.5279530000000  0.4716170000000 1.0
C      1  0.4363400000000  0.4146240000000  0.5350220000000 1.0
C      1  0.5301460000000  0.4913630000000  0.4344640000000 1.0
C      1  0.4806140000000  0.5507650000000  0.4960750000000 1.0
C      1  0.4095840000000  0.4776020000000  0.5658070000000 1.0
C      1  0.4286700000000  0.4511850000000  0.4390190000000 1.0
C      1  0.5237890000000  0.4108200000000  0.5697200000000 1.0
C      1  0.5521430000000  0.5052410000000  0.5209760000000 1.0
C      1  0.5656230000000  0.4270620000000  0.4489000000000 1.0
C      1  0.4575660000000  0.4929880000000  0.5678550000000 1.0
C      1  0.5113290000000  0.4645500000000  0.5799880000000 1.0
C      1  0.4757820000000  0.5617790000000  0.5914330000000 1.0
C      1  0.4818160000000  0.5036960000000  0.3969480000000 1.0
C      1  0.4667810000000  0.4171470000000  0.4228700000000 1.0
C      1  0.5941440000000  0.5452230000000  0.5292200000000 1.0
C      1  0.4634860000000  0.4598500000000  0.5570030000000 1.0
C      1  0.4710110000000  0.6004400000000  0.4328960000000 1.0
C      1  0.5958790000000  0.5400950000000  0.4650760000000 1.0
C      1  0.5435900000000  0.4413440000000  0.4364480000000 1.0
C      1  0.5585280000000  0.4888450000000  0.4950260000000 1.0
C      1  0.5215910000000  0.5912140000000  0.5077340000000 1.0
C      1  0.4724990000000  0.4581570000000  0.4590290000000 1.0
C      1  0.3937270000000  0.5067600000000  0.4955350000000 1.0
C      1  0.4743660000000  0.6179700000000  0.4761630000000 1.0
C      1  0.5283660000000  0.5665560000000  0.5829460000000 1.0
C      1  0.4422440000000  0.3978530000000  0.5113460000000 1.0
C      1  0.4170990000000  0.5645220000000  0.4914190000000 1.0
C      1  0.5089370000000  0.3938470000000  0.4736180000000 1.0
C      1  0.4424830000000  0.6017770000000  0.5061380000000 1.0
C      1  0.5112440000000  0.5018340000000  0.4018340000000 1.0
C      1  0.5038850000000  0.5531200000000  0.3886040000000 1.0
C      1  0.4569080000000  0.5044380000000  0.4752700000000 1.0
C      1  0.5883550000000  0.4860040000000  0.5490280000000 1.0
C      1  0.3991640000000  0.4852470000000  0.4768030000000 1.0
C      1  0.5722180000000  0.4435860000000  0.5672420000000 1.0
C      1  0.4899280000000  0.5957720000000  0.5187000000000 1.0
C      1  0.4174950000000  0.5415600000000  0.4337160000000 1.0
C      1  0.5421260000000  0.4372250000000  0.5076710000000 1.0
C      1  0.5231850000000  0.6150980000000  0.4606880000000 1.0
C      1  0.5361850000000  0.4607800000000  0.5348400000000 1.0
C      1  0.4638420000000  0.4823200000000  0.4008220000000 1.0
C      1  0.4247310000000  0.5916250000000  0.4869630000000 1.0
C      1  0.4954760000000  0.4108520000000  0.5718240000000 1.0
C      1  0.4686020000000  0.4892470000000  0.4982350000000 1.0
C      1  0.4061180000000  0.4953690000000  0.4500760000000 1.0
C      1  0.5335370000000  0.5966250000000  0.4797610000000 1.0
C      1  0.5481590000000  0.5304450000000  0.4852220000000 1.0
C      1  0.5577070000000  0.4608290000000  0.5837510000000 1.0
C      1  0.5580760000000  0.5788890000000  0.5422570000000 1.0
C      1  0.4183880000000  0.4392930000000  0.4660770000000 1.0
C      1  0.5876960000000  0.4646090000000  0.5037410000000 1.0
C      1  0.5728830000000  0.5641780000000  0.5199240000000 1.0
C      1  0.4998340000000  0.6270860000000  0.4693600000000 1.0
C      1  0.4740300000000  0.5501270000000  0.3854930000000 1.0
C      1  0.5689240000000  0.4239240000000  0.4971640000000 1.0
C      1  0.4477630000000  0.4666320000000  0.5333890000000 1.0
C      1  0.5891570000000  0.4836040000000  0.4517260000000 1.0
C      1  0.5141980000000  0.4870970000000  0.4602010000000 1.0
C      1  0.4900820000000  0.4434400000000  0.5427950000000 1.0
C      1  0.5618150000000  0.5675450000000  0.4459520000000 1.0
C      1  0.4095290000000  0.5283690000000  0.5379040000000 1.0
C      1  0.4329780000000  0.5722430000000  0.5526960000000 1.0
C      1  0.5326800000000  0.3950300000000  0.4911660000000 1.0
C      1  0.5199710000000  0.5495550000000  0.5353410000000 1.0
C      1  0.5376780000000  0.5605640000000  0.4296930000000 1.0
C      1  0.5670330000000  0.5086110000000  0.4718350000000 1.0
C      1  0.5133580000000  0.5188790000000  0.6071570000000 1.0
C      1  0.4419830000000  0.4405910000000  0.5688400000000 1.0
C      1  0.4823270000000  0.5747530000000  0.5673880000000 1.0
C      1  0.4041820000000  0.5247210000000  0.4514410000000 1.0
C      1  0.5913010000000  0.5380160000000  0.5574850000000 1.0
C      1  0.4324270000000  0.4439530000000  0.5224780000000 1.0
C      1  0.5307250000000  0.4762610000000  0.4852110000000 1.0
C      1  0.4366770000000  0.4908010000000  0.4070590000000 1.0
C      1  0.5323450000000  0.4473110000000  0.4813520000000 1.0
C      1  0.5870620000000  0.4436830000000  0.4837100000000 1.0
C      1  0.5234830000000  0.5295790000000  0.3942400000000 1.0
C      1  0.5475850000000  0.4751070000000  0.3898130000000 1.0
C      1  0.5359410000000  0.5011800000000  0.6023390000000 1.0
C      1  0.5681220000000  0.4741070000000  0.4095860000000 1.0
C      1  0.4894560000000  0.5583600000000  0.4469380000000 1.0
C      1  0.5005170000000  0.5280050000000  0.4941210000000 1.0
C      1  0.4213510000000  0.4562160000000  0.5838480000000 1.0
C      1  0.4955550000000  0.5004880000000  0.5084190000000 1.0
C      1  0.4057050000000  0.5035740000000  0.5221450000000 1.0
C      1  0.4321520000000  0.5474520000000  0.5310780000000 1.0
C      1  0.4824310000000  0.3945260000000  0.4860550000000 1.0
C      1  0.5005890000000  0.4629070000000  0.4490630000000 1.0
C      1  0.5269240000000  0.6084780000000  0.4339060000000 1.0
C      1  0.5180720000000  0.6023050000000  0.5523530000000 1.0
C      1  0.5122190000000  0.5219300000000  0.5515580000000 1.0
C      1  0.4935910000000  0.5045790000000  0.5367350000000 1.0
C      1  0.4772870000000  0.3931650000000  0.5584030000000 1.0
C      1  0.4383840000000  0.5193730000000  0.3967100000000 1.0
C      1  0.4369540000000  0.5469460000000  0.5017350000000 1.0
C      1  0.6003890000000  0.5230300000000  0.5121280000000 1.0
C      1  0.4949400000000  0.4500120000000  0.5047240000000 1.0
C      1  0.4793010000000  0.5628370000000  0.5248020000000 1.0
C      1  0.5959240000000  0.4973090000000  0.5743710000000 1.0
C      1  0.4534870000000  0.5440020000000  0.5910420000000 1.0
C      1  0.4298760000000  0.5507900000000  0.5752850000000 1.0
C      1  0.6070570000000  0.4981760000000  0.5250980000000 1.0
C      1  0.4320630000000  0.4999700000000  0.6038550000000 1.0
C      1  0.4637070000000  0.5949750000000  0.4604640000000 1.0
C      1  0.4628390000000  0.5405340000000  0.5478610000000 1.0
C      1  0.5460500000000  0.5143950000000  0.4450130000000 1.0
C      1  0.5116630000000  0.5741450000000  0.5593960000000 1.0
C      1  0.5542420000000  0.4877090000000  0.5444400000000 1.0
C      1  0.4650700000000  0.5226470000000  0.3824010000000 1.0
C      1  0.4440910000000  0.4423390000000  0.4952240000000 1.0
C      1  0.4806400000000  0.5752230000000  0.4232030000000 1.0
C      1  0.5616400000000  0.4261970000000  0.5460230000000 1.0
C      1  0.5351290000000  0.4740060000000  0.5931540000000 1.0
C      1  0.4816510000000  0.4259440000000  0.5920850000000 1.0
C      1  0.5002690000000  0.4508880000000  0.4064830000000 1.0
C      1  0.5673400000000  0.5237470000000  0.4257310000000 1.0
C      1  0.4347720000000  0.5945450000000  0.4612610000000 1.0
C      1  0.5170950000000  0.4466580000000  0.5568250000000 1.0
C      1  0.4780330000000  0.5683970000000  0.4712900000000 1.0
C      1  0.4581860000000  0.5612170000000  0.4081280000000 1.0
C      1  0.5138680000000  0.4748390000000  0.5105350000000 1.0
C      1  0.4485230000000  0.4946150000000  0.5210780000000 1.0
C      1  0.4664720000000  0.4725430000000  0.5993360000000 1.0
C      1  0.5197530000000  0.4736600000000  0.3952260000000 1.0
C      1  0.4576970000000  0.5178430000000  0.6050090000000 1.0
C      1  0.6108470000000  0.4816140000000  0.5000810000000 1.0
C      1  0.4545910000000  0.4840930000000  0.4538130000000 1.0
C      1  0.4884190000000  0.4545720000000  0.5961220000000 1.0
C      1  0.5206310000000  0.5454740000000  0.6002180000000 1.0
C      1  0.4506770000000  0.4415670000000  0.4193640000000 1.0
C      1  0.4654570000000  0.5092130000000  0.5428450000000 1.0
C      1  0.4867240000000  0.5110480000000  0.5941030000000 1.0
C      1  0.5470970000000  0.5400480000000  0.4088900000000 1.0
C      1  0.4395260000000  0.5400660000000  0.4171570000000 1.0
C      1  0.4687270000000  0.6114080000000  0.5037320000000 1.0
C      1  0.4732580000000  0.4601110000000  0.4143570000000 1.0
C      1  0.5164880000000  0.5476090000000  0.4485640000000 1.0
C      1  0.6090450000000  0.4958230000000  0.4738050000000 1.0
C      1  0.4354950000000  0.5181700000000  0.4934670000000 1.0
C      1  0.4488840000000  0.4026810000000  0.5620230000000 1.0
C      1  0.5840450000000  0.4506300000000  0.4562460000000 1.0
C      1  0.5845750000000  0.4964440000000  0.4225160000000 1.0
C      1  0.5205340000000  0.4404630000000  0.4548320000000 1.0
C      1  0.4910830000000  0.5319520000000  0.5716000000000 1.0
C      1  0.5259230000000  0.4125550000000  0.5168990000000 1.0
C      1  0.4380250000000  0.4702260000000  0.6060910000000 1.0
C      1  0.5383270000000  0.4091540000000  0.5453290000000 1.0
C      1  0.5506440000000  0.5351150000000  0.5330370000000 1.0
C      1  0.4700970000000  0.4589440000000  0.4899050000000 1.0
C      1  0.4936610000000  0.4208860000000  0.4088140000000 1.0
C      1  0.5578890000000  0.4038850000000  0.4771600000000 1.0
C      1  0.5513290000000  0.4695890000000  0.4335650000000 1.0
C      1  0.4957780000000  0.4200970000000  0.5192380000000 1.0
C      1  0.5117610000000  0.4044840000000  0.4236850000000 1.0
C      1  0.4695680000000  0.3860110000000  0.5102490000000 1.0
C      1  0.5285580000000  0.5860800000000  0.4169860000000 1.0
C      1  0.4599110000000  0.5836580000000  0.5511670000000 1.0
C      1  0.4942920000000  0.6129300000000  0.5421470000000 1.0
C      1  0.5618710000000  0.5360250000000  0.5626260000000 1.0
C      1  0.6066160000000  0.5229740000000  0.4836600000000 1.0
C      1  0.4759010000000  0.4231450000000  0.4507710000000 1.0
C      1  0.5387230000000  0.5995170000000  0.5323430000000 1.0
C      1  0.4016110000000  0.5313500000000  0.4799860000000 1.0
C      1  0.5810600000000  0.5454880000000  0.4424380000000 1.0
C      1  0.5560840000000  0.5786540000000  0.4734990000000 1.0
C      1  0.4005940000000  0.4777340000000  0.5356150000000 1.0
C      1  0.5539440000000  0.5640110000000  0.5687990000000 1.0
C      1  0.4046460000000  0.4534670000000  0.5166480000000 1.0
C      1  0.4397010000000  0.4132870000000  0.4848260000000 1.0
C      1  0.5535610000000  0.5582200000000  0.4952560000000 1.0
C      1  0.5059010000000  0.4141740000000  0.4509370000000 1.0
C      1  0.4267490000000  0.5006570000000  0.5743110000000 1.0
END
