TITL C-950534-5965-608 -1.08670949759088e-06 125000 -288.67845731125 0 0 48 (C1) n - 1
REM
REM in /home/bkarasulu/work/CARBON/AIRSS/Generating-Clusters/EDIP-Nigel-Params/with-SteepDescent/Only-C1/SD-CG/HFTN-CG
REM
REM
REM
REM
REM
REM ./C.cell (11c1c37f851c82e70ff6c80c92926a4b)
REM
REM compiler GCC version 9.2.1 20190827 (Red Hat 9.2.1-1)
REM options -cpp -mtune=generic -march=x86-64 -g -O0 -fpre-include=/usr/include/finclude/math-vector-fortran.h
REM seed -1739580727 1106907612 462457910 -1598618545 909953704 966529036 -92844164 -1253203858 -638996829 1701643599 1879084913 -233922985 1271858221 -1858815391 -372718217 -2117357921 1050319666 1837304523 -1504146620 1108704599 -1418080814 478157907 -1541450659 -907353794 -60008162 -1565820214 -1433257322 -1011829815 545063372 -1146206826 1715205400 -1114966143 1654969521
REM
CELL 1.54180   50.00000   50.00000   50.00000   90.00000   90.00000   90.00000
LATT -1
SFAC C  
C      1  0.5472930000000  0.4944500000000  0.5464310000000 1.0
C      1  0.5080800000000  0.4420830000000  0.5217820000000 1.0
C      1  0.5195190000000  0.5269670000000  0.5727680000000 1.0
C      1  0.4554810000000  0.4606500000000  0.5153330000000 1.0
C      1  0.5573170000000  0.5171090000000  0.4890320000000 1.0
C      1  0.4855430000000  0.5341020000000  0.4332920000000 1.0
C      1  0.5180670000000  0.5523660000000  0.4813230000000 1.0
C      1  0.5381410000000  0.5264080000000  0.4441560000000 1.0
C      1  0.4633640000000  0.4472060000000  0.4901450000000 1.0
C      1  0.5305580000000  0.4628960000000  0.4755780000000 1.0
C      1  0.5407380000000  0.5079900000000  0.4655050000000 1.0
C      1  0.4989760000000  0.5010400000000  0.4928930000000 1.0
C      1  0.5548300000000  0.4657860000000  0.4602620000000 1.0
C      1  0.5396150000000  0.5098940000000  0.5684780000000 1.0
C      1  0.4975190000000  0.5578970000000  0.4427840000000 1.0
C      1  0.5480750000000  0.4606600000000  0.4981330000000 1.0
C      1  0.4687260000000  0.5440450000000  0.4868970000000 1.0
C      1  0.4405160000000  0.4852290000000  0.5143280000000 1.0
C      1  0.4496240000000  0.5032920000000  0.5344510000000 1.0
C      1  0.5268960000000  0.5515480000000  0.4525800000000 1.0
C      1  0.4709390000000  0.5466300000000  0.5177510000000 1.0
C      1  0.4619010000000  0.4882740000000  0.5557820000000 1.0
C      1  0.5367450000000  0.4666940000000  0.5479060000000 1.0
C      1  0.4958810000000  0.4868340000000  0.4468080000000 1.0
C      1  0.4973670000000  0.4226750000000  0.5051160000000 1.0
C      1  0.4690790000000  0.4641750000000  0.5416320000000 1.0
C      1  0.4461520000000  0.5304210000000  0.5216740000000 1.0
C      1  0.4781430000000  0.4648530000000  0.4477890000000 1.0
C      1  0.4378970000000  0.4814620000000  0.4678620000000 1.0
C      1  0.5171340000000  0.5587820000000  0.5285830000000 1.0
C      1  0.4950630000000  0.4513640000000  0.5459290000000 1.0
C      1  0.5004000000000  0.5402970000000  0.5585080000000 1.0
C      1  0.5354320000000  0.4514030000000  0.5224440000000 1.0
C      1  0.4316920000000  0.4977520000000  0.4899410000000 1.0
C      1  0.5554270000000  0.5389400000000  0.5076770000000 1.0
C      1  0.5572600000000  0.4919390000000  0.4492200000000 1.0
C      1  0.4756440000000  0.4220420000000  0.4895480000000 1.0
C      1  0.4798370000000  0.5116090000000  0.4491790000000 1.0
C      1  0.5134400000000  0.4630870000000  0.5641070000000 1.0
C      1  0.4903590000000  0.5632090000000  0.4744570000000 1.0
C      1  0.4352000000000  0.5266760000000  0.4940910000000 1.0
C      1  0.4562320000000  0.4602620000000  0.4649420000000 1.0
C      1  0.5382990000000  0.5069590000000  0.5207010000000 1.0
C      1  0.5089440000000  0.5108350000000  0.5185550000000 1.0
C      1  0.4973630000000  0.5371170000000  0.5296720000000 1.0
C      1  0.5156330000000  0.4888740000000  0.4708140000000 1.0
C      1  0.5338860000000  0.5580110000000  0.5051050000000 1.0
C      1  0.4797720000000  0.5172050000000  0.4780530000000 1.0
END
