TITL C-950532-2784-261 -2.63379183643619e-07 125000 -336.269265215822 0 0 54 (C1) n - 1
REM
REM in /home/bkarasulu/work/CARBON/AIRSS/Generating-Clusters/EDIP-Nigel-Params/with-SteepDescent/Only-C1/SD-CG/HFTN-CG
REM
REM
REM
REM
REM
REM ./C.cell (11c1c37f851c82e70ff6c80c92926a4b)
REM
REM compiler GCC version 9.2.1 20190827 (Red Hat 9.2.1-1)
REM options -cpp -mtune=generic -march=x86-64 -g -O0 -fpre-include=/usr/include/finclude/math-vector-fortran.h
REM seed -1207682736 555771583 -912489876 -1881098054 -1215371679 1482877674 -1041841715 -365915846 1071196270 -766763745 -1873270150 -1888133415 -1968775583 1233976459 -1410719044 1215460145 25063771 1478819769 1242306910 421537392 -2146109045 631163926 2053651760 568313865 -954058873 -1076376976 2006672153 -947447686 1107828712 717403361 1335188531 47279969 88194107
REM
CELL 1.54180   50.00000   50.00000   50.00000   90.00000   90.00000   90.00000
LATT -1
SFAC C  
C      1  0.5019860000000  0.5442440000000  0.4317770000000 1.0
C      1  0.4782680000000  0.5146690000000  0.4640810000000 1.0
C      1  0.5390830000000  0.4712300000000  0.5103110000000 1.0
C      1  0.4948540000000  0.4782810000000  0.4455750000000 1.0
C      1  0.4817310000000  0.5656430000000  0.4715600000000 1.0
C      1  0.4745270000000  0.4426430000000  0.5188920000000 1.0
C      1  0.4995660000000  0.4335270000000  0.5273920000000 1.0
C      1  0.4856620000000  0.4997710000000  0.4298050000000 1.0
C      1  0.4708230000000  0.4721370000000  0.5233930000000 1.0
C      1  0.5169040000000  0.4875250000000  0.5262720000000 1.0
C      1  0.5271110000000  0.5139270000000  0.5384830000000 1.0
C      1  0.5295950000000  0.4553220000000  0.4859010000000 1.0
C      1  0.5538490000000  0.5107930000000  0.4493920000000 1.0
C      1  0.4745230000000  0.4630990000000  0.4592420000000 1.0
C      1  0.4361210000000  0.4878500000000  0.5450370000000 1.0
C      1  0.4921350000000  0.4895450000000  0.5105320000000 1.0
C      1  0.5621420000000  0.4866230000000  0.4672870000000 1.0
C      1  0.5323460000000  0.5304580000000  0.5153890000000 1.0
C      1  0.4577150000000  0.4729250000000  0.5595160000000 1.0
C      1  0.4437970000000  0.4841000000000  0.5156540000000 1.0
C      1  0.4474950000000  0.5076440000000  0.4990440000000 1.0
C      1  0.4790890000000  0.5433610000000  0.4515850000000 1.0
C      1  0.5297210000000  0.5545940000000  0.4646890000000 1.0
C      1  0.4653640000000  0.5509690000000  0.5362630000000 1.0
C      1  0.5186830000000  0.4443760000000  0.5445190000000 1.0
C      1  0.5236280000000  0.4741600000000  0.4399650000000 1.0
C      1  0.5119960000000  0.4729840000000  0.5532600000000 1.0
C      1  0.5488890000000  0.5056720000000  0.5572100000000 1.0
C      1  0.4841240000000  0.4844380000000  0.5629840000000 1.0
C      1  0.4522180000000  0.5628960000000  0.5147800000000 1.0
C      1  0.4604820000000  0.5675100000000  0.4897490000000 1.0
C      1  0.5592880000000  0.4918730000000  0.4974790000000 1.0
C      1  0.5412020000000  0.5280850000000  0.4690360000000 1.0
C      1  0.5489240000000  0.5195550000000  0.4950250000000 1.0
C      1  0.4946750000000  0.5505590000000  0.5337390000000 1.0
C      1  0.4499170000000  0.4762640000000  0.4627810000000 1.0
C      1  0.5236830000000  0.5615650000000  0.4378840000000 1.0
C      1  0.5367720000000  0.4818030000000  0.5691310000000 1.0
C      1  0.5086410000000  0.4374850000000  0.4815040000000 1.0
C      1  0.5342740000000  0.4999850000000  0.4280710000000 1.0
C      1  0.5585530000000  0.4684800000000  0.5545910000000 1.0
C      1  0.5051470000000  0.5292140000000  0.5522620000000 1.0
C      1  0.4326880000000  0.5151070000000  0.5529020000000 1.0
C      1  0.5083390000000  0.5616350000000  0.4846970000000 1.0
C      1  0.5421450000000  0.4651000000000  0.4615250000000 1.0
C      1  0.5077440000000  0.5165920000000  0.4217360000000 1.0
C      1  0.4816780000000  0.4402070000000  0.4752440000000 1.0
C      1  0.4851300000000  0.5155860000000  0.4966520000000 1.0
C      1  0.4819250000000  0.5135980000000  0.5603970000000 1.0
C      1  0.5051240000000  0.5406120000000  0.5066100000000 1.0
C      1  0.4580990000000  0.5262230000000  0.5498970000000 1.0
C      1  0.4513010000000  0.5034540000000  0.4707090000000 1.0
C      1  0.4638610000000  0.4319630000000  0.4951600000000 1.0
C      1  0.5464680000000  0.4521390000000  0.5334250000000 1.0
END
