TITL C-951344-124-561 -2.85838505039463e-06 125000 -1201.72172697143 0 0 194 (C1) n - 1
REM
REM in /home/bkarasulu/work/CARBON/AIRSS/Generating-Clusters/EDIP-Nigel-Params/with-SteepDescent/Only-C1/SD-CG/HFTN-CG
REM
REM
REM
REM
REM
REM ./C.cell (11c1c37f851c82e70ff6c80c92926a4b)
REM
REM compiler GCC version 9.2.1 20190827 (Red Hat 9.2.1-1)
REM options -cpp -mtune=generic -march=x86-64 -g -O0 -fpre-include=/usr/include/finclude/math-vector-fortran.h
REM seed 1370398216 1259853042 -2047659563 1983887514 1173755979 -89456791 -1003282833 1745079004 -756880855 -1322290369 -366822901 -1611783891 -1811831 1767387209 1091816195 1600491164 25841347 1442094865 -1831684646 1956233958 1281768309 1492334206 970909226 1825034455 1422723971 574523528 -1183507983 538579699 -1291707336 374291655 201854296 233845916 425169182
REM
CELL 1.54180   50.00000   50.00000   50.00000   90.00000   90.00000   90.00000
LATT -1
SFAC C  
C      1  0.5155660000000  0.5212390000000  0.3598450000000 1.0
C      1  0.4157530000000  0.5762700000000  0.4987600000000 1.0
C      1  0.4398540000000  0.5603740000000  0.4882500000000 1.0
C      1  0.3991160000000  0.4760130000000  0.4605400000000 1.0
C      1  0.5030810000000  0.4719850000000  0.4966530000000 1.0
C      1  0.5110240000000  0.4863950000000  0.3926670000000 1.0
C      1  0.4594650000000  0.3919830000000  0.5226880000000 1.0
C      1  0.5390670000000  0.5682510000000  0.4133860000000 1.0
C      1  0.5557460000000  0.5973870000000  0.5577500000000 1.0
C      1  0.4071640000000  0.4826990000000  0.4314400000000 1.0
C      1  0.4673450000000  0.5378160000000  0.5419230000000 1.0
C      1  0.4222770000000  0.5346890000000  0.5279820000000 1.0
C      1  0.3971450000000  0.4936950000000  0.4854590000000 1.0
C      1  0.5243300000000  0.4003160000000  0.5545300000000 1.0
C      1  0.5652090000000  0.5234320000000  0.4754610000000 1.0
C      1  0.5292970000000  0.4737010000000  0.5336480000000 1.0
C      1  0.6106310000000  0.5136160000000  0.5075030000000 1.0
C      1  0.4737330000000  0.4050230000000  0.5666940000000 1.0
C      1  0.5954070000000  0.5194640000000  0.4346180000000 1.0
C      1  0.5263260000000  0.5693920000000  0.5858610000000 1.0
C      1  0.4233050000000  0.5880380000000  0.5230110000000 1.0
C      1  0.4825400000000  0.4926880000000  0.3904700000000 1.0
C      1  0.5918280000000  0.4634010000000  0.5622930000000 1.0
C      1  0.4637790000000  0.5161890000000  0.3924580000000 1.0
C      1  0.5273890000000  0.5389680000000  0.5871250000000 1.0
C      1  0.4604150000000  0.6051460000000  0.4798190000000 1.0
C      1  0.5948200000000  0.5159050000000  0.5573100000000 1.0
C      1  0.5493160000000  0.4145030000000  0.5510240000000 1.0
C      1  0.5221320000000  0.6100380000000  0.4960760000000 1.0
C      1  0.4235800000000  0.5091860000000  0.4853950000000 1.0
C      1  0.4982190000000  0.5619610000000  0.4818090000000 1.0
C      1  0.4180230000000  0.5217860000000  0.4582730000000 1.0
C      1  0.4811440000000  0.4636450000000  0.5178620000000 1.0
C      1  0.4974810000000  0.6030950000000  0.5607560000000 1.0
C      1  0.5380490000000  0.4731690000000  0.4830090000000 1.0
C      1  0.5044530000000  0.5301920000000  0.6045920000000 1.0
C      1  0.5558180000000  0.4954750000000  0.4977720000000 1.0
C      1  0.4263140000000  0.4290070000000  0.5714870000000 1.0
C      1  0.4083960000000  0.4051780000000  0.5237540000000 1.0
C      1  0.5801890000000  0.4703840000000  0.5874780000000 1.0
C      1  0.5755940000000  0.4413600000000  0.5192190000000 1.0
C      1  0.6019670000000  0.4542830000000  0.4783390000000 1.0
C      1  0.5628250000000  0.4132230000000  0.5234150000000 1.0
C      1  0.5496180000000  0.6022630000000  0.5044150000000 1.0
C      1  0.4877720000000  0.4485230000000  0.4096590000000 1.0
C      1  0.4209670000000  0.4510730000000  0.5527900000000 1.0
C      1  0.5174960000000  0.5298000000000  0.5573190000000 1.0
C      1  0.4825950000000  0.6211600000000  0.4764520000000 1.0
C      1  0.4690540000000  0.4162710000000  0.5082940000000 1.0
C      1  0.4474150000000  0.5041450000000  0.5618230000000 1.0
C      1  0.4791410000000  0.3851000000000  0.5444290000000 1.0
C      1  0.4927950000000  0.3968670000000  0.4637560000000 1.0
C      1  0.4943890000000  0.5043900000000  0.5542400000000 1.0
C      1  0.3919770000000  0.5615840000000  0.5017720000000 1.0
C      1  0.5481560000000  0.4415150000000  0.4923970000000 1.0
C      1  0.5671310000000  0.4233450000000  0.4257080000000 1.0
C      1  0.4946360000000  0.5247890000000  0.4476880000000 1.0
C      1  0.4598210000000  0.4477060000000  0.5724500000000 1.0
C      1  0.4449530000000  0.4847280000000  0.4892020000000 1.0
C      1  0.4483930000000  0.4531870000000  0.4513160000000 1.0
C      1  0.3949300000000  0.5152560000000  0.5468790000000 1.0
C      1  0.5949710000000  0.5707840000000  0.4392500000000 1.0
C      1  0.5099350000000  0.4468010000000  0.5993180000000 1.0
C      1  0.5577310000000  0.5824360000000  0.5329830000000 1.0
C      1  0.4836590000000  0.4359310000000  0.5283920000000 1.0
C      1  0.5997110000000  0.5652580000000  0.5123080000000 1.0
C      1  0.5662850000000  0.5957520000000  0.4817860000000 1.0
C      1  0.4646840000000  0.3923320000000  0.4534840000000 1.0
C      1  0.5720300000000  0.5544120000000  0.5812180000000 1.0
C      1  0.4361560000000  0.5035290000000  0.3957260000000 1.0
C      1  0.5134810000000  0.4275830000000  0.5286110000000 1.0
C      1  0.5607280000000  0.5494920000000  0.4887180000000 1.0
C      1  0.5075590000000  0.6108760000000  0.4695560000000 1.0
C      1  0.4456800000000  0.4082010000000  0.5723750000000 1.0
C      1  0.4602120000000  0.4126240000000  0.4318540000000 1.0
C      1  0.4530530000000  0.4735450000000  0.5167520000000 1.0
C      1  0.5327830000000  0.5665400000000  0.5249340000000 1.0
C      1  0.5752220000000  0.5270890000000  0.4157690000000 1.0
C      1  0.5405300000000  0.5173580000000  0.5437330000000 1.0
C      1  0.4531950000000  0.5568570000000  0.4558520000000 1.0
C      1  0.5342000000000  0.4997730000000  0.5198870000000 1.0
C      1  0.4267870000000  0.4084250000000  0.4836810000000 1.0
C      1  0.4699860000000  0.4870160000000  0.4328760000000 1.0
C      1  0.6139240000000  0.4722970000000  0.5226990000000 1.0
C      1  0.5589110000000  0.5307870000000  0.5929670000000 1.0
C      1  0.5530320000000  0.5767130000000  0.5767740000000 1.0
C      1  0.4749450000000  0.5054320000000  0.5772320000000 1.0
C      1  0.3934390000000  0.4766180000000  0.5087170000000 1.0
C      1  0.3945310000000  0.4480150000000  0.4703020000000 1.0
C      1  0.4845090000000  0.4312870000000  0.4344980000000 1.0
C      1  0.6055780000000  0.5698900000000  0.4658340000000 1.0
C      1  0.4818000000000  0.4330490000000  0.5594840000000 1.0
C      1  0.4781570000000  0.5334550000000  0.5898170000000 1.0
C      1  0.4458470000000  0.5080580000000  0.6129760000000 1.0
C      1  0.5057470000000  0.5768970000000  0.5662440000000 1.0
C      1  0.5145160000000  0.4588350000000  0.4038760000000 1.0
C      1  0.4422560000000  0.4313890000000  0.4961940000000 1.0
C      1  0.5888520000000  0.5117230000000  0.5273330000000 1.0
C      1  0.4179770000000  0.4632830000000  0.4139540000000 1.0
C      1  0.5957360000000  0.5218720000000  0.4638540000000 1.0
C      1  0.5693250000000  0.4590570000000  0.5434060000000 1.0
C      1  0.4320510000000  0.3930980000000  0.5292420000000 1.0
C      1  0.4503280000000  0.5332720000000  0.6009830000000 1.0
C      1  0.4720960000000  0.5097530000000  0.5319390000000 1.0
C      1  0.3949080000000  0.5327320000000  0.4398400000000 1.0
C      1  0.5819650000000  0.4494370000000  0.4298870000000 1.0
C      1  0.5047330000000  0.6165390000000  0.5168040000000 1.0
C      1  0.4967320000000  0.4849300000000  0.6246880000000 1.0
C      1  0.4687420000000  0.4728190000000  0.4075760000000 1.0
C      1  0.5335600000000  0.5878640000000  0.4346930000000 1.0
C      1  0.4477110000000  0.6026590000000  0.4552540000000 1.0
C      1  0.5787600000000  0.4465690000000  0.4611310000000 1.0
C      1  0.4863810000000  0.5526460000000  0.4551450000000 1.0
C      1  0.5373590000000  0.4478890000000  0.4208180000000 1.0
C      1  0.5819450000000  0.5626700000000  0.5347600000000 1.0
C      1  0.5202210000000  0.5141300000000  0.4590610000000 1.0
C      1  0.4850960000000  0.5559420000000  0.5287750000000 1.0
C      1  0.5605500000000  0.4669510000000  0.4198880000000 1.0
C      1  0.5583020000000  0.4223410000000  0.4546010000000 1.0
C      1  0.6157780000000  0.5436510000000  0.4720650000000 1.0
C      1  0.5469230000000  0.4435640000000  0.5605190000000 1.0
C      1  0.5183370000000  0.5558310000000  0.3980720000000 1.0
C      1  0.4357420000000  0.4302510000000  0.4372110000000 1.0
C      1  0.4869730000000  0.4617280000000  0.6114940000000 1.0
C      1  0.5276170000000  0.5013160000000  0.3750500000000 1.0
C      1  0.5579320000000  0.4509980000000  0.5883980000000 1.0
C      1  0.4153670000000  0.5463960000000  0.4221200000000 1.0
C      1  0.4391670000000  0.4738150000000  0.3979360000000 1.0
C      1  0.6182140000000  0.4758880000000  0.4708230000000 1.0
C      1  0.3919190000000  0.4870940000000  0.5364070000000 1.0
C      1  0.6050740000000  0.4988160000000  0.4808350000000 1.0
C      1  0.5277090000000  0.5398040000000  0.3762950000000 1.0
C      1  0.4308920000000  0.5364770000000  0.5767420000000 1.0
C      1  0.4355630000000  0.4528090000000  0.5276750000000 1.0
C      1  0.3953420000000  0.5465560000000  0.5249680000000 1.0
C      1  0.4351070000000  0.5324780000000  0.5014790000000 1.0
C      1  0.3980780000000  0.4676220000000  0.5564370000000 1.0
C      1  0.4552300000000  0.5819290000000  0.4386460000000 1.0
C      1  0.5072840000000  0.5963640000000  0.4423730000000 1.0
C      1  0.4656730000000  0.5791890000000  0.4942710000000 1.0
C      1  0.5670790000000  0.5616060000000  0.4467750000000 1.0
C      1  0.4380810000000  0.5364120000000  0.4408140000000 1.0
C      1  0.4845950000000  0.5144130000000  0.5034820000000 1.0
C      1  0.5556100000000  0.4885180000000  0.4388000000000 1.0
C      1  0.5330110000000  0.5560290000000  0.4978070000000 1.0
C      1  0.4081270000000  0.5153560000000  0.5744260000000 1.0
C      1  0.5440260000000  0.4077050000000  0.5002720000000 1.0
C      1  0.4759860000000  0.4489230000000  0.4579530000000 1.0
C      1  0.5303450000000  0.4297980000000  0.4541440000000 1.0
C      1  0.4906140000000  0.5436730000000  0.5031370000000 1.0
C      1  0.5730990000000  0.5063230000000  0.5789630000000 1.0
C      1  0.4698700000000  0.5820770000000  0.5252400000000 1.0
C      1  0.5836600000000  0.5714140000000  0.4876080000000 1.0
C      1  0.6103630000000  0.4811090000000  0.5502670000000 1.0
C      1  0.4708220000000  0.4961940000000  0.4780750000000 1.0
C      1  0.5904060000000  0.5476320000000  0.5590950000000 1.0
C      1  0.4883760000000  0.4726750000000  0.4708440000000 1.0
C      1  0.5089000000000  0.3847080000000  0.5354750000000 1.0
C      1  0.4929190000000  0.4079470000000  0.4911960000000 1.0
C      1  0.5490750000000  0.4982600000000  0.5647070000000 1.0
C      1  0.4870060000000  0.6053020000000  0.5349770000000 1.0
C      1  0.4239290000000  0.4884500000000  0.5758230000000 1.0
C      1  0.5519500000000  0.5147260000000  0.4276870000000 1.0
C      1  0.6176110000000  0.5423390000000  0.5016720000000 1.0
C      1  0.4156920000000  0.4261330000000  0.4621880000000 1.0
C      1  0.4439280000000  0.3895770000000  0.4723510000000 1.0
C      1  0.3893350000000  0.4489550000000  0.4993650000000 1.0
C      1  0.4906720000000  0.5612080000000  0.4047650000000 1.0
C      1  0.4410210000000  0.4834420000000  0.6004990000000 1.0
C      1  0.4720780000000  0.5433150000000  0.3934900000000 1.0
C      1  0.5317010000000  0.4856470000000  0.4556350000000 1.0
C      1  0.5266110000000  0.4863770000000  0.5825900000000 1.0
C      1  0.5107970000000  0.5576650000000  0.5439350000000 1.0
C      1  0.4433710000000  0.5784460000000  0.5397280000000 1.0
C      1  0.5318570000000  0.4484100000000  0.5190890000000 1.0
C      1  0.5155990000000  0.4030560000000  0.5101020000000 1.0
C      1  0.4354450000000  0.4573630000000  0.4766950000000 1.0
C      1  0.5092170000000  0.4451370000000  0.5690530000000 1.0
C      1  0.5348880000000  0.4632360000000  0.6008750000000 1.0
C      1  0.5778470000000  0.4857710000000  0.5178260000000 1.0
C      1  0.4704670000000  0.5085160000000  0.4511590000000 1.0
C      1  0.6014110000000  0.4506020000000  0.5074170000000 1.0
C      1  0.4405630000000  0.5487330000000  0.5477320000000 1.0
C      1  0.5079810000000  0.4142350000000  0.4439400000000 1.0
C      1  0.5112700000000  0.4749410000000  0.5578370000000 1.0
C      1  0.4856550000000  0.5757590000000  0.4318540000000 1.0
C      1  0.3930630000000  0.4253960000000  0.5142210000000 1.0
C      1  0.5521330000000  0.5854550000000  0.4568800000000 1.0
C      1  0.5051840000000  0.5005560000000  0.6014720000000 1.0
C      1  0.4141200000000  0.5087400000000  0.4163990000000 1.0
C      1  0.5452350000000  0.5298480000000  0.4521940000000 1.0
C      1  0.4641300000000  0.4663970000000  0.5937790000000 1.0
C      1  0.5095560000000  0.5000260000000  0.5038350000000 1.0
C      1  0.5683380000000  0.5571290000000  0.4147330000000 1.0
END
