TITL C-950528-5794-155 -2.60031113541564e-06 125000 -1244.31186812533 0 0 198 (C1) n - 1
REM
REM in /home/bkarasulu/work/CARBON/AIRSS/Generating-Clusters/EDIP-Nigel-Params/with-SteepDescent/Only-C1/SD-CG/HFTN-CG
REM
REM
REM
REM
REM
REM ./C.cell (11c1c37f851c82e70ff6c80c92926a4b)
REM
REM compiler GCC version 9.2.1 20190827 (Red Hat 9.2.1-1)
REM options -cpp -mtune=generic -march=x86-64 -g -O0 -fpre-include=/usr/include/finclude/math-vector-fortran.h
REM seed -235125239 -108080987 1387295008 110293450 1505794939 -823595343 961459247 281468333 1626665836 1160958467 1282754694 1837923835 -950404114 -2076244781 -1016648803 665895497 315131040 592403634 -834298907 -830137239 1368534554 -1166135186 16175966 -1438635689 384438623 -612214469 143619228 -1304386009 2023680223 651329890 -506364498 -1454588180 -1831833016
REM
CELL 1.54180   50.00000   50.00000   50.00000   90.00000   90.00000   90.00000
LATT -1
SFAC C  
C      1  0.4409530000000  0.5440100000000  0.5115520000000 1.0
C      1  0.5503620000000  0.4120170000000  0.4515870000000 1.0
C      1  0.4781080000000  0.5489390000000  0.4830670000000 1.0
C      1  0.5592580000000  0.4721070000000  0.4597000000000 1.0
C      1  0.5021100000000  0.5455020000000  0.5554040000000 1.0
C      1  0.5080010000000  0.6117360000000  0.5249870000000 1.0
C      1  0.3830720000000  0.5119940000000  0.4981740000000 1.0
C      1  0.5022490000000  0.6018500000000  0.4805190000000 1.0
C      1  0.5041810000000  0.3992880000000  0.4943780000000 1.0
C      1  0.4437700000000  0.5395850000000  0.6163190000000 1.0
C      1  0.4486420000000  0.4127010000000  0.4511140000000 1.0
C      1  0.4911600000000  0.4475040000000  0.6047840000000 1.0
C      1  0.6048100000000  0.4771660000000  0.5174410000000 1.0
C      1  0.4314860000000  0.4294520000000  0.4339480000000 1.0
C      1  0.4530360000000  0.5981330000000  0.5341840000000 1.0
C      1  0.5944090000000  0.4379940000000  0.4547420000000 1.0
C      1  0.5032800000000  0.5241630000000  0.4506400000000 1.0
C      1  0.4848670000000  0.4691880000000  0.3859250000000 1.0
C      1  0.5930460000000  0.5131410000000  0.4178150000000 1.0
C      1  0.4040960000000  0.5078380000000  0.5822290000000 1.0
C      1  0.4349510000000  0.5561040000000  0.5707930000000 1.0
C      1  0.4546900000000  0.4694570000000  0.5214660000000 1.0
C      1  0.5582380000000  0.4032690000000  0.5504900000000 1.0
C      1  0.4351460000000  0.4328490000000  0.5371610000000 1.0
C      1  0.4042160000000  0.5796940000000  0.5005450000000 1.0
C      1  0.5388920000000  0.5142250000000  0.4743290000000 1.0
C      1  0.5882510000000  0.4499940000000  0.5553360000000 1.0
C      1  0.3849360000000  0.5069230000000  0.5278250000000 1.0
C      1  0.4505920000000  0.5920960000000  0.4855830000000 1.0
C      1  0.5374250000000  0.5616870000000  0.5828310000000 1.0
C      1  0.4903810000000  0.4192440000000  0.5903160000000 1.0
C      1  0.4116260000000  0.4822830000000  0.5655180000000 1.0
C      1  0.5674690000000  0.4057080000000  0.5018110000000 1.0
C      1  0.5110640000000  0.5411440000000  0.4011250000000 1.0
C      1  0.5024400000000  0.5182070000000  0.5107580000000 1.0
C      1  0.4878360000000  0.5096220000000  0.4277160000000 1.0
C      1  0.4471460000000  0.4059660000000  0.5284720000000 1.0
C      1  0.6112530000000  0.5552610000000  0.4942230000000 1.0
C      1  0.5428510000000  0.4768060000000  0.5406470000000 1.0
C      1  0.3899360000000  0.4893460000000  0.4806300000000 1.0
C      1  0.6049670000000  0.4624380000000  0.4148480000000 1.0
C      1  0.6015370000000  0.5577580000000  0.4667970000000 1.0
C      1  0.5141760000000  0.4934280000000  0.6108250000000 1.0
C      1  0.5963350000000  0.5536920000000  0.5358370000000 1.0
C      1  0.5009260000000  0.5843680000000  0.5341190000000 1.0
C      1  0.4265790000000  0.5201420000000  0.5279250000000 1.0
C      1  0.4305140000000  0.5712400000000  0.4975280000000 1.0
C      1  0.5443750000000  0.5523010000000  0.5280660000000 1.0
C      1  0.5194290000000  0.5642500000000  0.5107110000000 1.0
C      1  0.4783750000000  0.5438090000000  0.4531910000000 1.0
C      1  0.5148110000000  0.4285390000000  0.4167490000000 1.0
C      1  0.4971560000000  0.4614030000000  0.4404070000000 1.0
C      1  0.4678600000000  0.5261820000000  0.3826690000000 1.0
C      1  0.4163640000000  0.4247550000000  0.4845020000000 1.0
C      1  0.5710990000000  0.5538140000000  0.4333390000000 1.0
C      1  0.4730250000000  0.5783690000000  0.5240800000000 1.0
C      1  0.4751300000000  0.5773860000000  0.4939690000000 1.0
C      1  0.5642270000000  0.5276580000000  0.5107470000000 1.0
C      1  0.4602660000000  0.6176270000000  0.5028980000000 1.0
C      1  0.4568910000000  0.5289080000000  0.4912870000000 1.0
C      1  0.5950560000000  0.5040690000000  0.5577890000000 1.0
C      1  0.4838710000000  0.4262150000000  0.4145920000000 1.0
C      1  0.5585520000000  0.5122870000000  0.5871730000000 1.0
C      1  0.5455350000000  0.4723300000000  0.5728500000000 1.0
C      1  0.4750730000000  0.5052630000000  0.5013990000000 1.0
C      1  0.4982430000000  0.5209530000000  0.5415340000000 1.0
C      1  0.4986140000000  0.5884930000000  0.5645410000000 1.0
C      1  0.5958370000000  0.5739520000000  0.5126820000000 1.0
C      1  0.4880870000000  0.4404550000000  0.4596410000000 1.0
C      1  0.5325390000000  0.5440940000000  0.5579550000000 1.0
C      1  0.5677290000000  0.4326770000000  0.4422040000000 1.0
C      1  0.4695510000000  0.4526370000000  0.4786030000000 1.0
C      1  0.5606320000000  0.5778910000000  0.4457030000000 1.0
C      1  0.5817880000000  0.5363590000000  0.4572670000000 1.0
C      1  0.4020620000000  0.4781470000000  0.5372170000000 1.0
C      1  0.4976800000000  0.5524780000000  0.6071680000000 1.0
C      1  0.4961940000000  0.5622110000000  0.4175230000000 1.0
C      1  0.5894890000000  0.4836210000000  0.4575700000000 1.0
C      1  0.4906510000000  0.6197430000000  0.5018150000000 1.0
C      1  0.5096010000000  0.4856060000000  0.4571910000000 1.0
C      1  0.5787650000000  0.5530860000000  0.5585440000000 1.0
C      1  0.5527230000000  0.4944050000000  0.5139880000000 1.0
C      1  0.5814760000000  0.5269390000000  0.5719460000000 1.0
C      1  0.4687810000000  0.3976050000000  0.5484140000000 1.0
C      1  0.4499020000000  0.5675270000000  0.4397570000000 1.0
C      1  0.4416640000000  0.4899510000000  0.5707700000000 1.0
C      1  0.5586460000000  0.5771740000000  0.5364220000000 1.0
C      1  0.5680120000000  0.4744220000000  0.4934960000000 1.0
C      1  0.4856540000000  0.4666630000000  0.5815510000000 1.0
C      1  0.5477650000000  0.3969170000000  0.5229830000000 1.0
C      1  0.5042140000000  0.4580220000000  0.5059450000000 1.0
C      1  0.5036150000000  0.5431350000000  0.4970650000000 1.0
C      1  0.4271290000000  0.5370120000000  0.4107850000000 1.0
C      1  0.5948600000000  0.5299570000000  0.5163710000000 1.0
C      1  0.4783850000000  0.4565590000000  0.4128460000000 1.0
C      1  0.5023120000000  0.3934750000000  0.4467360000000 1.0
C      1  0.4386980000000  0.5172600000000  0.4676780000000 1.0
C      1  0.4102010000000  0.5265630000000  0.4600300000000 1.0
C      1  0.5086020000000  0.3822720000000  0.4723190000000 1.0
C      1  0.5430570000000  0.5021600000000  0.4193910000000 1.0
C      1  0.5267380000000  0.5838970000000  0.4865010000000 1.0
C      1  0.4738040000000  0.5140980000000  0.5885570000000 1.0
C      1  0.4840820000000  0.4390990000000  0.5409710000000 1.0
C      1  0.5307230000000  0.4534770000000  0.4130410000000 1.0
C      1  0.5391360000000  0.4941690000000  0.4513170000000 1.0
C      1  0.5486400000000  0.4268400000000  0.5872180000000 1.0
C      1  0.4099600000000  0.4474420000000  0.5271430000000 1.0
C      1  0.4622700000000  0.5520480000000  0.5303910000000 1.0
C      1  0.4882120000000  0.5964350000000  0.4543850000000 1.0
C      1  0.4237730000000  0.4884560000000  0.5173490000000 1.0
C      1  0.5106290000000  0.4145960000000  0.5683960000000 1.0
C      1  0.4684160000000  0.5762790000000  0.6021610000000 1.0
C      1  0.5497980000000  0.5986860000000  0.4987270000000 1.0
C      1  0.5727940000000  0.5813300000000  0.4946400000000 1.0
C      1  0.4495250000000  0.5106850000000  0.5477850000000 1.0
C      1  0.4470870000000  0.5893580000000  0.5612430000000 1.0
C      1  0.5390630000000  0.5155500000000  0.5645180000000 1.0
C      1  0.4718380000000  0.5898760000000  0.5772400000000 1.0
C      1  0.4518910000000  0.5475470000000  0.3968550000000 1.0
C      1  0.4372130000000  0.4623300000000  0.3977330000000 1.0
C      1  0.4455400000000  0.4362990000000  0.4094360000000 1.0
C      1  0.5297960000000  0.4505270000000  0.5851210000000 1.0
C      1  0.4321950000000  0.5086580000000  0.4070260000000 1.0
C      1  0.4561020000000  0.4029260000000  0.5008790000000 1.0
C      1  0.4660120000000  0.4945490000000  0.5276300000000 1.0
C      1  0.3935510000000  0.5318060000000  0.5417530000000 1.0
C      1  0.4222500000000  0.5499570000000  0.4375470000000 1.0
C      1  0.4641910000000  0.4143230000000  0.5746250000000 1.0
C      1  0.5442520000000  0.4487800000000  0.5349910000000 1.0
C      1  0.5041630000000  0.4914430000000  0.3883390000000 1.0
C      1  0.5962070000000  0.4509510000000  0.5275050000000 1.0
C      1  0.5267510000000  0.5415790000000  0.4426220000000 1.0
C      1  0.5183720000000  0.4616660000000  0.6118840000000 1.0
C      1  0.5616900000000  0.4347170000000  0.5554330000000 1.0
C      1  0.6065150000000  0.4623250000000  0.4430190000000 1.0
C      1  0.5027250000000  0.4566820000000  0.5582690000000 1.0
C      1  0.3880600000000  0.5608210000000  0.4907310000000 1.0
C      1  0.5712650000000  0.4968960000000  0.4105900000000 1.0
C      1  0.5258290000000  0.4819440000000  0.4051130000000 1.0
C      1  0.5619940000000  0.5297370000000  0.4803690000000 1.0
C      1  0.5437950000000  0.6012430000000  0.5269010000000 1.0
C      1  0.5851320000000  0.4306390000000  0.5065650000000 1.0
C      1  0.4094050000000  0.5333050000000  0.5663700000000 1.0
C      1  0.4792190000000  0.4158430000000  0.4443630000000 1.0
C      1  0.5359800000000  0.5329250000000  0.4157170000000 1.0
C      1  0.4673390000000  0.4818680000000  0.4730410000000 1.0
C      1  0.4789960000000  0.3866560000000  0.4973490000000 1.0
C      1  0.4110710000000  0.4759780000000  0.4382550000000 1.0
C      1  0.5497570000000  0.4498990000000  0.4877910000000 1.0
C      1  0.5251880000000  0.4087520000000  0.4362060000000 1.0
C      1  0.4572920000000  0.4648130000000  0.5741440000000 1.0
C      1  0.5091000000000  0.4809350000000  0.4874290000000 1.0
C      1  0.4479510000000  0.5050260000000  0.3831130000000 1.0
C      1  0.4216620000000  0.4825470000000  0.4125980000000 1.0
C      1  0.4579600000000  0.5404520000000  0.5570660000000 1.0
C      1  0.4970730000000  0.4108760000000  0.5421320000000 1.0
C      1  0.4502820000000  0.5141110000000  0.6070810000000 1.0
C      1  0.5269360000000  0.5469620000000  0.6071470000000 1.0
C      1  0.5982700000000  0.4437290000000  0.4836610000000 1.0
C      1  0.4378290000000  0.4876290000000  0.4715500000000 1.0
C      1  0.5264570000000  0.5019600000000  0.4985900000000 1.0
C      1  0.4086200000000  0.4480170000000  0.4977250000000 1.0
C      1  0.4543850000000  0.5238080000000  0.4423610000000 1.0
C      1  0.5135750000000  0.4795390000000  0.5430840000000 1.0
C      1  0.5584610000000  0.4506330000000  0.4213230000000 1.0
C      1  0.4959430000000  0.4948010000000  0.5862870000000 1.0
C      1  0.5119750000000  0.5024480000000  0.5603480000000 1.0
C      1  0.6034490000000  0.5041170000000  0.5301700000000 1.0
C      1  0.4581290000000  0.5917340000000  0.4557610000000 1.0
C      1  0.5373680000000  0.4026520000000  0.5736860000000 1.0
C      1  0.4387540000000  0.4095890000000  0.4785620000000 1.0
C      1  0.4668730000000  0.5641660000000  0.4154880000000 1.0
C      1  0.4691620000000  0.4880430000000  0.4405430000000 1.0
C      1  0.4745300000000  0.4494750000000  0.5084710000000 1.0
C      1  0.5895770000000  0.4775990000000  0.5699440000000 1.0
C      1  0.3959190000000  0.5349420000000  0.4851850000000 1.0
C      1  0.5077580000000  0.5811340000000  0.4375750000000 1.0
C      1  0.5939300000000  0.5115670000000  0.4457870000000 1.0
C      1  0.4926260000000  0.5176350000000  0.3979010000000 1.0
C      1  0.5818010000000  0.5807130000000  0.4671150000000 1.0
C      1  0.5203300000000  0.4104440000000  0.5169870000000 1.0
C      1  0.4116430000000  0.4478560000000  0.4432420000000 1.0
C      1  0.4435800000000  0.5615180000000  0.5998270000000 1.0
C      1  0.6076460000000  0.4715320000000  0.4893400000000 1.0
C      1  0.5593980000000  0.5478280000000  0.4081870000000 1.0
C      1  0.4154700000000  0.4772640000000  0.4899620000000 1.0
C      1  0.5674320000000  0.4829180000000  0.5887080000000 1.0
C      1  0.5296020000000  0.4408360000000  0.5101030000000 1.0
C      1  0.5218890000000  0.5849490000000  0.5798870000000 1.0
C      1  0.4245360000000  0.5015480000000  0.6032820000000 1.0
C      1  0.5365250000000  0.5173560000000  0.6089920000000 1.0
C      1  0.5318920000000  0.5711840000000  0.4544270000000 1.0
C      1  0.4570160000000  0.4394300000000  0.5579630000000 1.0
C      1  0.4850980000000  0.5416130000000  0.5815960000000 1.0
C      1  0.4563320000000  0.4765260000000  0.3795970000000 1.0
C      1  0.5779330000000  0.4688620000000  0.4098660000000 1.0
C      1  0.3970160000000  0.4982080000000  0.4530990000000 1.0
C      1  0.5585550000000  0.3997340000000  0.4754650000000 1.0
END
