TITL C-950533-5798-615 7.90709309198606e-07 125000 -949.991929391511 0 0 153 (C1) n - 1
REM
REM in /home/bkarasulu/work/CARBON/AIRSS/Generating-Clusters/EDIP-Nigel-Params/with-SteepDescent/Only-C1/SD-CG/HFTN-CG
REM
REM
REM
REM
REM
REM ./C.cell (11c1c37f851c82e70ff6c80c92926a4b)
REM
REM compiler GCC version 9.2.1 20190827 (Red Hat 9.2.1-1)
REM options -cpp -mtune=generic -march=x86-64 -g -O0 -fpre-include=/usr/include/finclude/math-vector-fortran.h
REM seed -1156035227 -593664395 -422716255 -2036495463 -2013922710 2095789022 -982704997 424045080 -1099345397 -10585893 368926412 -187314306 -2121456034 -1888828953 -1010490033 -724210502 -1626433402 1615880816 489451236 1409676620 135273325 1838659065 -241494573 -864709750 -414223671 -1065395980 1794252718 445408953 -1700575726 333569149 -1379537295 -1654186567 -1872832424
REM
CELL 1.54180   50.00000   50.00000   50.00000   90.00000   90.00000   90.00000
LATT -1
SFAC C  
C      1  0.4905630000000  0.3996020000000  0.4890300000000 1.0
C      1  0.5168790000000  0.6015190000000  0.5447760000000 1.0
C      1  0.4329910000000  0.4493480000000  0.5647400000000 1.0
C      1  0.5431490000000  0.5461730000000  0.5667520000000 1.0
C      1  0.4669320000000  0.4251740000000  0.4448320000000 1.0
C      1  0.4246600000000  0.5473110000000  0.5416040000000 1.0
C      1  0.5662600000000  0.5887600000000  0.4983380000000 1.0
C      1  0.4568320000000  0.5799970000000  0.5093430000000 1.0
C      1  0.5351750000000  0.5721290000000  0.4402270000000 1.0
C      1  0.4286730000000  0.5709470000000  0.4993020000000 1.0
C      1  0.4369750000000  0.5755430000000  0.4520080000000 1.0
C      1  0.4339920000000  0.4096330000000  0.5041220000000 1.0
C      1  0.4833330000000  0.5179340000000  0.6017750000000 1.0
C      1  0.4035050000000  0.4926650000000  0.5162690000000 1.0
C      1  0.5518570000000  0.4647480000000  0.4993870000000 1.0
C      1  0.4448890000000  0.4851520000000  0.4498620000000 1.0
C      1  0.5914810000000  0.4390130000000  0.4857030000000 1.0
C      1  0.6220880000000  0.4694150000000  0.5034200000000 1.0
C      1  0.5534020000000  0.5486280000000  0.4370120000000 1.0
C      1  0.5893960000000  0.4842090000000  0.4439600000000 1.0
C      1  0.5303640000000  0.5408790000000  0.5382030000000 1.0
C      1  0.3956290000000  0.4763780000000  0.4927170000000 1.0
C      1  0.3866770000000  0.4955720000000  0.4739620000000 1.0
C      1  0.4139460000000  0.5348800000000  0.4666220000000 1.0
C      1  0.4799610000000  0.6015720000000  0.4695630000000 1.0
C      1  0.6128870000000  0.4906140000000  0.5187390000000 1.0
C      1  0.5440970000000  0.4883170000000  0.4366080000000 1.0
C      1  0.4557650000000  0.5065160000000  0.4916590000000 1.0
C      1  0.5495230000000  0.4880020000000  0.5548470000000 1.0
C      1  0.5708480000000  0.5588480000000  0.4941870000000 1.0
C      1  0.4740300000000  0.4762460000000  0.4500390000000 1.0
C      1  0.5440480000000  0.4013040000000  0.5462670000000 1.0
C      1  0.4780300000000  0.4486110000000  0.4618330000000 1.0
C      1  0.4591160000000  0.5676120000000  0.4205990000000 1.0
C      1  0.5085720000000  0.4062720000000  0.4664100000000 1.0
C      1  0.4612600000000  0.5599650000000  0.4508350000000 1.0
C      1  0.5733640000000  0.5063870000000  0.5467290000000 1.0
C      1  0.5377020000000  0.5590340000000  0.5145060000000 1.0
C      1  0.4614670000000  0.4872030000000  0.4034230000000 1.0
C      1  0.4956570000000  0.5509780000000  0.3927910000000 1.0
C      1  0.5012490000000  0.5981100000000  0.5200590000000 1.0
C      1  0.5185590000000  0.5811980000000  0.5023670000000 1.0
C      1  0.4874770000000  0.4883670000000  0.5977960000000 1.0
C      1  0.4673920000000  0.4261780000000  0.5308570000000 1.0
C      1  0.4634260000000  0.4734330000000  0.5912890000000 1.0
C      1  0.5145280000000  0.4503210000000  0.5769670000000 1.0
C      1  0.4966600000000  0.4197140000000  0.4427600000000 1.0
C      1  0.4758890000000  0.5575090000000  0.5050580000000 1.0
C      1  0.4725630000000  0.6029960000000  0.4968230000000 1.0
C      1  0.4324470000000  0.5222760000000  0.4172840000000 1.0
C      1  0.5241260000000  0.3959630000000  0.5655520000000 1.0
C      1  0.5263060000000  0.4991160000000  0.5730960000000 1.0
C      1  0.5052280000000  0.5319990000000  0.4392130000000 1.0
C      1  0.4694110000000  0.4360760000000  0.5017610000000 1.0
C      1  0.4742490000000  0.5299040000000  0.4000040000000 1.0
C      1  0.5416430000000  0.5106020000000  0.5084200000000 1.0
C      1  0.5222180000000  0.4949970000000  0.5208940000000 1.0
C      1  0.4885970000000  0.5646000000000  0.5657190000000 1.0
C      1  0.5734830000000  0.5615430000000  0.5379990000000 1.0
C      1  0.5225800000000  0.5442930000000  0.3968350000000 1.0
C      1  0.5014880000000  0.4690990000000  0.4842760000000 1.0
C      1  0.4621150000000  0.5294890000000  0.4495890000000 1.0
C      1  0.4720320000000  0.4794640000000  0.5279180000000 1.0
C      1  0.4536480000000  0.5846960000000  0.5378440000000 1.0
C      1  0.4097980000000  0.4523150000000  0.4819170000000 1.0
C      1  0.4453810000000  0.4577660000000  0.4960540000000 1.0
C      1  0.3999730000000  0.4359800000000  0.5276770000000 1.0
C      1  0.3949620000000  0.5183350000000  0.5072560000000 1.0
C      1  0.5096030000000  0.4787900000000  0.4103500000000 1.0
C      1  0.5742780000000  0.5337390000000  0.5382520000000 1.0
C      1  0.5447280000000  0.6015520000000  0.5397910000000 1.0
C      1  0.5370910000000  0.4698880000000  0.5251470000000 1.0
C      1  0.4628830000000  0.4475490000000  0.5760850000000 1.0
C      1  0.6141100000000  0.5154040000000  0.5063360000000 1.0
C      1  0.4466420000000  0.4855960000000  0.5116070000000 1.0
C      1  0.4890200000000  0.5712820000000  0.4130310000000 1.0
C      1  0.5487750000000  0.4149880000000  0.4953360000000 1.0
C      1  0.4132030000000  0.5577040000000  0.5185470000000 1.0
C      1  0.5370790000000  0.4471200000000  0.4544910000000 1.0
C      1  0.4975170000000  0.4050870000000  0.5661800000000 1.0
C      1  0.6095570000000  0.4717520000000  0.4582090000000 1.0
C      1  0.4212650000000  0.4305340000000  0.5456370000000 1.0
C      1  0.4234360000000  0.4770780000000  0.5656180000000 1.0
C      1  0.5056070000000  0.5341860000000  0.5933430000000 1.0
C      1  0.5451370000000  0.4425050000000  0.5734190000000 1.0
C      1  0.5344690000000  0.5717660000000  0.5764220000000 1.0
C      1  0.5453900000000  0.5046760000000  0.4113460000000 1.0
C      1  0.5521000000000  0.5140810000000  0.4827760000000 1.0
C      1  0.5341050000000  0.4986370000000  0.4644320000000 1.0
C      1  0.5463700000000  0.5433510000000  0.4800560000000 1.0
C      1  0.4482870000000  0.5432300000000  0.4055810000000 1.0
C      1  0.5135280000000  0.4431800000000  0.4362280000000 1.0
C      1  0.5786030000000  0.5378830000000  0.4500850000000 1.0
C      1  0.3913230000000  0.5228410000000  0.4795720000000 1.0
C      1  0.5862530000000  0.4322290000000  0.5471710000000 1.0
C      1  0.5594770000000  0.4247530000000  0.5545100000000 1.0
C      1  0.4844790000000  0.5134170000000  0.4958120000000 1.0
C      1  0.4546170000000  0.5159700000000  0.5348720000000 1.0
C      1  0.5260090000000  0.4946860000000  0.3932450000000 1.0
C      1  0.5080130000000  0.5174040000000  0.4653020000000 1.0
C      1  0.4195980000000  0.5213400000000  0.5517200000000 1.0
C      1  0.5861360000000  0.4601920000000  0.5533090000000 1.0
C      1  0.5160500000000  0.5402640000000  0.4815480000000 1.0
C      1  0.5401350000000  0.5914280000000  0.4593660000000 1.0
C      1  0.4589640000000  0.4022970000000  0.4845590000000 1.0
C      1  0.5418110000000  0.5334320000000  0.4144730000000 1.0
C      1  0.5674710000000  0.4383650000000  0.5003660000000 1.0
C      1  0.5020250000000  0.4555840000000  0.5501200000000 1.0
C      1  0.4406280000000  0.4909490000000  0.5854470000000 1.0
C      1  0.5058070000000  0.5635510000000  0.4376450000000 1.0
C      1  0.5324110000000  0.5255590000000  0.5864050000000 1.0
C      1  0.5625670000000  0.4661110000000  0.5701270000000 1.0
C      1  0.4407150000000  0.4135300000000  0.5325140000000 1.0
C      1  0.4219440000000  0.5627010000000  0.4719870000000 1.0
C      1  0.4869380000000  0.4047880000000  0.5382470000000 1.0
C      1  0.4985010000000  0.5136850000000  0.5608830000000 1.0
C      1  0.5667980000000  0.5880960000000  0.5283410000000 1.0
C      1  0.4436600000000  0.5643850000000  0.5544180000000 1.0
C      1  0.5653390000000  0.4689100000000  0.4399100000000 1.0
C      1  0.4624530000000  0.5540870000000  0.5738210000000 1.0
C      1  0.5913790000000  0.5495630000000  0.4742610000000 1.0
C      1  0.4377800000000  0.4940780000000  0.4203480000000 1.0
C      1  0.4680980000000  0.5064190000000  0.3831940000000 1.0
C      1  0.5010380000000  0.5365780000000  0.5423140000000 1.0
C      1  0.4586230000000  0.5253140000000  0.5854930000000 1.0
C      1  0.4958590000000  0.4891520000000  0.5081670000000 1.0
C      1  0.5038530000000  0.3955620000000  0.5154520000000 1.0
C      1  0.4814970000000  0.5194320000000  0.4280780000000 1.0
C      1  0.4733080000000  0.4524740000000  0.5464890000000 1.0
C      1  0.4120140000000  0.4301730000000  0.5024320000000 1.0
C      1  0.5311470000000  0.4695590000000  0.4760250000000 1.0
C      1  0.4169510000000  0.4943270000000  0.5424930000000 1.0
C      1  0.4837160000000  0.4884530000000  0.4238290000000 1.0
C      1  0.6126000000000  0.4562060000000  0.4809040000000 1.0
C      1  0.5105230000000  0.5838130000000  0.5677950000000 1.0
C      1  0.5886640000000  0.5124170000000  0.4426180000000 1.0
C      1  0.5140660000000  0.4776550000000  0.5907970000000 1.0
C      1  0.5154790000000  0.4496260000000  0.5261600000000 1.0
C      1  0.4873010000000  0.5745540000000  0.4616740000000 1.0
C      1  0.4680270000000  0.5058640000000  0.5615710000000 1.0
C      1  0.4793770000000  0.5325420000000  0.5197370000000 1.0
C      1  0.4520850000000  0.4053790000000  0.4572250000000 1.0
C      1  0.4909850000000  0.4292920000000  0.5837930000000 1.0
C      1  0.5913920000000  0.4851500000000  0.5374650000000 1.0
C      1  0.5342130000000  0.4203510000000  0.4704410000000 1.0
C      1  0.4357840000000  0.4603360000000  0.4662150000000 1.0
C      1  0.4982760000000  0.4455270000000  0.5008090000000 1.0
C      1  0.5141950000000  0.4514140000000  0.4097900000000 1.0
C      1  0.4986680000000  0.5632600000000  0.4871210000000 1.0
C      1  0.5331180000000  0.4024160000000  0.5184410000000 1.0
C      1  0.4437980000000  0.5117380000000  0.4652900000000 1.0
C      1  0.6101620000000  0.5332720000000  0.4867350000000 1.0
C      1  0.5397210000000  0.5965600000000  0.4865620000000 1.0
END
