TITL C-950527-2551-190 -2.87727186365544e-07 125000 -177.661728074119 0 0 30 (C1) n - 1
REM
REM in /home/bkarasulu/work/CARBON/AIRSS/Generating-Clusters/EDIP-Nigel-Params/with-SteepDescent/Only-C1/SD-CG/HFTN-CG
REM
REM
REM
REM
REM
REM ./C.cell (11c1c37f851c82e70ff6c80c92926a4b)
REM
REM compiler GCC version 9.2.1 20190827 (Red Hat 9.2.1-1)
REM options -cpp -mtune=generic -march=x86-64 -g -O0 -fpre-include=/usr/include/finclude/math-vector-fortran.h
REM seed 275692822 232176592 1675128021 -973841135 -1020465290 1602433058 -766047827 949571840 -60491740 1455314346 -1924920041 -1535834228 766993735 107510803 -1588389635 1370837520 1706851968 718602942 492476352 -1602792078 -672340362 -1325358409 -1322302425 1793182494 -1656950194 -1120254621 706806155 2001074780 1181010824 400051329 1985424448 1552071561 -1972944989
REM
CELL 1.54180   50.00000   50.00000   50.00000   90.00000   90.00000   90.00000
LATT -1
SFAC C  
C      1  0.5146930000000  0.5261640000000  0.4592960000000 1.0
C      1  0.5037720000000  0.5165740000000  0.5613180000000 1.0
C      1  0.4863690000000  0.4875160000000  0.4708580000000 1.0
C      1  0.5315700000000  0.4801700000000  0.4554320000000 1.0
C      1  0.4794540000000  0.5456990000000  0.5178260000000 1.0
C      1  0.5249290000000  0.5093660000000  0.5449880000000 1.0
C      1  0.4866250000000  0.4591280000000  0.4757970000000 1.0
C      1  0.4768950000000  0.5514840000000  0.4738130000000 1.0
C      1  0.5025390000000  0.4472860000000  0.4961940000000 1.0
C      1  0.4618630000000  0.5030810000000  0.4712830000000 1.0
C      1  0.5349390000000  0.4834580000000  0.5472180000000 1.0
C      1  0.5009200000000  0.4536510000000  0.5239630000000 1.0
C      1  0.5273960000000  0.5224670000000  0.5192110000000 1.0
C      1  0.4472720000000  0.5016800000000  0.4948940000000 1.0
C      1  0.5565600000000  0.4898460000000  0.4628560000000 1.0
C      1  0.4567090000000  0.4778770000000  0.5353790000000 1.0
C      1  0.5227810000000  0.4533200000000  0.4636590000000 1.0
C      1  0.5094960000000  0.4986570000000  0.4574880000000 1.0
C      1  0.4647320000000  0.5291870000000  0.4614920000000 1.0
C      1  0.4760360000000  0.4594000000000  0.5346730000000 1.0
C      1  0.4647360000000  0.5263490000000  0.5352350000000 1.0
C      1  0.5052840000000  0.5443570000000  0.4786970000000 1.0
C      1  0.5628780000000  0.5050650000000  0.4839010000000 1.0
C      1  0.5043190000000  0.5348350000000  0.5062560000000 1.0
C      1  0.4776400000000  0.5221510000000  0.5597890000000 1.0
C      1  0.4641770000000  0.5591590000000  0.4980170000000 1.0
C      1  0.4547860000000  0.5019470000000  0.5217650000000 1.0
C      1  0.5269410000000  0.4328850000000  0.4466440000000 1.0
C      1  0.5498260000000  0.5164310000000  0.5041620000000 1.0
C      1  0.5238610000000  0.4608100000000  0.5378920000000 1.0
END
