TITL C-951336-9012-753 -2.48863228935782e-06 125000 -384.523216484048 0 0 63 (C1) n - 1
REM
REM in /home/bkarasulu/work/CARBON/AIRSS/Generating-Clusters/EDIP-Nigel-Params/with-SteepDescent/Only-C1/SD-CG/HFTN-CG
REM
REM
REM
REM
REM
REM ./C.cell (11c1c37f851c82e70ff6c80c92926a4b)
REM
REM compiler GCC version 9.2.1 20190827 (Red Hat 9.2.1-1)
REM options -cpp -mtune=generic -march=x86-64 -g -O0 -fpre-include=/usr/include/finclude/math-vector-fortran.h
REM seed 996486667 -189298679 1329111922 634151955 2018696146 1641672885 834019552 1146302329 366514875 1896001136 176811374 -1910820807 -1196330052 -1578264872 -1324698090 -1682744349 -1313193331 -106857382 353110376 2063298555 909242531 -1117522317 -1819842915 1309135818 1865563054 1334953680 364319853 719528912 1276406533 1378729209 1691115506 -1338412873 -1906060460
REM
CELL 1.54180   50.00000   50.00000   50.00000   90.00000   90.00000   90.00000
LATT -1
SFAC C  
C      1  0.5127020000000  0.4568560000000  0.5581410000000 1.0
C      1  0.5710710000000  0.5274910000000  0.5272880000000 1.0
C      1  0.5364220000000  0.4785730000000  0.4460230000000 1.0
C      1  0.4694130000000  0.5465500000000  0.5293780000000 1.0
C      1  0.4416650000000  0.5017670000000  0.4498470000000 1.0
C      1  0.4944900000000  0.4510480000000  0.4533890000000 1.0
C      1  0.5470700000000  0.5209870000000  0.5082360000000 1.0
C      1  0.5236450000000  0.5166340000000  0.5518550000000 1.0
C      1  0.5147520000000  0.5424300000000  0.4432800000000 1.0
C      1  0.4968650000000  0.4988070000000  0.4904820000000 1.0
C      1  0.4922790000000  0.5794530000000  0.4988940000000 1.0
C      1  0.4929650000000  0.4513560000000  0.5379580000000 1.0
C      1  0.4666650000000  0.4596450000000  0.4569500000000 1.0
C      1  0.4480470000000  0.4460960000000  0.5304400000000 1.0
C      1  0.5100110000000  0.5681340000000  0.4543750000000 1.0
C      1  0.4223140000000  0.4575470000000  0.5314920000000 1.0
C      1  0.4342420000000  0.5429540000000  0.5658600000000 1.0
C      1  0.4256420000000  0.4825140000000  0.5183850000000 1.0
C      1  0.4686220000000  0.5135380000000  0.4922400000000 1.0
C      1  0.4372980000000  0.5068780000000  0.5318410000000 1.0
C      1  0.5071380000000  0.4876630000000  0.5172420000000 1.0
C      1  0.4919310000000  0.4271300000000  0.5227560000000 1.0
C      1  0.5537790000000  0.5467540000000  0.4730090000000 1.0
C      1  0.5694090000000  0.4769700000000  0.5175350000000 1.0
C      1  0.4896860000000  0.4972990000000  0.4379470000000 1.0
C      1  0.4675720000000  0.4615590000000  0.5445670000000 1.0
C      1  0.4844210000000  0.4946370000000  0.5370200000000 1.0
C      1  0.4545810000000  0.4576150000000  0.4836300000000 1.0
C      1  0.5694050000000  0.5033490000000  0.4742700000000 1.0
C      1  0.4923940000000  0.5264960000000  0.4326740000000 1.0
C      1  0.5486710000000  0.5032800000000  0.4540920000000 1.0
C      1  0.4991870000000  0.5034590000000  0.5617780000000 1.0
C      1  0.4225080000000  0.5260530000000  0.5473570000000 1.0
C      1  0.5385190000000  0.4547450000000  0.5487070000000 1.0
C      1  0.4620690000000  0.5482270000000  0.4564770000000 1.0
C      1  0.5428920000000  0.5501370000000  0.5224630000000 1.0
C      1  0.4590470000000  0.4356670000000  0.5030660000000 1.0
C      1  0.4707630000000  0.5413260000000  0.4821930000000 1.0
C      1  0.5441020000000  0.4381140000000  0.4785840000000 1.0
C      1  0.5083830000000  0.4747620000000  0.4413210000000 1.0
C      1  0.5379920000000  0.5615840000000  0.4933710000000 1.0
C      1  0.5471040000000  0.4587740000000  0.5224580000000 1.0
C      1  0.4718230000000  0.5608010000000  0.5030060000000 1.0
C      1  0.5372370000000  0.5298400000000  0.4557510000000 1.0
C      1  0.4647240000000  0.5155180000000  0.5230980000000 1.0
C      1  0.5720910000000  0.4995440000000  0.5361410000000 1.0
C      1  0.4354550000000  0.4784550000000  0.4906260000000 1.0
C      1  0.5064580000000  0.4791590000000  0.5741970000000 1.0
C      1  0.4684460000000  0.5415500000000  0.4308510000000 1.0
C      1  0.5141020000000  0.5741270000000  0.4819320000000 1.0
C      1  0.5663760000000  0.4545640000000  0.4746600000000 1.0
C      1  0.5753060000000  0.5299670000000  0.4834060000000 1.0
C      1  0.5753950000000  0.4779750000000  0.4880700000000 1.0
C      1  0.4634130000000  0.4855790000000  0.4426960000000 1.0
C      1  0.5338970000000  0.5002860000000  0.5287800000000 1.0
C      1  0.4455490000000  0.5560030000000  0.5442820000000 1.0
C      1  0.4937320000000  0.5518350000000  0.5434500000000 1.0
C      1  0.4429780000000  0.5032770000000  0.4780470000000 1.0
C      1  0.5204410000000  0.5441440000000  0.5427910000000 1.0
C      1  0.5287870000000  0.4553010000000  0.4976800000000 1.0
C      1  0.5223110000000  0.4819550000000  0.4819080000000 1.0
C      1  0.5065290000000  0.4334540000000  0.4747360000000 1.0
C      1  0.4872190000000  0.4218060000000  0.4950230000000 1.0
END
