TITL C-950535-5962-341 -1.91968711003832e-06 125000 -571.521564243291 0 0 93 (C1) n - 1
REM
REM in /home/bkarasulu/work/CARBON/AIRSS/Generating-Clusters/EDIP-Nigel-Params/with-SteepDescent/Only-C1/SD-CG/HFTN-CG
REM
REM
REM
REM
REM
REM ./C.cell (11c1c37f851c82e70ff6c80c92926a4b)
REM
REM compiler GCC version 9.2.1 20190827 (Red Hat 9.2.1-1)
REM options -cpp -mtune=generic -march=x86-64 -g -O0 -fpre-include=/usr/include/finclude/math-vector-fortran.h
REM seed -2127301842 999525669 -2000889160 181175819 12717411 -1081037506 -748336325 585346490 -1042605188 -793068379 2128578778 547915572 381910334 -1569990413 26896108 2013600553 262604230 1305965331 2097866101 823771247 1311605266 567218059 -1501325322 -1327516419 1595265407 -1407204160 -1940860409 2005089757 1691617189 -1383561250 778439766 -1017496112 -2021749177
REM
CELL 1.54180   50.00000   50.00000   50.00000   90.00000   90.00000   90.00000
LATT -1
SFAC C  
C      1  0.5365090000000  0.4908700000000  0.5162770000000 1.0
C      1  0.5690540000000  0.5101610000000  0.4931840000000 1.0
C      1  0.4742000000000  0.5383410000000  0.5034140000000 1.0
C      1  0.4797460000000  0.4721060000000  0.5191390000000 1.0
C      1  0.4912980000000  0.4995420000000  0.5237580000000 1.0
C      1  0.5090930000000  0.4542250000000  0.5744230000000 1.0
C      1  0.5382680000000  0.4280830000000  0.5499230000000 1.0
C      1  0.4245990000000  0.4935490000000  0.5292840000000 1.0
C      1  0.5478560000000  0.4480590000000  0.4694850000000 1.0
C      1  0.5143010000000  0.5573220000000  0.5535550000000 1.0
C      1  0.5040120000000  0.4266090000000  0.4599310000000 1.0
C      1  0.4577840000000  0.4602890000000  0.5489440000000 1.0
C      1  0.5589170000000  0.5238170000000  0.5624240000000 1.0
C      1  0.5145250000000  0.5034980000000  0.5654570000000 1.0
C      1  0.4379660000000  0.5094340000000  0.4570560000000 1.0
C      1  0.4890720000000  0.5297010000000  0.5296580000000 1.0
C      1  0.4071870000000  0.5034930000000  0.5070040000000 1.0
C      1  0.5314590000000  0.4219890000000  0.4734340000000 1.0
C      1  0.4491190000000  0.4879380000000  0.4393160000000 1.0
C      1  0.4231760000000  0.4628680000000  0.4782420000000 1.0
C      1  0.4691430000000  0.4327880000000  0.5487200000000 1.0
C      1  0.5770640000000  0.4900330000000  0.4722520000000 1.0
C      1  0.4816300000000  0.5516460000000  0.4404800000000 1.0
C      1  0.5670620000000  0.5307340000000  0.5364570000000 1.0
C      1  0.5629810000000  0.4803510000000  0.5312230000000 1.0
C      1  0.4892560000000  0.5780110000000  0.4968380000000 1.0
C      1  0.5564510000000  0.5771600000000  0.4599650000000 1.0
C      1  0.5299950000000  0.4167570000000  0.5033770000000 1.0
C      1  0.4507540000000  0.5431170000000  0.5456280000000 1.0
C      1  0.5022830000000  0.4494680000000  0.5211590000000 1.0
C      1  0.4720290000000  0.4559330000000  0.4681730000000 1.0
C      1  0.5229580000000  0.4930920000000  0.4226270000000 1.0
C      1  0.4781650000000  0.4263530000000  0.4765530000000 1.0
C      1  0.4324820000000  0.4520470000000  0.5040680000000 1.0
C      1  0.5292500000000  0.5385140000000  0.4723630000000 1.0
C      1  0.5026930000000  0.5815650000000  0.5460710000000 1.0
C      1  0.4075520000000  0.4881260000000  0.4813000000000 1.0
C      1  0.5248240000000  0.4638580000000  0.4293720000000 1.0
C      1  0.5647060000000  0.4873780000000  0.4450320000000 1.0
C      1  0.4396650000000  0.5530130000000  0.4805650000000 1.0
C      1  0.5546180000000  0.4771600000000  0.5609330000000 1.0
C      1  0.5224940000000  0.5503730000000  0.4236840000000 1.0
C      1  0.4999770000000  0.4356880000000  0.5501600000000 1.0
C      1  0.5503290000000  0.4249490000000  0.5238850000000 1.0
C      1  0.4975740000000  0.5348520000000  0.4232540000000 1.0
C      1  0.5241300000000  0.4929730000000  0.4803840000000 1.0
C      1  0.4544360000000  0.5066170000000  0.5700020000000 1.0
C      1  0.4155940000000  0.5321400000000  0.5020130000000 1.0
C      1  0.4364700000000  0.4671300000000  0.5284480000000 1.0
C      1  0.4408730000000  0.5402990000000  0.4538080000000 1.0
C      1  0.5458720000000  0.5281780000000  0.4951070000000 1.0
C      1  0.4684740000000  0.4808370000000  0.5690350000000 1.0
C      1  0.4591710000000  0.5889570000000  0.5327720000000 1.0
C      1  0.5511210000000  0.5719640000000  0.5072460000000 1.0
C      1  0.5471090000000  0.5365880000000  0.4318110000000 1.0
C      1  0.5520470000000  0.4599270000000  0.4416770000000 1.0
C      1  0.4346790000000  0.5147860000000  0.5477950000000 1.0
C      1  0.5129430000000  0.5693890000000  0.4769240000000 1.0
C      1  0.4998550000000  0.5327720000000  0.5669180000000 1.0
C      1  0.5923720000000  0.4677180000000  0.4799040000000 1.0
C      1  0.4625490000000  0.5716160000000  0.4866600000000 1.0
C      1  0.4693250000000  0.5334370000000  0.5678290000000 1.0
C      1  0.4629850000000  0.4730670000000  0.4935480000000 1.0
C      1  0.4859160000000  0.5886100000000  0.5247210000000 1.0
C      1  0.4600150000000  0.4193640000000  0.5253450000000 1.0
C      1  0.5156310000000  0.4949760000000  0.5364940000000 1.0
C      1  0.5262550000000  0.4649750000000  0.4822650000000 1.0
C      1  0.4457260000000  0.5243860000000  0.5062030000000 1.0
C      1  0.5440260000000  0.5024640000000  0.5728440000000 1.0
C      1  0.5463490000000  0.5451980000000  0.5182150000000 1.0
C      1  0.5402370000000  0.5818210000000  0.4828370000000 1.0
C      1  0.5731520000000  0.4484820000000  0.4867520000000 1.0
C      1  0.4431940000000  0.5697730000000  0.5428730000000 1.0
C      1  0.4450760000000  0.4620320000000  0.4544950000000 1.0
C      1  0.5451110000000  0.5070200000000  0.4351170000000 1.0
C      1  0.5547540000000  0.5489010000000  0.4570250000000 1.0
C      1  0.5771650000000  0.5064640000000  0.5215230000000 1.0
C      1  0.5049070000000  0.4109070000000  0.5149940000000 1.0
C      1  0.5663100000000  0.4490290000000  0.5155630000000 1.0
C      1  0.5000850000000  0.5075700000000  0.4351000000000 1.0
C      1  0.4090230000000  0.5046610000000  0.4588430000000 1.0
C      1  0.4970980000000  0.4812220000000  0.5782470000000 1.0
C      1  0.5294860000000  0.4606250000000  0.5103760000000 1.0
C      1  0.5027140000000  0.5710560000000  0.4482190000000 1.0
C      1  0.4823120000000  0.5185100000000  0.4813870000000 1.0
C      1  0.4792840000000  0.4163940000000  0.5047240000000 1.0
C      1  0.5377480000000  0.4523140000000  0.5664490000000 1.0
C      1  0.4546370000000  0.5547210000000  0.4340810000000 1.0
C      1  0.5080230000000  0.5137840000000  0.4662820000000 1.0
C      1  0.4555350000000  0.5030720000000  0.4838320000000 1.0
C      1  0.4756150000000  0.4926970000000  0.4322460000000 1.0
C      1  0.5181220000000  0.5438070000000  0.5285220000000 1.0
C      1  0.5024100000000  0.4519050000000  0.4444990000000 1.0
END
