TITL C-951345-2650-726 2.410187861803e-06 125000 -434.793662341094 0 0 71 (C1) n - 1
REM
REM in /home/bkarasulu/work/CARBON/AIRSS/Generating-Clusters/EDIP-Nigel-Params/with-SteepDescent/Only-C1/SD-CG/HFTN-CG
REM
REM
REM
REM
REM
REM ./C.cell (11c1c37f851c82e70ff6c80c92926a4b)
REM
REM compiler GCC version 9.2.1 20190827 (Red Hat 9.2.1-1)
REM options -cpp -mtune=generic -march=x86-64 -g -O0 -fpre-include=/usr/include/finclude/math-vector-fortran.h
REM seed -1619283564 -1698533705 1545731986 -1534671929 974856059 1247538439 -1400776529 -1698304127 -647778632 -1441536861 -1371054791 -607569478 1124430331 -859784732 -1655883920 -1082502290 1644528938 -604513073 -2057351084 626294368 1538853931 135671747 -1975284707 -180163277 886798837 120673331 -345979469 2076260987 1447735560 -1269739911 -1390452737 -1844520414 -1254439891
REM
CELL 1.54180   50.00000   50.00000   50.00000   90.00000   90.00000   90.00000
LATT -1
SFAC C  
C      1  0.5737520000000  0.5044520000000  0.5070380000000 1.0
C      1  0.5348390000000  0.5237440000000  0.4296930000000 1.0
C      1  0.5171720000000  0.4819650000000  0.4941920000000 1.0
C      1  0.5294370000000  0.5008230000000  0.5318890000000 1.0
C      1  0.5063510000000  0.5419430000000  0.5088110000000 1.0
C      1  0.5530620000000  0.5226900000000  0.5527540000000 1.0
C      1  0.5330800000000  0.4553830000000  0.4935520000000 1.0
C      1  0.5249810000000  0.5747210000000  0.5049880000000 1.0
C      1  0.5393070000000  0.4441570000000  0.4657900000000 1.0
C      1  0.4975010000000  0.5040540000000  0.5383970000000 1.0
C      1  0.5792200000000  0.5258960000000  0.4885000000000 1.0
C      1  0.4894280000000  0.4952230000000  0.4874420000000 1.0
C      1  0.5014610000000  0.4574380000000  0.4402770000000 1.0
C      1  0.5369930000000  0.5429080000000  0.5402620000000 1.0
C      1  0.5462030000000  0.5590940000000  0.5177560000000 1.0
C      1  0.5360220000000  0.5039140000000  0.5012260000000 1.0
C      1  0.4852380000000  0.5458020000000  0.4534940000000 1.0
C      1  0.4571350000000  0.5499820000000  0.5114430000000 1.0
C      1  0.5282050000000  0.5755780000000  0.4763670000000 1.0
C      1  0.4203480000000  0.5282450000000  0.4904020000000 1.0
C      1  0.5014730000000  0.4528970000000  0.5553160000000 1.0
C      1  0.4673430000000  0.4406880000000  0.4826810000000 1.0
C      1  0.4891320000000  0.4630470000000  0.5782440000000 1.0
C      1  0.5475090000000  0.4685810000000  0.4500390000000 1.0
C      1  0.4953620000000  0.4335580000000  0.4853720000000 1.0
C      1  0.4241950000000  0.5197110000000  0.5179680000000 1.0
C      1  0.5220080000000  0.5284890000000  0.4855760000000 1.0
C      1  0.5466020000000  0.4789500000000  0.5719800000000 1.0
C      1  0.5132620000000  0.5063240000000  0.4369800000000 1.0
C      1  0.5112160000000  0.4365810000000  0.4598790000000 1.0
C      1  0.4832600000000  0.5598030000000  0.5022760000000 1.0
C      1  0.4508940000000  0.4321220000000  0.5040610000000 1.0
C      1  0.4212000000000  0.4676620000000  0.4959200000000 1.0
C      1  0.4380820000000  0.5512520000000  0.4895600000000 1.0
C      1  0.5003370000000  0.5181280000000  0.4648180000000 1.0
C      1  0.4564530000000  0.5404700000000  0.4425040000000 1.0
C      1  0.4647670000000  0.4690440000000  0.4729560000000 1.0
C      1  0.4240450000000  0.4755910000000  0.5226310000000 1.0
C      1  0.4747150000000  0.4698290000000  0.4448600000000 1.0
C      1  0.4880300000000  0.4388790000000  0.5342020000000 1.0
C      1  0.5591530000000  0.4584020000000  0.5066400000000 1.0
C      1  0.4702480000000  0.4827880000000  0.5768810000000 1.0
C      1  0.5429640000000  0.5075300000000  0.5756610000000 1.0
C      1  0.4502930000000  0.4705260000000  0.5343850000000 1.0
C      1  0.5014400000000  0.5250000000000  0.5600350000000 1.0
C      1  0.4613580000000  0.4454440000000  0.5263680000000 1.0
C      1  0.5435630000000  0.4765810000000  0.5439160000000 1.0
C      1  0.5624590000000  0.5502050000000  0.4931800000000 1.0
C      1  0.5162800000000  0.5146780000000  0.5815550000000 1.0
C      1  0.4099990000000  0.4986750000000  0.5294530000000 1.0
C      1  0.4526380000000  0.5125440000000  0.4477050000000 1.0
C      1  0.5305400000000  0.4502380000000  0.5505320000000 1.0
C      1  0.5600310000000  0.4887390000000  0.4677060000000 1.0
C      1  0.5719500000000  0.4798500000000  0.4928000000000 1.0
C      1  0.4915160000000  0.5072470000000  0.4175030000000 1.0
C      1  0.5227580000000  0.4774450000000  0.4364370000000 1.0
C      1  0.5528130000000  0.5355510000000  0.4474880000000 1.0
C      1  0.5120640000000  0.5495170000000  0.5513360000000 1.0
C      1  0.4309140000000  0.5035130000000  0.4644590000000 1.0
C      1  0.4810160000000  0.5687880000000  0.4742340000000 1.0
C      1  0.4510320000000  0.5255330000000  0.5288190000000 1.0
C      1  0.5411530000000  0.5490020000000  0.4725480000000 1.0
C      1  0.5335730000000  0.4342140000000  0.5234870000000 1.0
C      1  0.4359850000000  0.4769390000000  0.4740340000000 1.0
C      1  0.4513700000000  0.5621530000000  0.4648760000000 1.0
C      1  0.4675370000000  0.4900700000000  0.5502290000000 1.0
C      1  0.5054050000000  0.4279590000000  0.5134990000000 1.0
C      1  0.4858780000000  0.5165930000000  0.5126260000000 1.0
C      1  0.4702750000000  0.4955920000000  0.4322470000000 1.0
C      1  0.4532690000000  0.5134670000000  0.5564150000000 1.0
C      1  0.5709070000000  0.5156000000000  0.4608490000000 1.0
END
