TITL C-950523-3027-135 -1.30220309996365e-06 125000 -886.036325141938 0 0 142 (C1) n - 1
REM
REM in /home/bkarasulu/work/CARBON/AIRSS/Generating-Clusters/EDIP-Nigel-Params/with-SteepDescent/Only-C1/SD-CG/HFTN-CG
REM
REM
REM
REM
REM
REM ./C.cell (11c1c37f851c82e70ff6c80c92926a4b)
REM
REM compiler GCC version 9.2.1 20190827 (Red Hat 9.2.1-1)
REM options -cpp -mtune=generic -march=x86-64 -g -O0 -fpre-include=/usr/include/finclude/math-vector-fortran.h
REM seed 861849275 -2020628684 2046460356 980258599 -2070181154 374218265 1073513749 407004662 -391230299 1228219040 -888965075 -1768812659 -850811935 1986459255 -208652689 2069240018 1370686478 860644572 866726162 988072424 1456957802 -284516247 -1910536882 -522804955 574095400 -1000252367 -1822626185 153924024 -1516163552 541922160 -1509358071 725610843 -1506716768
REM
CELL 1.54180   50.00000   50.00000   50.00000   90.00000   90.00000   90.00000
LATT -1
SFAC C  
C      1  0.5393240000000  0.4712190000000  0.5641640000000 1.0
C      1  0.4995470000000  0.4734910000000  0.5031190000000 1.0
C      1  0.5837030000000  0.4966590000000  0.5460850000000 1.0
C      1  0.5179320000000  0.4270380000000  0.4221080000000 1.0
C      1  0.5151980000000  0.5831180000000  0.5500870000000 1.0
C      1  0.4964740000000  0.5640230000000  0.4275830000000 1.0
C      1  0.4675930000000  0.3907840000000  0.5264050000000 1.0
C      1  0.4121210000000  0.5692370000000  0.4736800000000 1.0
C      1  0.4743240000000  0.4232710000000  0.4464840000000 1.0
C      1  0.4381700000000  0.4980720000000  0.5217120000000 1.0
C      1  0.5002640000000  0.4820610000000  0.5598470000000 1.0
C      1  0.4857260000000  0.4029760000000  0.4656690000000 1.0
C      1  0.4650900000000  0.5842810000000  0.5401020000000 1.0
C      1  0.5519460000000  0.4533220000000  0.4325290000000 1.0
C      1  0.4929300000000  0.4397930000000  0.4307260000000 1.0
C      1  0.5363720000000  0.5863300000000  0.4849990000000 1.0
C      1  0.5819600000000  0.5181360000000  0.4300760000000 1.0
C      1  0.4603100000000  0.4980760000000  0.3981630000000 1.0
C      1  0.4939640000000  0.4791980000000  0.5894690000000 1.0
C      1  0.5371270000000  0.5486790000000  0.5785670000000 1.0
C      1  0.4876630000000  0.5195190000000  0.5364040000000 1.0
C      1  0.5366640000000  0.4445880000000  0.4099680000000 1.0
C      1  0.5219750000000  0.4957840000000  0.4024000000000 1.0
C      1  0.4812190000000  0.4166590000000  0.4930420000000 1.0
C      1  0.4287600000000  0.4466180000000  0.4843880000000 1.0
C      1  0.5626600000000  0.5141120000000  0.4828730000000 1.0
C      1  0.4042540000000  0.4708560000000  0.5485110000000 1.0
C      1  0.5008930000000  0.4094440000000  0.5559880000000 1.0
C      1  0.4904680000000  0.5679000000000  0.5422310000000 1.0
C      1  0.5568660000000  0.4961830000000  0.5655820000000 1.0
C      1  0.5154210000000  0.4889080000000  0.4305580000000 1.0
C      1  0.4111610000000  0.4985560000000  0.5364140000000 1.0
C      1  0.5906300000000  0.4499930000000  0.5346070000000 1.0
C      1  0.4161740000000  0.5707020000000  0.5369460000000 1.0
C      1  0.5540090000000  0.4114860000000  0.4992770000000 1.0
C      1  0.4473680000000  0.4677810000000  0.5779340000000 1.0
C      1  0.5310220000000  0.5755620000000  0.4573380000000 1.0
C      1  0.5261450000000  0.4031160000000  0.4929660000000 1.0
C      1  0.4359840000000  0.5218810000000  0.5709850000000 1.0
C      1  0.5571170000000  0.4841820000000  0.4697080000000 1.0
C      1  0.5477610000000  0.4546150000000  0.5403300000000 1.0
C      1  0.4388450000000  0.4880210000000  0.4909920000000 1.0
C      1  0.5613660000000  0.5028440000000  0.5940090000000 1.0
C      1  0.5704040000000  0.5438130000000  0.4340790000000 1.0
C      1  0.5772810000000  0.5238010000000  0.5376890000000 1.0
C      1  0.5072570000000  0.5866360000000  0.4438750000000 1.0
C      1  0.4161340000000  0.5044800000000  0.4739320000000 1.0
C      1  0.4608800000000  0.5982870000000  0.5165100000000 1.0
C      1  0.5067450000000  0.5135800000000  0.4452740000000 1.0
C      1  0.3906840000000  0.5024970000000  0.5148030000000 1.0
C      1  0.4557030000000  0.5652350000000  0.4515200000000 1.0
C      1  0.4662510000000  0.4766150000000  0.4478320000000 1.0
C      1  0.5213160000000  0.6013550000000  0.5293430000000 1.0
C      1  0.6065540000000  0.4807980000000  0.5005270000000 1.0
C      1  0.5148460000000  0.4274320000000  0.5350690000000 1.0
C      1  0.5164660000000  0.3993530000000  0.4649040000000 1.0
C      1  0.4869480000000  0.5973080000000  0.4607260000000 1.0
C      1  0.4556550000000  0.4973530000000  0.5720560000000 1.0
C      1  0.5719060000000  0.5043120000000  0.4081440000000 1.0
C      1  0.4245030000000  0.4520460000000  0.5122440000000 1.0
C      1  0.4767460000000  0.5042920000000  0.5929950000000 1.0
C      1  0.5042150000000  0.4564140000000  0.5429480000000 1.0
C      1  0.4748350000000  0.5533740000000  0.4968940000000 1.0
C      1  0.5786820000000  0.5705000000000  0.4682910000000 1.0
C      1  0.4734090000000  0.5451430000000  0.4662290000000 1.0
C      1  0.4100750000000  0.5211330000000  0.5567050000000 1.0
C      1  0.5145420000000  0.5879820000000  0.5052770000000 1.0
C      1  0.5003630000000  0.5619710000000  0.5126120000000 1.0
C      1  0.4608810000000  0.5895320000000  0.4681330000000 1.0
C      1  0.5519120000000  0.4174380000000  0.5287310000000 1.0
C      1  0.4453730000000  0.5200830000000  0.4059710000000 1.0
C      1  0.5908870000000  0.4764040000000  0.5256590000000 1.0
C      1  0.4442950000000  0.5267450000000  0.5234150000000 1.0
C      1  0.5590440000000  0.5679540000000  0.4454450000000 1.0
C      1  0.4702550000000  0.5275470000000  0.5118700000000 1.0
C      1  0.4419100000000  0.5691680000000  0.5500840000000 1.0
C      1  0.4705340000000  0.3910880000000  0.4992980000000 1.0
C      1  0.5003900000000  0.5441100000000  0.4525630000000 1.0
C      1  0.5422000000000  0.5215690000000  0.5514400000000 1.0
C      1  0.5032730000000  0.4857120000000  0.3843590000000 1.0
C      1  0.5213230000000  0.5347580000000  0.4816330000000 1.0
C      1  0.5207300000000  0.4844130000000  0.5217390000000 1.0
C      1  0.5201430000000  0.5274600000000  0.5882470000000 1.0
C      1  0.5899770000000  0.5268800000000  0.4892320000000 1.0
C      1  0.4229700000000  0.5396030000000  0.5065550000000 1.0
C      1  0.5486650000000  0.4991070000000  0.3959310000000 1.0
C      1  0.4910280000000  0.5294240000000  0.5848180000000 1.0
C      1  0.4751290000000  0.4496930000000  0.5750240000000 1.0
C      1  0.4502040000000  0.5405270000000  0.5523880000000 1.0
C      1  0.3823270000000  0.4771980000000  0.5052200000000 1.0
C      1  0.4815640000000  0.5407390000000  0.5568810000000 1.0
C      1  0.6025440000000  0.4627290000000  0.4792220000000 1.0
C      1  0.5971350000000  0.5029240000000  0.4505270000000 1.0
C      1  0.5186070000000  0.5386730000000  0.5103140000000 1.0
C      1  0.5567110000000  0.4296680000000  0.4515560000000 1.0
C      1  0.5953890000000  0.5476170000000  0.4690790000000 1.0
C      1  0.4970680000000  0.4259770000000  0.5805860000000 1.0
C      1  0.5404050000000  0.4772780000000  0.4448540000000 1.0
C      1  0.4807510000000  0.4792870000000  0.3997540000000 1.0
C      1  0.4583230000000  0.5205510000000  0.4614270000000 1.0
C      1  0.5324270000000  0.4131940000000  0.4441210000000 1.0
C      1  0.4484580000000  0.4339260000000  0.4539680000000 1.0
C      1  0.4698450000000  0.4385420000000  0.5442660000000 1.0
C      1  0.4647120000000  0.4944940000000  0.4725970000000 1.0
C      1  0.5214780000000  0.4346050000000  0.5907220000000 1.0
C      1  0.4207710000000  0.4669280000000  0.4642390000000 1.0
C      1  0.5740090000000  0.5646890000000  0.5170670000000 1.0
C      1  0.5083890000000  0.4252080000000  0.5031920000000 1.0
C      1  0.5451820000000  0.4608330000000  0.4895530000000 1.0
C      1  0.5476920000000  0.4724170000000  0.5168640000000 1.0
C      1  0.5591860000000  0.5660900000000  0.4905450000000 1.0
C      1  0.5756460000000  0.4282310000000  0.5424390000000 1.0
C      1  0.4574170000000  0.5451370000000  0.4067460000000 1.0
C      1  0.4732160000000  0.4084310000000  0.5471060000000 1.0
C      1  0.5342460000000  0.5057990000000  0.6025650000000 1.0
C      1  0.4271920000000  0.5552160000000  0.4544800000000 1.0
C      1  0.4907360000000  0.4966890000000  0.4878010000000 1.0
C      1  0.5137220000000  0.5071250000000  0.4730400000000 1.0
C      1  0.4761240000000  0.4952170000000  0.5486670000000 1.0
C      1  0.5887130000000  0.5394800000000  0.5168580000000 1.0
C      1  0.5611090000000  0.4352700000000  0.4820350000000 1.0
C      1  0.4302610000000  0.5244280000000  0.4537730000000 1.0
C      1  0.5860710000000  0.4780480000000  0.4613400000000 1.0
C      1  0.5373400000000  0.5651170000000  0.5551310000000 1.0
C      1  0.5204290000000  0.4794510000000  0.6044390000000 1.0
C      1  0.4280020000000  0.4554640000000  0.5587730000000 1.0
C      1  0.5149730000000  0.4524520000000  0.4890690000000 1.0
C      1  0.5187220000000  0.5157270000000  0.5301660000000 1.0
C      1  0.4548120000000  0.5784870000000  0.4964260000000 1.0
C      1  0.4886060000000  0.4701720000000  0.4275650000000 1.0
C      1  0.4272310000000  0.5157690000000  0.4265360000000 1.0
C      1  0.4415700000000  0.4448030000000  0.5353190000000 1.0
C      1  0.5488190000000  0.5390900000000  0.4777350000000 1.0
C      1  0.4249010000000  0.5689420000000  0.4994890000000 1.0
C      1  0.5360210000000  0.4582310000000  0.5908660000000 1.0
C      1  0.4037270000000  0.5468820000000  0.5458380000000 1.0
C      1  0.4671380000000  0.5655720000000  0.4232210000000 1.0
C      1  0.4017320000000  0.5212160000000  0.4944520000000 1.0
C      1  0.5610090000000  0.5705260000000  0.5412430000000 1.0
C      1  0.3973950000000  0.4591100000000  0.5211680000000 1.0
C      1  0.4421700000000  0.4604190000000  0.4446470000000 1.0
C      1  0.6099490000000  0.5059310000000  0.4864730000000 1.0
END
