TITL C-950524-1808-283 0.209641067843498 125000 -98.6333123448012 0 0 19 (C1) n - 1
REM
REM in /home/bkarasulu/work/CARBON/AIRSS/Generating-Clusters/EDIP-Nigel-Params/with-SteepDescent/Only-C1/SD-CG/HFTN-CG
REM
REM
REM
REM
REM
REM ./C.cell (11c1c37f851c82e70ff6c80c92926a4b)
REM
REM compiler GCC version 9.2.1 20190827 (Red Hat 9.2.1-1)
REM options -cpp -mtune=generic -march=x86-64 -g -O0 -fpre-include=/usr/include/finclude/math-vector-fortran.h
REM seed 413532507 743571069 237271293 1321680380 1276172265 -782784050 -509459659 85839518 -816073056 236573829 1212008214 -948631108 2054545006 396072787 -282165043 550500946 -1250019427 -1852777015 -1860197747 715533521 -1467655518 73553918 1499612476 2499108 2114986220 1165463687 2095904926 276097732 -1967869313 -1878384010 -1888521978 631440318 1238483287
REM
CELL 1.54180   50.00000   50.00000   50.00000   90.00000   90.00000   90.00000
LATT -1
SFAC C  
C      1  0.4513890000000  0.4649430000000  0.4629250000000 1.0
C      1  0.4773950000000  0.4612510000000  0.4559680000000 1.0
C      1  0.5474060000000  0.4537170000000  0.4405040000000 1.0
C      1  0.4866910000000  0.5277460000000  0.6113380000000 1.0
C      1  0.5078100000000  0.5885100000000  0.5130930000000 1.0
C      1  0.4952440000000  0.5732580000000  0.5293410000000 1.0
C      1  0.4765630000000  0.4923230000000  0.4982210000000 1.0
C      1  0.5694110000000  0.4458890000000  0.4282300000000 1.0
C      1  0.5024090000000  0.4695380000000  0.4653500000000 1.0
C      1  0.5023340000000  0.4863260000000  0.4881510000000 1.0
C      1  0.5256690000000  0.4618340000000  0.4531510000000 1.0
C      1  0.4836950000000  0.5322790000000  0.5863090000000 1.0
C      1  0.4789760000000  0.5601240000000  0.5467340000000 1.0
C      1  0.4729970000000  0.5082960000000  0.5201760000000 1.0
C      1  0.4855730000000  0.5354420000000  0.5591290000000 1.0
C      1  0.4665000000000  0.5237480000000  0.5416460000000 1.0
C      1  0.4549440000000  0.4810440000000  0.4845220000000 1.0
C      1  0.5905190000000  0.4381020000000  0.4160790000000 1.0
C      1  0.5244770000000  0.4956320000000  0.4991330000000 1.0
END
