TITL C-951335-1172-255 -4.8587473273881e-07 125000 -832.490514977525 0 0 133 (C1) n - 1
REM
REM in /home/bkarasulu/work/CARBON/AIRSS/Generating-Clusters/EDIP-Nigel-Params/with-SteepDescent/Only-C1/SD-CG/HFTN-CG
REM
REM
REM
REM
REM
REM ./C.cell (11c1c37f851c82e70ff6c80c92926a4b)
REM
REM compiler GCC version 9.2.1 20190827 (Red Hat 9.2.1-1)
REM options -cpp -mtune=generic -march=x86-64 -g -O0 -fpre-include=/usr/include/finclude/math-vector-fortran.h
REM seed -2016947828 1198247582 1055573960 259124624 -1235984150 2058121282 1329581716 -1841369651 -193227670 -1291855435 1417745421 456740431 118761329 1378420021 -1655873154 1440681145 -1282214212 -1342340461 1731370441 2081077663 1222535305 46525785 -1955703849 -1012472426 492702758 -64151023 1065853745 -57679570 -1061527901 27605347 -1863397593 -874587620 -1548517021
REM
CELL 1.54180   50.00000   50.00000   50.00000   90.00000   90.00000   90.00000
LATT -1
SFAC C  
C      1  0.5348700000000  0.5048890000000  0.4304320000000 1.0
C      1  0.5030770000000  0.4265320000000  0.5722110000000 1.0
C      1  0.5815750000000  0.4791280000000  0.4456450000000 1.0
C      1  0.4230730000000  0.4503860000000  0.4604380000000 1.0
C      1  0.4752800000000  0.5716190000000  0.5631970000000 1.0
C      1  0.4506040000000  0.5310850000000  0.3978300000000 1.0
C      1  0.4450660000000  0.5382440000000  0.4952430000000 1.0
C      1  0.5238070000000  0.5041260000000  0.5190720000000 1.0
C      1  0.5915340000000  0.5139840000000  0.5024620000000 1.0
C      1  0.4053850000000  0.4632990000000  0.4782900000000 1.0
C      1  0.5269570000000  0.5537290000000  0.4301470000000 1.0
C      1  0.5295290000000  0.4548980000000  0.5150130000000 1.0
C      1  0.4493770000000  0.5513380000000  0.4691440000000 1.0
C      1  0.5212160000000  0.4770090000000  0.5324700000000 1.0
C      1  0.4510160000000  0.4322290000000  0.4954080000000 1.0
C      1  0.5367450000000  0.5737640000000  0.4860130000000 1.0
C      1  0.4474520000000  0.4768230000000  0.5803760000000 1.0
C      1  0.5659730000000  0.5164730000000  0.4856590000000 1.0
C      1  0.5193650000000  0.5261360000000  0.4726970000000 1.0
C      1  0.5707640000000  0.5561190000000  0.5094560000000 1.0
C      1  0.5307450000000  0.4822270000000  0.4494790000000 1.0
C      1  0.5653090000000  0.4533530000000  0.5097620000000 1.0
C      1  0.5658990000000  0.5640790000000  0.4786110000000 1.0
C      1  0.5860480000000  0.4935790000000  0.5227630000000 1.0
C      1  0.4528140000000  0.5434400000000  0.4227290000000 1.0
C      1  0.5662800000000  0.5234660000000  0.5838360000000 1.0
C      1  0.4867300000000  0.4496930000000  0.4520790000000 1.0
C      1  0.5073460000000  0.5065980000000  0.4180670000000 1.0
C      1  0.4673050000000  0.4610890000000  0.4750460000000 1.0
C      1  0.4278150000000  0.4735750000000  0.5592330000000 1.0
C      1  0.4779140000000  0.5541990000000  0.4608020000000 1.0
C      1  0.5660230000000  0.5372350000000  0.4627660000000 1.0
C      1  0.4628480000000  0.4766590000000  0.4253890000000 1.0
C      1  0.5251340000000  0.4067670000000  0.5052510000000 1.0
C      1  0.4404260000000  0.4513690000000  0.5446370000000 1.0
C      1  0.4468330000000  0.4023990000000  0.4262440000000 1.0
C      1  0.4816390000000  0.5060520000000  0.4939200000000 1.0
C      1  0.5637470000000  0.4699990000000  0.4237150000000 1.0
C      1  0.4564240000000  0.4176660000000  0.4481840000000 1.0
C      1  0.3909090000000  0.4856890000000  0.4694370000000 1.0
C      1  0.5256250000000  0.5008170000000  0.4890960000000 1.0
C      1  0.5945570000000  0.5322470000000  0.5472030000000 1.0
C      1  0.5730890000000  0.4967510000000  0.5726020000000 1.0
C      1  0.4553400000000  0.5299270000000  0.5833860000000 1.0
C      1  0.4753150000000  0.4171910000000  0.5048970000000 1.0
C      1  0.5493180000000  0.5574010000000  0.5511700000000 1.0
C      1  0.5359060000000  0.5883940000000  0.5124190000000 1.0
C      1  0.4973720000000  0.5187220000000  0.5204230000000 1.0
C      1  0.5227830000000  0.5599220000000  0.5629190000000 1.0
C      1  0.5639300000000  0.4570340000000  0.4798580000000 1.0
C      1  0.4997970000000  0.5480100000000  0.5139810000000 1.0
C      1  0.4080120000000  0.5157000000000  0.5016140000000 1.0
C      1  0.5533320000000  0.4109320000000  0.4941760000000 1.0
C      1  0.5089880000000  0.4363570000000  0.4698840000000 1.0
C      1  0.4327430000000  0.5433860000000  0.5674160000000 1.0
C      1  0.4865150000000  0.5033360000000  0.4408420000000 1.0
C      1  0.4454240000000  0.5701630000000  0.5555550000000 1.0
C      1  0.5379910000000  0.5313850000000  0.4475170000000 1.0
C      1  0.4347520000000  0.5420390000000  0.4461390000000 1.0
C      1  0.4098660000000  0.5376170000000  0.5210220000000 1.0
C      1  0.4178630000000  0.4971630000000  0.5437650000000 1.0
C      1  0.5245890000000  0.5468200000000  0.4943860000000 1.0
C      1  0.4196730000000  0.4997810000000  0.4308770000000 1.0
C      1  0.4905700000000  0.4512240000000  0.5749790000000 1.0
C      1  0.4606220000000  0.5380420000000  0.5406740000000 1.0
C      1  0.4188620000000  0.5268200000000  0.5466620000000 1.0
C      1  0.5335470000000  0.4309570000000  0.4523690000000 1.0
C      1  0.5282270000000  0.5792770000000  0.4401930000000 1.0
C      1  0.5492310000000  0.5325450000000  0.5075600000000 1.0
C      1  0.4074180000000  0.4910900000000  0.5170690000000 1.0
C      1  0.4367950000000  0.5801770000000  0.5279470000000 1.0
C      1  0.4864330000000  0.5883510000000  0.5021080000000 1.0
C      1  0.5022190000000  0.4735660000000  0.5576610000000 1.0
C      1  0.5376370000000  0.4502890000000  0.4287560000000 1.0
C      1  0.5233770000000  0.4859380000000  0.5757900000000 1.0
C      1  0.5189920000000  0.5261970000000  0.6008790000000 1.0
C      1  0.4920970000000  0.5800580000000  0.4736480000000 1.0
C      1  0.5518080000000  0.4751560000000  0.5718880000000 1.0
C      1  0.4447030000000  0.4907390000000  0.4418190000000 1.0
C      1  0.5018190000000  0.5502420000000  0.4184200000000 1.0
C      1  0.5123080000000  0.4981230000000  0.6005460000000 1.0
C      1  0.4753390000000  0.4657220000000  0.5229980000000 1.0
C      1  0.4899690000000  0.5235620000000  0.4661360000000 1.0
C      1  0.5004790000000  0.4793840000000  0.4530300000000 1.0
C      1  0.4847800000000  0.5200810000000  0.5481000000000 1.0
C      1  0.4136350000000  0.5212700000000  0.4487670000000 1.0
C      1  0.4507460000000  0.5047510000000  0.4959060000000 1.0
C      1  0.5949000000000  0.5396860000000  0.5176780000000 1.0
C      1  0.6050400000000  0.4673300000000  0.4886180000000 1.0
C      1  0.5526470000000  0.4264260000000  0.5427510000000 1.0
C      1  0.5011610000000  0.5708980000000  0.5458850000000 1.0
C      1  0.5470170000000  0.4843830000000  0.4751510000000 1.0
C      1  0.4787150000000  0.5484080000000  0.5814700000000 1.0
C      1  0.5259540000000  0.4265030000000  0.5280620000000 1.0
C      1  0.4441150000000  0.4812200000000  0.4703540000000 1.0
C      1  0.4608380000000  0.5014240000000  0.5902000000000 1.0
C      1  0.4792370000000  0.4291800000000  0.5308910000000 1.0
C      1  0.5079130000000  0.5903440000000  0.5232090000000 1.0
C      1  0.5915070000000  0.4671510000000  0.5133600000000 1.0
C      1  0.4869410000000  0.4733850000000  0.4950590000000 1.0
C      1  0.5913770000000  0.5050410000000  0.4425100000000 1.0
C      1  0.4178900000000  0.4680430000000  0.5035180000000 1.0
C      1  0.5562090000000  0.4507330000000  0.5573140000000 1.0
C      1  0.5724340000000  0.5441930000000  0.5642180000000 1.0
C      1  0.4846740000000  0.4961070000000  0.6032680000000 1.0
C      1  0.5078050000000  0.4582790000000  0.4207760000000 1.0
C      1  0.3987260000000  0.5126120000000  0.4735330000000 1.0
C      1  0.4775250000000  0.5556580000000  0.4310780000000 1.0
C      1  0.5024670000000  0.4210900000000  0.5449450000000 1.0
C      1  0.5561090000000  0.4295070000000  0.4701820000000 1.0
C      1  0.5464260000000  0.5287400000000  0.6025190000000 1.0
C      1  0.5137390000000  0.4588580000000  0.4897700000000 1.0
C      1  0.5691060000000  0.4240650000000  0.5170420000000 1.0
C      1  0.4351810000000  0.4482820000000  0.5160380000000 1.0
C      1  0.5570390000000  0.5748690000000  0.5291580000000 1.0
C      1  0.4620110000000  0.3900310000000  0.4447530000000 1.0
C      1  0.4623330000000  0.5082770000000  0.3896780000000 1.0
C      1  0.4720840000000  0.4835840000000  0.3989800000000 1.0
C      1  0.5062530000000  0.5376330000000  0.5758550000000 1.0
C      1  0.5973910000000  0.4617270000000  0.4624170000000 1.0
C      1  0.4387590000000  0.4279430000000  0.4684650000000 1.0
C      1  0.4762890000000  0.4914170000000  0.5505620000000 1.0
C      1  0.4664210000000  0.5511700000000  0.5136540000000 1.0
C      1  0.4619620000000  0.4515690000000  0.5767230000000 1.0
C      1  0.5198020000000  0.5860740000000  0.4656070000000 1.0
C      1  0.5016100000000  0.4817750000000  0.4025460000000 1.0
C      1  0.4589570000000  0.5893670000000  0.5116990000000 1.0
C      1  0.4202280000000  0.5623990000000  0.5121780000000 1.0
C      1  0.5551920000000  0.4946070000000  0.4118180000000 1.0
C      1  0.4509470000000  0.4881210000000  0.5247480000000 1.0
C      1  0.5886430000000  0.5316190000000  0.4459500000000 1.0
C      1  0.5924360000000  0.5022040000000  0.5499830000000 1.0
C      1  0.5007390000000  0.4124700000000  0.4876250000000 1.0
END
