TITL C-951348-1603-60 -5.68195359179199e-07 125000 -489.367318249027 0 0 79 (C1) n - 1
REM
REM in /home/bkarasulu/work/CARBON/AIRSS/Generating-Clusters/EDIP-Nigel-Params/with-SteepDescent/Only-C1/SD-CG/HFTN-CG
REM
REM
REM
REM
REM
REM ./C.cell (11c1c37f851c82e70ff6c80c92926a4b)
REM
REM compiler GCC version 9.2.1 20190827 (Red Hat 9.2.1-1)
REM options -cpp -mtune=generic -march=x86-64 -g -O0 -fpre-include=/usr/include/finclude/math-vector-fortran.h
REM seed -1509883474 1913328204 421183471 1841275174 1705348688 490942143 -32983382 1788074222 -842727927 -1089362624 751269607 -1005920829 1577807942 797480686 1953564114 138407910 1225584321 -2132269503 -1689321185 -631401971 -829512542 468685948 -1646596086 1857223193 1351672182 -162178146 1623207660 -482863862 -1851964087 -1658545670 -209851894 365494334 -1797042549
REM
CELL 1.54180   50.00000   50.00000   50.00000   90.00000   90.00000   90.00000
LATT -1
SFAC C  
C      1  0.5288160000000  0.5225550000000  0.4897130000000 1.0
C      1  0.4641130000000  0.5429340000000  0.5472660000000 1.0
C      1  0.4550620000000  0.4799000000000  0.4388490000000 1.0
C      1  0.5130460000000  0.5262780000000  0.5174410000000 1.0
C      1  0.5150750000000  0.4743360000000  0.4906270000000 1.0
C      1  0.5288400000000  0.4298640000000  0.5011500000000 1.0
C      1  0.5011910000000  0.4598420000000  0.4344930000000 1.0
C      1  0.5493150000000  0.4510070000000  0.4630450000000 1.0
C      1  0.4482480000000  0.4639150000000  0.4625310000000 1.0
C      1  0.5043120000000  0.5701890000000  0.4977540000000 1.0
C      1  0.4332150000000  0.4818000000000  0.4841940000000 1.0
C      1  0.4835910000000  0.5471040000000  0.4970320000000 1.0
C      1  0.4704280000000  0.4921940000000  0.4895300000000 1.0
C      1  0.4905870000000  0.5049030000000  0.4165020000000 1.0
C      1  0.4830590000000  0.4826250000000  0.4319980000000 1.0
C      1  0.4695460000000  0.5047320000000  0.5774100000000 1.0
C      1  0.5332050000000  0.5078420000000  0.5697120000000 1.0
C      1  0.4975860000000  0.5311580000000  0.4183860000000 1.0
C      1  0.4820120000000  0.5354720000000  0.4697150000000 1.0
C      1  0.4752390000000  0.5102350000000  0.5145340000000 1.0
C      1  0.5449470000000  0.4860050000000  0.4360870000000 1.0
C      1  0.4920190000000  0.4908680000000  0.5324290000000 1.0
C      1  0.4409320000000  0.5039540000000  0.4364970000000 1.0
C      1  0.5222510000000  0.5474060000000  0.5370910000000 1.0
C      1  0.4618850000000  0.4559900000000  0.5482630000000 1.0
C      1  0.4708140000000  0.4622980000000  0.4999140000000 1.0
C      1  0.5514910000000  0.5043160000000  0.5456390000000 1.0
C      1  0.4961980000000  0.4905710000000  0.4735470000000 1.0
C      1  0.4332470000000  0.5310180000000  0.5069480000000 1.0
C      1  0.5518110000000  0.4560130000000  0.5400150000000 1.0
C      1  0.5277760000000  0.4989560000000  0.5265910000000 1.0
C      1  0.4974420000000  0.4660660000000  0.5156880000000 1.0
C      1  0.4780790000000  0.4201500000000  0.5114310000000 1.0
C      1  0.4422630000000  0.5234490000000  0.4564250000000 1.0
C      1  0.5539020000000  0.4429710000000  0.5129250000000 1.0
C      1  0.5157430000000  0.4821730000000  0.5689880000000 1.0
C      1  0.5276240000000  0.4659210000000  0.4272780000000 1.0
C      1  0.4420610000000  0.5014050000000  0.5739200000000 1.0
C      1  0.5373180000000  0.4930560000000  0.4984490000000 1.0
C      1  0.4457770000000  0.4760730000000  0.5338630000000 1.0
C      1  0.4291450000000  0.4675470000000  0.5108390000000 1.0
C      1  0.5262980000000  0.5545820000000  0.4528250000000 1.0
C      1  0.5517610000000  0.5533460000000  0.4979860000000 1.0
C      1  0.5700070000000  0.5310800000000  0.4589210000000 1.0
C      1  0.5669630000000  0.5279780000000  0.5345070000000 1.0
C      1  0.4508690000000  0.5220200000000  0.5294880000000 1.0
C      1  0.4339100000000  0.5585070000000  0.5036300000000 1.0
C      1  0.5207950000000  0.5352000000000  0.5657870000000 1.0
C      1  0.5780760000000  0.5160210000000  0.5091700000000 1.0
C      1  0.5465970000000  0.5350760000000  0.4438630000000 1.0
C      1  0.4770270000000  0.5325770000000  0.5715240000000 1.0
C      1  0.4389790000000  0.4408060000000  0.5082930000000 1.0
C      1  0.4332780000000  0.5135200000000  0.4826840000000 1.0
C      1  0.4608610000000  0.5658910000000  0.5063470000000 1.0
C      1  0.4993110000000  0.4434320000000  0.4589950000000 1.0
C      1  0.5291570000000  0.5652390000000  0.4814160000000 1.0
C      1  0.5593420000000  0.4770390000000  0.4592300000000 1.0
C      1  0.5689310000000  0.4799760000000  0.5406960000000 1.0
C      1  0.4690880000000  0.4160250000000  0.4845110000000 1.0
C      1  0.5503380000000  0.5515130000000  0.5279390000000 1.0
C      1  0.5061720000000  0.4407610000000  0.5437780000000 1.0
C      1  0.5077880000000  0.5169030000000  0.4664380000000 1.0
C      1  0.4573070000000  0.4328130000000  0.5293710000000 1.0
C      1  0.4725170000000  0.4433280000000  0.4738270000000 1.0
C      1  0.5062770000000  0.4236500000000  0.5206500000000 1.0
C      1  0.5248320000000  0.4612180000000  0.5498590000000 1.0
C      1  0.4380430000000  0.5007990000000  0.5462030000000 1.0
C      1  0.4520970000000  0.5499610000000  0.4495570000000 1.0
C      1  0.5709830000000  0.5342190000000  0.4865390000000 1.0
C      1  0.5683880000000  0.4627080000000  0.4941970000000 1.0
C      1  0.5233670000000  0.4479960000000  0.4770590000000 1.0
C      1  0.5042350000000  0.5710820000000  0.5288040000000 1.0
C      1  0.5317180000000  0.5114370000000  0.4374180000000 1.0
C      1  0.4767590000000  0.5647310000000  0.4460210000000 1.0
C      1  0.5015060000000  0.5536430000000  0.4353610000000 1.0
C      1  0.5003520000000  0.5429810000000  0.5832580000000 1.0
C      1  0.5786280000000  0.4853210000000  0.5126010000000 1.0
C      1  0.4849190000000  0.4832940000000  0.5621720000000 1.0
C      1  0.4733130000000  0.5682370000000  0.5343620000000 1.0
END
