TITL C-951347-9520-473 2.25580955825614e-06 125000 -682.181514488997 0 0 110 (C1) n - 1
REM
REM in /home/bkarasulu/work/CARBON/AIRSS/Generating-Clusters/EDIP-Nigel-Params/with-SteepDescent/Only-C1/SD-CG/HFTN-CG
REM
REM
REM
REM
REM
REM ./C.cell (11c1c37f851c82e70ff6c80c92926a4b)
REM
REM compiler GCC version 9.2.1 20190827 (Red Hat 9.2.1-1)
REM options -cpp -mtune=generic -march=x86-64 -g -O0 -fpre-include=/usr/include/finclude/math-vector-fortran.h
REM seed 1367215689 1057428227 914422323 -1596628786 1660348749 2028537740 1273853021 -115539069 2069948152 -2079183221 -1747664044 330835491 -1514384321 -57569121 234721594 -1144583886 2104788065 704492160 -814683844 -887750938 377426922 963870447 1849504911 -1154042551 1880778656 -1826610718 791784088 -554292869 -354341273 1783584066 -1251531414 -593930890 -1990256177
REM
CELL 1.54180   50.00000   50.00000   50.00000   90.00000   90.00000   90.00000
LATT -1
SFAC C  
C      1  0.4491860000000  0.4742480000000  0.4120400000000 1.0
C      1  0.4313150000000  0.4568940000000  0.5079300000000 1.0
C      1  0.4976870000000  0.5457330000000  0.5788850000000 1.0
C      1  0.4809130000000  0.5353840000000  0.4920050000000 1.0
C      1  0.4879920000000  0.4622050000000  0.5747940000000 1.0
C      1  0.4974020000000  0.5182870000000  0.5299750000000 1.0
C      1  0.5413980000000  0.5388750000000  0.5151770000000 1.0
C      1  0.4299160000000  0.5112830000000  0.5376300000000 1.0
C      1  0.5103740000000  0.5267870000000  0.5948830000000 1.0
C      1  0.5123210000000  0.4235640000000  0.5095990000000 1.0
C      1  0.4644330000000  0.5065620000000  0.5764990000000 1.0
C      1  0.4056530000000  0.4949420000000  0.4487690000000 1.0
C      1  0.5958300000000  0.5411930000000  0.5361060000000 1.0
C      1  0.5495280000000  0.5373140000000  0.5662640000000 1.0
C      1  0.4808980000000  0.4248910000000  0.5085950000000 1.0
C      1  0.5537510000000  0.5559720000000  0.4849010000000 1.0
C      1  0.4281730000000  0.5300600000000  0.4894760000000 1.0
C      1  0.5859180000000  0.5157190000000  0.4991710000000 1.0
C      1  0.4702410000000  0.4396860000000  0.4847040000000 1.0
C      1  0.4402580000000  0.4417500000000  0.4847680000000 1.0
C      1  0.5579040000000  0.5428660000000  0.4554720000000 1.0
C      1  0.5351080000000  0.5807070000000  0.4825070000000 1.0
C      1  0.5184710000000  0.4606240000000  0.5811210000000 1.0
C      1  0.4684850000000  0.4915940000000  0.5036540000000 1.0
C      1  0.5926320000000  0.5418840000000  0.5083240000000 1.0
C      1  0.4566800000000  0.5505020000000  0.5522070000000 1.0
C      1  0.5830420000000  0.4963790000000  0.5206500000000 1.0
C      1  0.5697530000000  0.4889280000000  0.4388050000000 1.0
C      1  0.5722200000000  0.4691040000000  0.5131670000000 1.0
C      1  0.4704930000000  0.5362170000000  0.5729310000000 1.0
C      1  0.4503380000000  0.4568260000000  0.5314580000000 1.0
C      1  0.4696650000000  0.5621470000000  0.4926330000000 1.0
C      1  0.4201190000000  0.4823340000000  0.4961350000000 1.0
C      1  0.4745630000000  0.5718610000000  0.4639730000000 1.0
C      1  0.5131400000000  0.5612470000000  0.5577590000000 1.0
C      1  0.5602380000000  0.4866720000000  0.5765660000000 1.0
C      1  0.5331250000000  0.4995680000000  0.4825480000000 1.0
C      1  0.5409150000000  0.5062100000000  0.5134750000000 1.0
C      1  0.4408920000000  0.4760540000000  0.5825570000000 1.0
C      1  0.5133780000000  0.4546720000000  0.5048300000000 1.0
C      1  0.4199180000000  0.5093360000000  0.4292120000000 1.0
C      1  0.4490330000000  0.5333260000000  0.5287470000000 1.0
C      1  0.4667930000000  0.5762360000000  0.5489430000000 1.0
C      1  0.5292660000000  0.4625240000000  0.5514650000000 1.0
C      1  0.5222850000000  0.4175770000000  0.5380200000000 1.0
C      1  0.5150020000000  0.5048390000000  0.5764290000000 1.0
C      1  0.4775680000000  0.4237300000000  0.4610360000000 1.0
C      1  0.5260360000000  0.4849490000000  0.4146100000000 1.0
C      1  0.5009430000000  0.4685970000000  0.4092860000000 1.0
C      1  0.4499570000000  0.4621230000000  0.4402930000000 1.0
C      1  0.5163330000000  0.5121530000000  0.4210420000000 1.0
C      1  0.5170400000000  0.4343320000000  0.4436810000000 1.0
C      1  0.5046530000000  0.4152140000000  0.4601420000000 1.0
C      1  0.3853790000000  0.4933220000000  0.5303780000000 1.0
C      1  0.4856600000000  0.5079940000000  0.4246770000000 1.0
C      1  0.5478730000000  0.5539890000000  0.5427680000000 1.0
C      1  0.5260930000000  0.5793930000000  0.4342500000000 1.0
C      1  0.4024490000000  0.5257870000000  0.5011270000000 1.0
C      1  0.4642080000000  0.4634180000000  0.5917040000000 1.0
C      1  0.5433150000000  0.4374290000000  0.5435360000000 1.0
C      1  0.4417710000000  0.5517840000000  0.5045690000000 1.0
C      1  0.5493060000000  0.4862100000000  0.5469410000000 1.0
C      1  0.4427310000000  0.5008720000000  0.4869890000000 1.0
C      1  0.5065680000000  0.4689350000000  0.5303540000000 1.0
C      1  0.4431820000000  0.5222350000000  0.4423890000000 1.0
C      1  0.5334020000000  0.5143960000000  0.5547660000000 1.0
C      1  0.4375340000000  0.4989560000000  0.5637550000000 1.0
C      1  0.5474540000000  0.4282310000000  0.4963930000000 1.0
C      1  0.4974690000000  0.5701040000000  0.5144250000000 1.0
C      1  0.4966110000000  0.4488400000000  0.4298250000000 1.0
C      1  0.4935590000000  0.5789190000000  0.5423160000000 1.0
C      1  0.4718230000000  0.4778150000000  0.5314000000000 1.0
C      1  0.5797280000000  0.5246020000000  0.4498870000000 1.0
C      1  0.5184400000000  0.4725390000000  0.4769380000000 1.0
C      1  0.4277180000000  0.4535750000000  0.4599970000000 1.0
C      1  0.5458530000000  0.4733860000000  0.4339330000000 1.0
C      1  0.5135610000000  0.5543070000000  0.4341190000000 1.0
C      1  0.4808070000000  0.5006670000000  0.4541860000000 1.0
C      1  0.4670450000000  0.5334450000000  0.4269810000000 1.0
C      1  0.5312990000000  0.5315110000000  0.4422630000000 1.0
C      1  0.5838000000000  0.4826130000000  0.4633410000000 1.0
C      1  0.5038940000000  0.4162160000000  0.5591630000000 1.0
C      1  0.5589240000000  0.4422990000000  0.5192980000000 1.0
C      1  0.5115020000000  0.5434360000000  0.5229100000000 1.0
C      1  0.4762510000000  0.4860690000000  0.4048470000000 1.0
C      1  0.5330040000000  0.4845810000000  0.5900990000000 1.0
C      1  0.4736780000000  0.5194710000000  0.5146280000000 1.0
C      1  0.5917770000000  0.5091630000000  0.4715830000000 1.0
C      1  0.4838990000000  0.4691640000000  0.4839130000000 1.0
C      1  0.5563250000000  0.4430790000000  0.4732360000000 1.0
C      1  0.4086250000000  0.4750460000000  0.4684710000000 1.0
C      1  0.5348140000000  0.4548640000000  0.4558410000000 1.0
C      1  0.5800570000000  0.5632070000000  0.4950170000000 1.0
C      1  0.4860260000000  0.5488720000000  0.4467290000000 1.0
C      1  0.5879250000000  0.5150100000000  0.5436990000000 1.0
C      1  0.4917890000000  0.5257410000000  0.4669310000000 1.0
C      1  0.5713660000000  0.5150210000000  0.5689060000000 1.0
C      1  0.4078770000000  0.5027140000000  0.5181010000000 1.0
C      1  0.5182130000000  0.5860190000000  0.5035370000000 1.0
C      1  0.4706740000000  0.4403300000000  0.4379660000000 1.0
C      1  0.4868460000000  0.4379910000000  0.5554230000000 1.0
C      1  0.5713130000000  0.4657600000000  0.4837040000000 1.0
C      1  0.4517310000000  0.4970880000000  0.4573830000000 1.0
C      1  0.5129440000000  0.4961750000000  0.5212260000000 1.0
C      1  0.5198510000000  0.5901320000000  0.4591950000000 1.0
C      1  0.5209110000000  0.5230760000000  0.4691300000000 1.0
C      1  0.4921450000000  0.5937430000000  0.4634280000000 1.0
C      1  0.4679590000000  0.4336710000000  0.5338270000000 1.0
C      1  0.4872860000000  0.4912650000000  0.5633720000000 1.0
C      1  0.4285840000000  0.4928380000000  0.4083770000000 1.0
END
