TITL C-950532-2784-205 -1.03729602484602e-06 125000 -917.938814724835 0 0 147 (C1) n - 1
REM
REM in /home/bkarasulu/work/CARBON/AIRSS/Generating-Clusters/EDIP-Nigel-Params/with-SteepDescent/Only-C1/SD-CG/HFTN-CG
REM
REM
REM
REM
REM
REM ./C.cell (11c1c37f851c82e70ff6c80c92926a4b)
REM
REM compiler GCC version 9.2.1 20190827 (Red Hat 9.2.1-1)
REM options -cpp -mtune=generic -march=x86-64 -g -O0 -fpre-include=/usr/include/finclude/math-vector-fortran.h
REM seed -622993962 1580514987 -699535939 -100913355 -1589120487 -1002816492 -1243386024 85393123 779563624 2145601531 1053905665 -1910798811 1718750330 350687563 -1107163871 326990472 646429319 1363899994 -180362110 -1438397491 730842995 -1844161120 -193384424 1082727445 -1045207279 697695999 788435128 -2017489067 448199991 1267511843 25758809 -761731180 1052884947
REM
CELL 1.54180   50.00000   50.00000   50.00000   90.00000   90.00000   90.00000
LATT -1
SFAC C  
C      1  0.5179940000000  0.4571590000000  0.4951950000000 1.0
C      1  0.4560970000000  0.4868860000000  0.5997490000000 1.0
C      1  0.5396080000000  0.4229260000000  0.5620380000000 1.0
C      1  0.5362350000000  0.5870960000000  0.4871130000000 1.0
C      1  0.5402570000000  0.5298710000000  0.5544440000000 1.0
C      1  0.4779010000000  0.4216690000000  0.4816700000000 1.0
C      1  0.5551030000000  0.4253950000000  0.4469200000000 1.0
C      1  0.5333900000000  0.5322080000000  0.5978350000000 1.0
C      1  0.5591780000000  0.5065480000000  0.5596520000000 1.0
C      1  0.4559520000000  0.5675800000000  0.5326130000000 1.0
C      1  0.4431040000000  0.4779350000000  0.5559230000000 1.0
C      1  0.4716680000000  0.5917960000000  0.5321060000000 1.0
C      1  0.4661780000000  0.5379720000000  0.5091030000000 1.0
C      1  0.4957270000000  0.5710010000000  0.5767890000000 1.0
C      1  0.5602690000000  0.4450150000000  0.5645410000000 1.0
C      1  0.5055110000000  0.4940770000000  0.6016770000000 1.0
C      1  0.4839400000000  0.5172750000000  0.4939770000000 1.0
C      1  0.5123180000000  0.5391700000000  0.4583400000000 1.0
C      1  0.5315330000000  0.5199130000000  0.5057690000000 1.0
C      1  0.5654900000000  0.5788020000000  0.5483950000000 1.0
C      1  0.5469580000000  0.5538750000000  0.5840780000000 1.0
C      1  0.4872280000000  0.5073360000000  0.5623010000000 1.0
C      1  0.5286060000000  0.4082710000000  0.4885810000000 1.0
C      1  0.4384000000000  0.5241360000000  0.5700090000000 1.0
C      1  0.5097510000000  0.5321340000000  0.4877650000000 1.0
C      1  0.6191750000000  0.5189580000000  0.4814340000000 1.0
C      1  0.5287370000000  0.5590900000000  0.4183610000000 1.0
C      1  0.4615530000000  0.5462090000000  0.4611080000000 1.0
C      1  0.6111750000000  0.4921850000000  0.4878300000000 1.0
C      1  0.5222760000000  0.4682670000000  0.5620520000000 1.0
C      1  0.4688960000000  0.6078100000000  0.5077780000000 1.0
C      1  0.4911880000000  0.4691720000000  0.5038970000000 1.0
C      1  0.4556480000000  0.4524290000000  0.5664810000000 1.0
C      1  0.5339540000000  0.4844020000000  0.6063780000000 1.0
C      1  0.4025490000000  0.5000660000000  0.5037480000000 1.0
C      1  0.5715190000000  0.4265710000000  0.4716480000000 1.0
C      1  0.5547090000000  0.5508310000000  0.4137960000000 1.0
C      1  0.5751830000000  0.5001330000000  0.5358710000000 1.0
C      1  0.4688220000000  0.4974550000000  0.4710260000000 1.0
C      1  0.5275470000000  0.4140500000000  0.4498930000000 1.0
C      1  0.5472620000000  0.4700420000000  0.5800970000000 1.0
C      1  0.4392630000000  0.4177400000000  0.5238530000000 1.0
C      1  0.3962700000000  0.4908120000000  0.5481140000000 1.0
C      1  0.4666800000000  0.4333650000000  0.5455310000000 1.0
C      1  0.3997980000000  0.5089470000000  0.4554710000000 1.0
C      1  0.5670550000000  0.5060090000000  0.4252720000000 1.0
C      1  0.4095420000000  0.4814510000000  0.4567700000000 1.0
C      1  0.4368000000000  0.4957110000000  0.5787110000000 1.0
C      1  0.4966070000000  0.4811650000000  0.5763890000000 1.0
C      1  0.5082290000000  0.5407710000000  0.4069270000000 1.0
C      1  0.4008450000000  0.5128700000000  0.5318040000000 1.0
C      1  0.3904230000000  0.5183380000000  0.4827130000000 1.0
C      1  0.4331230000000  0.5761660000000  0.4772740000000 1.0
C      1  0.4393930000000  0.5008840000000  0.4725230000000 1.0
C      1  0.5875760000000  0.4511990000000  0.4726720000000 1.0
C      1  0.5056210000000  0.5885940000000  0.4530620000000 1.0
C      1  0.3975230000000  0.5448600000000  0.4891930000000 1.0
C      1  0.5069940000000  0.4900880000000  0.4380180000000 1.0
C      1  0.5577010000000  0.4830410000000  0.5190610000000 1.0
C      1  0.4189960000000  0.4158230000000  0.5025870000000 1.0
C      1  0.5679150000000  0.5782970000000  0.5203280000000 1.0
C      1  0.4755990000000  0.5555940000000  0.5851500000000 1.0
C      1  0.4328230000000  0.5411180000000  0.4260230000000 1.0
C      1  0.4797670000000  0.5043130000000  0.4428360000000 1.0
C      1  0.4743930000000  0.4696680000000  0.4802530000000 1.0
C      1  0.4798280000000  0.5463670000000  0.4178740000000 1.0
C      1  0.5419090000000  0.5723730000000  0.5628840000000 1.0
C      1  0.4729710000000  0.4648410000000  0.5869430000000 1.0
C      1  0.4844680000000  0.4500620000000  0.5270410000000 1.0
C      1  0.5145340000000  0.5101830000000  0.4051570000000 1.0
C      1  0.4226370000000  0.5240910000000  0.4466260000000 1.0
C      1  0.5692050000000  0.5013620000000  0.5855820000000 1.0
C      1  0.4366760000000  0.4405030000000  0.4626670000000 1.0
C      1  0.5323730000000  0.5172750000000  0.4499830000000 1.0
C      1  0.5138550000000  0.4439520000000  0.5330050000000 1.0
C      1  0.5155490000000  0.5034770000000  0.5258860000000 1.0
C      1  0.5635360000000  0.5496910000000  0.4784200000000 1.0
C      1  0.5084060000000  0.4311640000000  0.4787270000000 1.0
C      1  0.4318900000000  0.5026520000000  0.5003800000000 1.0
C      1  0.5095750000000  0.5955910000000  0.4811220000000 1.0
C      1  0.4885100000000  0.4934500000000  0.3990000000000 1.0
C      1  0.4677120000000  0.5744570000000  0.4243250000000 1.0
C      1  0.4211980000000  0.4627380000000  0.5161600000000 1.0
C      1  0.4914570000000  0.4646210000000  0.4053180000000 1.0
C      1  0.4666070000000  0.5585470000000  0.4865310000000 1.0
C      1  0.4436630000000  0.4448770000000  0.5113510000000 1.0
C      1  0.5769450000000  0.5269650000000  0.5226920000000 1.0
C      1  0.6005470000000  0.4857800000000  0.5408510000000 1.0
C      1  0.4552820000000  0.4182600000000  0.4500620000000 1.0
C      1  0.4636090000000  0.5000600000000  0.4167650000000 1.0
C      1  0.5391920000000  0.4657000000000  0.4197390000000 1.0
C      1  0.5482120000000  0.5389810000000  0.5243470000000 1.0
C      1  0.4884530000000  0.4136570000000  0.5530690000000 1.0
C      1  0.5137030000000  0.5804310000000  0.5581050000000 1.0
C      1  0.4185860000000  0.5607800000000  0.4985540000000 1.0
C      1  0.4551790000000  0.5289420000000  0.4094360000000 1.0
C      1  0.4707090000000  0.5115950000000  0.6070180000000 1.0
C      1  0.4294920000000  0.5572050000000  0.5263910000000 1.0
C      1  0.5841730000000  0.4920340000000  0.4441370000000 1.0
C      1  0.4262920000000  0.5293980000000  0.5400340000000 1.0
C      1  0.5008770000000  0.5931770000000  0.5353230000000 1.0
C      1  0.5239360000000  0.5655730000000  0.4477610000000 1.0
C      1  0.5598370000000  0.4510420000000  0.4337980000000 1.0
C      1  0.4764310000000  0.4039050000000  0.5046010000000 1.0
C      1  0.4453970000000  0.5634560000000  0.4423800000000 1.0
C      1  0.4973160000000  0.6116780000000  0.5019420000000 1.0
C      1  0.4841660000000  0.5343010000000  0.4456790000000 1.0
C      1  0.5118020000000  0.5195140000000  0.5497350000000 1.0
C      1  0.5339550000000  0.4774870000000  0.4796650000000 1.0
C      1  0.4540510000000  0.5950470000000  0.4862880000000 1.0
C      1  0.4835950000000  0.5928470000000  0.4372550000000 1.0
C      1  0.5475620000000  0.5708170000000  0.4659300000000 1.0
C      1  0.5049770000000  0.5240670000000  0.5931510000000 1.0
C      1  0.4579310000000  0.4458930000000  0.4844410000000 1.0
C      1  0.5302550000000  0.4780230000000  0.5317000000000 1.0
C      1  0.5553700000000  0.4206590000000  0.4942030000000 1.0
C      1  0.5216960000000  0.4033780000000  0.5176530000000 1.0
C      1  0.4009290000000  0.4622000000000  0.4956940000000 1.0
C      1  0.5112240000000  0.4262490000000  0.5672980000000 1.0
C      1  0.4173900000000  0.4731780000000  0.5424810000000 1.0
C      1  0.5959750000000  0.4620760000000  0.5255640000000 1.0
C      1  0.4618100000000  0.5316670000000  0.5869780000000 1.0
C      1  0.5802940000000  0.5577980000000  0.5021740000000 1.0
C      1  0.4321130000000  0.4661920000000  0.4470320000000 1.0
C      1  0.5418290000000  0.4945040000000  0.4140940000000 1.0
C      1  0.6024310000000  0.5063800000000  0.4618780000000 1.0
C      1  0.5179020000000  0.4949300000000  0.4646210000000 1.0
C      1  0.5063190000000  0.4292520000000  0.4347420000000 1.0
C      1  0.5611930000000  0.5218450000000  0.4658230000000 1.0
C      1  0.4944180000000  0.4005240000000  0.5264140000000 1.0
C      1  0.5979450000000  0.4670430000000  0.4958120000000 1.0
C      1  0.4472380000000  0.5165780000000  0.5220510000000 1.0
C      1  0.5817440000000  0.4640000000000  0.4472070000000 1.0
C      1  0.5503400000000  0.5088200000000  0.6062140000000 1.0
C      1  0.5734600000000  0.4456700000000  0.5366220000000 1.0
C      1  0.5142200000000  0.4519000000000  0.4179480000000 1.0
C      1  0.5430570000000  0.4107670000000  0.5358370000000 1.0
C      1  0.4893310000000  0.4965110000000  0.5154130000000 1.0
C      1  0.5514200000000  0.4984030000000  0.4931250000000 1.0
C      1  0.4475150000000  0.4731280000000  0.4228240000000 1.0
C      1  0.4676580000000  0.4525730000000  0.4167010000000 1.0
C      1  0.4762180000000  0.4305970000000  0.4344180000000 1.0
C      1  0.4116140000000  0.4361430000000  0.4820570000000 1.0
C      1  0.5410060000000  0.5749310000000  0.5123340000000 1.0
C      1  0.5653350000000  0.4218450000000  0.5215910000000 1.0
C      1  0.5681960000000  0.5336450000000  0.4303690000000 1.0
C      1  0.4662630000000  0.4971860000000  0.5384830000000 1.0
END
