TITL C-950526-5686-614 -1.46158179084495e-06 125000 -544.942767116496 0 0 86 (C1) n - 1
REM
REM in /home/bkarasulu/work/CARBON/AIRSS/Generating-Clusters/EDIP-Nigel-Params/with-SteepDescent/Only-C1/SD-CG/HFTN-CG
REM
REM
REM
REM
REM
REM ./C.cell (11c1c37f851c82e70ff6c80c92926a4b)
REM
REM compiler GCC version 9.2.1 20190827 (Red Hat 9.2.1-1)
REM options -cpp -mtune=generic -march=x86-64 -g -O0 -fpre-include=/usr/include/finclude/math-vector-fortran.h
REM seed 1346630658 -1875794523 -592090389 411509242 1514628796 1425589316 1623932343 1641286822 -1999690940 -1966821602 -390011467 -481855158 2057286400 910986544 -2023548592 61099400 1829447962 -527738571 372435757 1836959737 -206312479 -1593344965 458012192 1769040167 322623847 -1120222837 1310239271 -2084020796 -81468353 -433980325 164900757 1553688435 1705715044
REM
CELL 1.54180   50.00000   50.00000   50.00000   90.00000   90.00000   90.00000
LATT -1
SFAC C  
C      1  0.4660420000000  0.4598140000000  0.5618700000000 1.0
C      1  0.4235870000000  0.5025850000000  0.5389500000000 1.0
C      1  0.5505660000000  0.4658620000000  0.5613790000000 1.0
C      1  0.4163260000000  0.4730390000000  0.5066410000000 1.0
C      1  0.5281720000000  0.5676590000000  0.5380880000000 1.0
C      1  0.4281800000000  0.4736160000000  0.5330950000000 1.0
C      1  0.4578460000000  0.4219150000000  0.4836920000000 1.0
C      1  0.5273880000000  0.4716320000000  0.4812910000000 1.0
C      1  0.4505560000000  0.5140140000000  0.5460540000000 1.0
C      1  0.4917140000000  0.5777800000000  0.5086400000000 1.0
C      1  0.5687280000000  0.4593720000000  0.5412180000000 1.0
C      1  0.5049840000000  0.5278420000000  0.5434000000000 1.0
C      1  0.5278120000000  0.5344550000000  0.5732310000000 1.0
C      1  0.4360570000000  0.4794860000000  0.4465970000000 1.0
C      1  0.4997430000000  0.5715590000000  0.5364640000000 1.0
C      1  0.5289250000000  0.5643460000000  0.4532130000000 1.0
C      1  0.4690430000000  0.4962580000000  0.5302530000000 1.0
C      1  0.4950810000000  0.4937020000000  0.4072140000000 1.0
C      1  0.5490030000000  0.5552560000000  0.4953790000000 1.0
C      1  0.5024970000000  0.4933680000000  0.5797300000000 1.0
C      1  0.5545600000000  0.5470940000000  0.4491260000000 1.0
C      1  0.4890530000000  0.4917740000000  0.4609000000000 1.0
C      1  0.4831790000000  0.4333190000000  0.5590770000000 1.0
C      1  0.5645600000000  0.5394370000000  0.4764430000000 1.0
C      1  0.4791740000000  0.5542530000000  0.4943910000000 1.0
C      1  0.5678420000000  0.4998570000000  0.4470340000000 1.0
C      1  0.5698220000000  0.4660310000000  0.4923550000000 1.0
C      1  0.4924340000000  0.5408200000000  0.4220070000000 1.0
C      1  0.5522090000000  0.5213330000000  0.4334100000000 1.0
C      1  0.4634240000000  0.4396580000000  0.4595780000000 1.0
C      1  0.5124760000000  0.5885970000000  0.4934910000000 1.0
C      1  0.4706540000000  0.4804330000000  0.4833190000000 1.0
C      1  0.4928100000000  0.4424910000000  0.4614170000000 1.0
C      1  0.5329530000000  0.5012570000000  0.4834680000000 1.0
C      1  0.4569220000000  0.5391980000000  0.4525920000000 1.0
C      1  0.4529020000000  0.5465720000000  0.5080020000000 1.0
C      1  0.4363660000000  0.5246040000000  0.4674980000000 1.0
C      1  0.5715950000000  0.5059830000000  0.5229160000000 1.0
C      1  0.5188170000000  0.4857950000000  0.5267730000000 1.0
C      1  0.5096880000000  0.5190980000000  0.4119550000000 1.0
C      1  0.4770010000000  0.5576620000000  0.4643980000000 1.0
C      1  0.5768830000000  0.4947690000000  0.4965050000000 1.0
C      1  0.5510110000000  0.5547500000000  0.5253480000000 1.0
C      1  0.4974130000000  0.4985880000000  0.5432130000000 1.0
C      1  0.5082600000000  0.5155270000000  0.4706900000000 1.0
C      1  0.5334670000000  0.5752120000000  0.4807410000000 1.0
C      1  0.4481810000000  0.4643680000000  0.4688860000000 1.0
C      1  0.4174800000000  0.5105890000000  0.5112710000000 1.0
C      1  0.5615650000000  0.5286800000000  0.5384050000000 1.0
C      1  0.5186450000000  0.5320300000000  0.5170000000000 1.0
C      1  0.4947350000000  0.4244360000000  0.5334260000000 1.0
C      1  0.5341150000000  0.5064740000000  0.5129680000000 1.0
C      1  0.4746240000000  0.4851140000000  0.5785290000000 1.0
C      1  0.4841250000000  0.4309350000000  0.4970600000000 1.0
C      1  0.4795410000000  0.5340440000000  0.5793850000000 1.0
C      1  0.5263310000000  0.4788250000000  0.4350020000000 1.0
C      1  0.5138760000000  0.4636710000000  0.5079950000000 1.0
C      1  0.5633880000000  0.4493360000000  0.5155770000000 1.0
C      1  0.4644410000000  0.5029630000000  0.5012990000000 1.0
C      1  0.5384260000000  0.4348890000000  0.5131990000000 1.0
C      1  0.5246510000000  0.4529640000000  0.5560920000000 1.0
C      1  0.5249440000000  0.5101550000000  0.4358230000000 1.0
C      1  0.4746110000000  0.4976330000000  0.4297230000000 1.0
C      1  0.4826510000000  0.5487710000000  0.5499540000000 1.0
C      1  0.4414360000000  0.5214390000000  0.4966150000000 1.0
C      1  0.4519880000000  0.4806960000000  0.4242000000000 1.0
C      1  0.5508900000000  0.5199600000000  0.5644460000000 1.0
C      1  0.4832630000000  0.4603340000000  0.5046920000000 1.0
C      1  0.4667170000000  0.5271680000000  0.4276080000000 1.0
C      1  0.5619140000000  0.5093210000000  0.4752880000000 1.0
C      1  0.4276550000000  0.4542250000000  0.4879240000000 1.0
C      1  0.5056810000000  0.5215850000000  0.5872000000000 1.0
C      1  0.4584540000000  0.4683130000000  0.5337170000000 1.0
C      1  0.5520320000000  0.4923910000000  0.5705510000000 1.0
C      1  0.5559330000000  0.4729120000000  0.4423720000000 1.0
C      1  0.5594830000000  0.4567610000000  0.4666490000000 1.0
C      1  0.5014480000000  0.5524740000000  0.4479430000000 1.0
C      1  0.4244850000000  0.5033530000000  0.4541980000000 1.0
C      1  0.5225270000000  0.4316530000000  0.5365680000000 1.0
C      1  0.5019640000000  0.4503740000000  0.5733220000000 1.0
C      1  0.4562980000000  0.5421810000000  0.5367530000000 1.0
C      1  0.5081150000000  0.4687100000000  0.4583160000000 1.0
C      1  0.4600500000000  0.5111070000000  0.5746190000000 1.0
C      1  0.4981200000000  0.5308950000000  0.4955700000000 1.0
C      1  0.5134800000000  0.4720060000000  0.4095870000000 1.0
C      1  0.4340130000000  0.4285930000000  0.4972280000000 1.0
END
