TITL C-950536-5891-236 -2.2281420646794e-06 125000 -603.598472006484 0 0 97 (C1) n - 1
REM
REM in /home/bkarasulu/work/CARBON/AIRSS/Generating-Clusters/EDIP-Nigel-Params/with-SteepDescent/Only-C1/SD-CG/HFTN-CG
REM
REM
REM
REM
REM
REM ./C.cell (11c1c37f851c82e70ff6c80c92926a4b)
REM
REM compiler GCC version 9.2.1 20190827 (Red Hat 9.2.1-1)
REM options -cpp -mtune=generic -march=x86-64 -g -O0 -fpre-include=/usr/include/finclude/math-vector-fortran.h
REM seed 1413285941 -1324435536 1647223943 1955533234 -1788202682 629705196 357015512 -1704734495 -2025524064 -404034232 -3277978 -243106294 1713147235 -1680565799 35518452 -266758518 1708255117 1027490569 6939259 -1372808141 908929719 847923004 1393013806 -1486803315 1252716768 1525075362 -1503717759 1782833221 2066931358 1654311977 942111715 -1714945375 -1555007717
REM
CELL 1.54180   50.00000   50.00000   50.00000   90.00000   90.00000   90.00000
LATT -1
SFAC C  
C      1  0.5040220000000  0.5216900000000  0.4929650000000 1.0
C      1  0.4908400000000  0.5003420000000  0.4165530000000 1.0
C      1  0.4769420000000  0.5243930000000  0.4186950000000 1.0
C      1  0.5519350000000  0.4885280000000  0.4921390000000 1.0
C      1  0.4849810000000  0.4284390000000  0.4366980000000 1.0
C      1  0.4201080000000  0.4973500000000  0.4775060000000 1.0
C      1  0.5409710000000  0.5800530000000  0.4682400000000 1.0
C      1  0.4320490000000  0.4813370000000  0.4423300000000 1.0
C      1  0.5038030000000  0.5460460000000  0.5629310000000 1.0
C      1  0.5530680000000  0.4891030000000  0.4422710000000 1.0
C      1  0.5050670000000  0.4305730000000  0.5489950000000 1.0
C      1  0.4419640000000  0.4535060000000  0.4808320000000 1.0
C      1  0.4853200000000  0.4321160000000  0.5069690000000 1.0
C      1  0.4792430000000  0.5794290000000  0.4692660000000 1.0
C      1  0.4855810000000  0.4696630000000  0.4762720000000 1.0
C      1  0.4678630000000  0.4456500000000  0.4670240000000 1.0
C      1  0.5506130000000  0.4409780000000  0.4440960000000 1.0
C      1  0.4707250000000  0.5626880000000  0.4486020000000 1.0
C      1  0.4755590000000  0.5055350000000  0.5749690000000 1.0
C      1  0.4785990000000  0.4743070000000  0.4181830000000 1.0
C      1  0.4448390000000  0.4802080000000  0.5523630000000 1.0
C      1  0.4787290000000  0.4202390000000  0.4799750000000 1.0
C      1  0.5704420000000  0.4988000000000  0.5440790000000 1.0
C      1  0.5331510000000  0.5265780000000  0.4226220000000 1.0
C      1  0.5261550000000  0.4398550000000  0.5649910000000 1.0
C      1  0.4951780000000  0.5746260000000  0.5640620000000 1.0
C      1  0.4258640000000  0.5502720000000  0.4659760000000 1.0
C      1  0.5089130000000  0.4881710000000  0.5426920000000 1.0
C      1  0.5212440000000  0.4370570000000  0.4659650000000 1.0
C      1  0.4166800000000  0.4593940000000  0.5212280000000 1.0
C      1  0.4702320000000  0.4942020000000  0.4678880000000 1.0
C      1  0.4654320000000  0.4853270000000  0.5269840000000 1.0
C      1  0.5272230000000  0.5656570000000  0.4501880000000 1.0
C      1  0.5263990000000  0.4534440000000  0.4255700000000 1.0
C      1  0.5688750000000  0.5214850000000  0.5260050000000 1.0
C      1  0.5394740000000  0.5183670000000  0.5687390000000 1.0
C      1  0.4864780000000  0.4648390000000  0.5067350000000 1.0
C      1  0.4560020000000  0.5053500000000  0.5079920000000 1.0
C      1  0.4773740000000  0.5717540000000  0.4968370000000 1.0
C      1  0.4510980000000  0.4741550000000  0.4237740000000 1.0
C      1  0.4996810000000  0.4167860000000  0.4589470000000 1.0
C      1  0.4433170000000  0.5587580000000  0.4474780000000 1.0
C      1  0.5596340000000  0.5176760000000  0.4336010000000 1.0
C      1  0.5419470000000  0.5658890000000  0.5140800000000 1.0
C      1  0.5119290000000  0.5661550000000  0.5143490000000 1.0
C      1  0.5169310000000  0.5394550000000  0.4447880000000 1.0
C      1  0.4760580000000  0.4396090000000  0.5503550000000 1.0
C      1  0.5295210000000  0.5080030000000  0.5391410000000 1.0
C      1  0.5567680000000  0.4496960000000  0.5151180000000 1.0
C      1  0.4874880000000  0.5415350000000  0.4381130000000 1.0
C      1  0.5691810000000  0.5345820000000  0.4533390000000 1.0
C      1  0.4302010000000  0.5433210000000  0.4924190000000 1.0
C      1  0.5337060000000  0.4908430000000  0.4669260000000 1.0
C      1  0.4608750000000  0.4336870000000  0.5247420000000 1.0
C      1  0.4456610000000  0.5071390000000  0.5677730000000 1.0
C      1  0.5009850000000  0.5855300000000  0.5366350000000 1.0
C      1  0.4672770000000  0.5782910000000  0.5678080000000 1.0
C      1  0.5511000000000  0.5456480000000  0.5336360000000 1.0
C      1  0.5538420000000  0.5341100000000  0.4775500000000 1.0
C      1  0.5243710000000  0.5214750000000  0.4705640000000 1.0
C      1  0.4413760000000  0.4517950000000  0.5104210000000 1.0
C      1  0.4573930000000  0.5741500000000  0.5415350000000 1.0
C      1  0.4950130000000  0.5275150000000  0.5855330000000 1.0
C      1  0.5133810000000  0.4814620000000  0.5862010000000 1.0
C      1  0.5570250000000  0.4790780000000  0.5588410000000 1.0
C      1  0.5343110000000  0.4658590000000  0.5713640000000 1.0
C      1  0.5356100000000  0.5459680000000  0.5599420000000 1.0
C      1  0.5132610000000  0.4673340000000  0.4657970000000 1.0
C      1  0.5442690000000  0.4234550000000  0.4782420000000 1.0
C      1  0.4750330000000  0.5888670000000  0.5221470000000 1.0
C      1  0.5520860000000  0.5625050000000  0.4869840000000 1.0
C      1  0.5864770000000  0.4683200000000  0.4745370000000 1.0
C      1  0.4820140000000  0.4776760000000  0.5856770000000 1.0
C      1  0.4842860000000  0.5026940000000  0.5452020000000 1.0
C      1  0.5111850000000  0.5343300000000  0.5188270000000 1.0
C      1  0.4281260000000  0.5137990000000  0.5007990000000 1.0
C      1  0.5126510000000  0.4728760000000  0.5184320000000 1.0
C      1  0.5194090000000  0.5022590000000  0.4126650000000 1.0
C      1  0.5369980000000  0.4797700000000  0.4193690000000 1.0
C      1  0.4964790000000  0.4527150000000  0.4273720000000 1.0
C      1  0.4635230000000  0.4594570000000  0.5686720000000 1.0
C      1  0.4414030000000  0.4817670000000  0.4683120000000 1.0
C      1  0.4169290000000  0.5096280000000  0.5289380000000 1.0
C      1  0.4885300000000  0.5324850000000  0.5388120000000 1.0
C      1  0.4175880000000  0.4805890000000  0.5392800000000 1.0
C      1  0.5895710000000  0.4964390000000  0.4831710000000 1.0
C      1  0.5684810000000  0.5141330000000  0.4962270000000 1.0
C      1  0.5195720000000  0.5107440000000  0.5897160000000 1.0
C      1  0.4582130000000  0.5485790000000  0.5020220000000 1.0
C      1  0.5108590000000  0.4229340000000  0.5207680000000 1.0
C      1  0.5771770000000  0.4526140000000  0.4961130000000 1.0
C      1  0.4360080000000  0.5262380000000  0.5466940000000 1.0
C      1  0.5437240000000  0.4763930000000  0.5186210000000 1.0
C      1  0.4749540000000  0.5169200000000  0.4871630000000 1.0
C      1  0.4591700000000  0.5450880000000  0.5327680000000 1.0
C      1  0.5380900000000  0.4288910000000  0.5061690000000 1.0
C      1  0.5703110000000  0.4649810000000  0.4491080000000 1.0
END
