TITL C-951344-124-727 -2.01108211069654e-06 125000 -919.354532547303 0 0 148 (C1) n - 1
REM
REM in /home/bkarasulu/work/CARBON/AIRSS/Generating-Clusters/EDIP-Nigel-Params/with-SteepDescent/Only-C1/SD-CG/HFTN-CG
REM
REM
REM
REM
REM
REM ./C.cell (11c1c37f851c82e70ff6c80c92926a4b)
REM
REM compiler GCC version 9.2.1 20190827 (Red Hat 9.2.1-1)
REM options -cpp -mtune=generic -march=x86-64 -g -O0 -fpre-include=/usr/include/finclude/math-vector-fortran.h
REM seed -337372568 371967433 -1349673722 -170136879 248662414 278845316 347343217 -707908330 210985288 -401267812 920657971 -441668998 -14489910 564027519 1046096889 472442956 -2057731632 620331084 -1095247822 -34013313 291137543 -97324566 -1521215812 615417236 1312746354 1889579662 1334027518 -831989005 1102616637 -457595175 941520777 -1852128330 492944589
REM
CELL 1.54180   50.00000   50.00000   50.00000   90.00000   90.00000   90.00000
LATT -1
SFAC C  
C      1  0.5752420000000  0.5199760000000  0.5356410000000 1.0
C      1  0.6060090000000  0.5332990000000  0.4904040000000 1.0
C      1  0.4563740000000  0.4497840000000  0.5784950000000 1.0
C      1  0.5678180000000  0.4058310000000  0.5090090000000 1.0
C      1  0.4940560000000  0.4854880000000  0.4852010000000 1.0
C      1  0.4264070000000  0.5529950000000  0.4590570000000 1.0
C      1  0.4821390000000  0.4241520000000  0.4314060000000 1.0
C      1  0.4741090000000  0.5988930000000  0.5337910000000 1.0
C      1  0.5161240000000  0.5085750000000  0.4801850000000 1.0
C      1  0.5592770000000  0.5444930000000  0.4349640000000 1.0
C      1  0.4747390000000  0.4303240000000  0.4588820000000 1.0
C      1  0.5342820000000  0.4193940000000  0.5734920000000 1.0
C      1  0.4190030000000  0.5398260000000  0.4850680000000 1.0
C      1  0.4842380000000  0.5849270000000  0.4856460000000 1.0
C      1  0.5788760000000  0.5549220000000  0.4544650000000 1.0
C      1  0.4777280000000  0.5351390000000  0.3953680000000 1.0
C      1  0.4900880000000  0.4737070000000  0.4358130000000 1.0
C      1  0.4929860000000  0.5884260000000  0.5143300000000 1.0
C      1  0.4581920000000  0.5011670000000  0.4221030000000 1.0
C      1  0.5495620000000  0.3861610000000  0.5000470000000 1.0
C      1  0.4651190000000  0.5359690000000  0.5155510000000 1.0
C      1  0.4747400000000  0.5141520000000  0.6053090000000 1.0
C      1  0.4618140000000  0.5410090000000  0.4834230000000 1.0
C      1  0.5228400000000  0.5014510000000  0.5956420000000 1.0
C      1  0.5296990000000  0.4195790000000  0.5266260000000 1.0
C      1  0.4760430000000  0.4506340000000  0.4191520000000 1.0
C      1  0.5426760000000  0.4752450000000  0.5364530000000 1.0
C      1  0.5603170000000  0.4322840000000  0.4955960000000 1.0
C      1  0.5309870000000  0.4502780000000  0.5021760000000 1.0
C      1  0.4605860000000  0.4788160000000  0.5828030000000 1.0
C      1  0.5070390000000  0.5077360000000  0.5285470000000 1.0
C      1  0.5117030000000  0.4756190000000  0.5803500000000 1.0
C      1  0.5015210000000  0.4959280000000  0.4148000000000 1.0
C      1  0.5685820000000  0.4941960000000  0.4186930000000 1.0
C      1  0.5415640000000  0.5028280000000  0.4969540000000 1.0
C      1  0.5647210000000  0.5224170000000  0.4180780000000 1.0
C      1  0.5333750000000  0.5575650000000  0.5200910000000 1.0
C      1  0.4798490000000  0.5707160000000  0.4324530000000 1.0
C      1  0.4172870000000  0.5093350000000  0.4935600000000 1.0
C      1  0.4910110000000  0.4281940000000  0.5558740000000 1.0
C      1  0.4298130000000  0.5151170000000  0.5975170000000 1.0
C      1  0.5100340000000  0.5365570000000  0.4858980000000 1.0
C      1  0.4353030000000  0.5830580000000  0.5066000000000 1.0
C      1  0.5978110000000  0.4919990000000  0.5035390000000 1.0
C      1  0.5116510000000  0.4088520000000  0.4823220000000 1.0
C      1  0.4578150000000  0.5153750000000  0.4662760000000 1.0
C      1  0.4222960000000  0.5312220000000  0.5497970000000 1.0
C      1  0.5018000000000  0.4537670000000  0.5970100000000 1.0
C      1  0.4681370000000  0.4233770000000  0.5386840000000 1.0
C      1  0.4527170000000  0.5776820000000  0.5666170000000 1.0
C      1  0.5176760000000  0.5804810000000  0.5282040000000 1.0
C      1  0.4552700000000  0.5252860000000  0.4390410000000 1.0
C      1  0.5007020000000  0.5891390000000  0.4447270000000 1.0
C      1  0.4269800000000  0.5359730000000  0.4355020000000 1.0
C      1  0.4634200000000  0.5068940000000  0.5164210000000 1.0
C      1  0.4814470000000  0.5825440000000  0.5568940000000 1.0
C      1  0.4379780000000  0.4182500000000  0.5028990000000 1.0
C      1  0.5368380000000  0.5605640000000  0.4277980000000 1.0
C      1  0.5243970000000  0.3983150000000  0.5060490000000 1.0
C      1  0.5431190000000  0.5197630000000  0.5830970000000 1.0
C      1  0.5858190000000  0.5310740000000  0.5599130000000 1.0
C      1  0.4522190000000  0.5316450000000  0.5964610000000 1.0
C      1  0.5043000000000  0.4523450000000  0.4834610000000 1.0
C      1  0.5917920000000  0.4677780000000  0.4890700000000 1.0
C      1  0.5266130000000  0.5773350000000  0.4485670000000 1.0
C      1  0.3907910000000  0.4873100000000  0.5188940000000 1.0
C      1  0.4367470000000  0.4805700000000  0.4188240000000 1.0
C      1  0.5587770000000  0.4145970000000  0.5365010000000 1.0
C      1  0.4070930000000  0.5161830000000  0.4334760000000 1.0
C      1  0.5041790000000  0.5387690000000  0.5597050000000 1.0
C      1  0.4398790000000  0.5445280000000  0.5277820000000 1.0
C      1  0.3968550000000  0.5381140000000  0.5322470000000 1.0
C      1  0.5263670000000  0.4019360000000  0.4580430000000 1.0
C      1  0.4916570000000  0.5580890000000  0.4045040000000 1.0
C      1  0.5501790000000  0.4428030000000  0.5712380000000 1.0
C      1  0.5970960000000  0.5327950000000  0.4620950000000 1.0
C      1  0.4457320000000  0.5929160000000  0.5321230000000 1.0
C      1  0.5670240000000  0.4336020000000  0.4663070000000 1.0
C      1  0.5478440000000  0.4211090000000  0.4477500000000 1.0
C      1  0.5200330000000  0.5829120000000  0.5569760000000 1.0
C      1  0.4444220000000  0.4683640000000  0.4681460000000 1.0
C      1  0.5344440000000  0.4660550000000  0.5628870000000 1.0
C      1  0.4821370000000  0.4650070000000  0.5334980000000 1.0
C      1  0.5804270000000  0.5379870000000  0.5063290000000 1.0
C      1  0.4486680000000  0.5475280000000  0.5705500000000 1.0
C      1  0.3982110000000  0.4905400000000  0.4810870000000 1.0
C      1  0.5352660000000  0.5500770000000  0.4915620000000 1.0
C      1  0.4665840000000  0.4213460000000  0.5079170000000 1.0
C      1  0.5383600000000  0.5078070000000  0.4479380000000 1.0
C      1  0.5695590000000  0.5724620000000  0.4765840000000 1.0
C      1  0.5408100000000  0.5631950000000  0.5634660000000 1.0
C      1  0.4828440000000  0.4140470000000  0.4818220000000 1.0
C      1  0.5361640000000  0.5029120000000  0.5267960000000 1.0
C      1  0.5776620000000  0.4629030000000  0.4628010000000 1.0
C      1  0.4158560000000  0.4783110000000  0.4617050000000 1.0
C      1  0.5090290000000  0.4156980000000  0.4273740000000 1.0
C      1  0.4848940000000  0.5421620000000  0.4441190000000 1.0
C      1  0.5369040000000  0.5479430000000  0.5880540000000 1.0
C      1  0.4126680000000  0.4884930000000  0.4346960000000 1.0
C      1  0.5873670000000  0.4922810000000  0.5305420000000 1.0
C      1  0.4771700000000  0.5073050000000  0.4003480000000 1.0
C      1  0.3870370000000  0.5157660000000  0.5168460000000 1.0
C      1  0.5171950000000  0.5441660000000  0.4135680000000 1.0
C      1  0.4792540000000  0.5516470000000  0.5466060000000 1.0
C      1  0.5700530000000  0.5152570000000  0.5758420000000 1.0
C      1  0.5784950000000  0.4516530000000  0.5080960000000 1.0
C      1  0.4402950000000  0.4931500000000  0.5068650000000 1.0
C      1  0.4886030000000  0.5516770000000  0.4736330000000 1.0
C      1  0.5026500000000  0.5217050000000  0.6051630000000 1.0
C      1  0.5709700000000  0.4658440000000  0.5329910000000 1.0
C      1  0.4506420000000  0.4456320000000  0.5491370000000 1.0
C      1  0.5439680000000  0.4790090000000  0.4143880000000 1.0
C      1  0.4872320000000  0.4913210000000  0.5154240000000 1.0
C      1  0.4349200000000  0.4943250000000  0.5790880000000 1.0
C      1  0.4544870000000  0.5846690000000  0.4834880000000 1.0
C      1  0.5276730000000  0.4383120000000  0.4325810000000 1.0
C      1  0.4506870000000  0.5694160000000  0.4587150000000 1.0
C      1  0.5223200000000  0.4844180000000  0.3968700000000 1.0
C      1  0.4256590000000  0.5006650000000  0.5527470000000 1.0
C      1  0.4692300000000  0.4863580000000  0.6102060000000 1.0
C      1  0.6190030000000  0.5093020000000  0.4971000000000 1.0
C      1  0.4259410000000  0.4434420000000  0.5071540000000 1.0
C      1  0.4832780000000  0.4377080000000  0.5824100000000 1.0
C      1  0.5373400000000  0.4777470000000  0.4578320000000 1.0
C      1  0.4456340000000  0.4642050000000  0.4975010000000 1.0
C      1  0.5574950000000  0.5279150000000  0.4887670000000 1.0
C      1  0.5365730000000  0.5379550000000  0.5429950000000 1.0
C      1  0.5129380000000  0.5190710000000  0.4310940000000 1.0
C      1  0.4488730000000  0.4434980000000  0.4536770000000 1.0
C      1  0.4960250000000  0.5107530000000  0.5550500000000 1.0
C      1  0.4237350000000  0.4515390000000  0.5355590000000 1.0
C      1  0.5158800000000  0.4148450000000  0.5525000000000 1.0
C      1  0.5779550000000  0.5670780000000  0.5037080000000 1.0
C      1  0.5484490000000  0.4744990000000  0.4858670000000 1.0
C      1  0.5713270000000  0.4392410000000  0.5504470000000 1.0
C      1  0.5387790000000  0.4515620000000  0.4085370000000 1.0
C      1  0.5425240000000  0.5822290000000  0.4721340000000 1.0
C      1  0.4939520000000  0.6048090000000  0.4669610000000 1.0
C      1  0.4866490000000  0.4829670000000  0.5627060000000 1.0
C      1  0.4732990000000  0.4508860000000  0.5043440000000 1.0
C      1  0.4188160000000  0.5565370000000  0.5100000000000 1.0
C      1  0.4116220000000  0.4791240000000  0.5376320000000 1.0
C      1  0.5844460000000  0.4866800000000  0.4434350000000 1.0
C      1  0.5141320000000  0.4597530000000  0.4516470000000 1.0
C      1  0.4699290000000  0.4876130000000  0.4628920000000 1.0
C      1  0.4467270000000  0.4520190000000  0.4243380000000 1.0
C      1  0.5076140000000  0.5463450000000  0.5900720000000 1.0
C      1  0.5753270000000  0.5112030000000  0.4588370000000 1.0
END
