TITL C-950532-2784-111 -2.29211222557084e-06 125000 -373.866585805251 0 0 61 (C1) n - 1
REM
REM in /home/bkarasulu/work/CARBON/AIRSS/Generating-Clusters/EDIP-Nigel-Params/with-SteepDescent/Only-C1/SD-CG/HFTN-CG
REM
REM
REM
REM
REM
REM ./C.cell (11c1c37f851c82e70ff6c80c92926a4b)
REM
REM compiler GCC version 9.2.1 20190827 (Red Hat 9.2.1-1)
REM options -cpp -mtune=generic -march=x86-64 -g -O0 -fpre-include=/usr/include/finclude/math-vector-fortran.h
REM seed -1136568233 775488309 -2137682354 -937219448 -2061807659 1876499048 1916055452 -822217864 -1836644616 -1016528794 -1139708510 996010149 -597078894 -697799332 803441638 -217200307 -148971517 78216202 -2087271215 863768425 309207522 1073836548 1340441001 -1806913897 -446529604 -1830701290 286363421 711881861 1185465290 -1278552808 742354343 402133022 -805462633
REM
CELL 1.54180   50.00000   50.00000   50.00000   90.00000   90.00000   90.00000
LATT -1
SFAC C  
C      1  0.5092180000000  0.5412500000000  0.4507490000000 1.0
C      1  0.5144220000000  0.5116530000000  0.4521110000000 1.0
C      1  0.5105320000000  0.5078490000000  0.5599310000000 1.0
C      1  0.4778680000000  0.5241320000000  0.4841610000000 1.0
C      1  0.5065160000000  0.4541410000000  0.5712940000000 1.0
C      1  0.4811040000000  0.4585260000000  0.5598080000000 1.0
C      1  0.4545460000000  0.4839770000000  0.5102400000000 1.0
C      1  0.5457220000000  0.4793100000000  0.4339790000000 1.0
C      1  0.4817060000000  0.5440560000000  0.4566660000000 1.0
C      1  0.5203820000000  0.5019910000000  0.4813230000000 1.0
C      1  0.4921930000000  0.4686450000000  0.4364310000000 1.0
C      1  0.5519030000000  0.5353260000000  0.4983680000000 1.0
C      1  0.5506500000000  0.4649920000000  0.5094900000000 1.0
C      1  0.5358910000000  0.5493940000000  0.5501600000000 1.0
C      1  0.5506740000000  0.5470570000000  0.4716530000000 1.0
C      1  0.4764000000000  0.5641990000000  0.5031180000000 1.0
C      1  0.4523110000000  0.5244060000000  0.5285860000000 1.0
C      1  0.5680080000000  0.4996310000000  0.4692540000000 1.0
C      1  0.4628450000000  0.5095660000000  0.4368670000000 1.0
C      1  0.4999480000000  0.5258110000000  0.5125170000000 1.0
C      1  0.5215990000000  0.5575070000000  0.4707460000000 1.0
C      1  0.4739910000000  0.4916950000000  0.4861220000000 1.0
C      1  0.4311220000000  0.5211980000000  0.5069440000000 1.0
C      1  0.4901690000000  0.4962080000000  0.4401080000000 1.0
C      1  0.5608170000000  0.5225890000000  0.4508050000000 1.0
C      1  0.4931820000000  0.4256710000000  0.5256770000000 1.0
C      1  0.5008540000000  0.5683390000000  0.4885840000000 1.0
C      1  0.4539810000000  0.5587520000000  0.4869450000000 1.0
C      1  0.5274820000000  0.5445230000000  0.5127400000000 1.0
C      1  0.5013040000000  0.4822450000000  0.4916480000000 1.0
C      1  0.4562790000000  0.4618900000000  0.4688310000000 1.0
C      1  0.4560260000000  0.4994870000000  0.5442100000000 1.0
C      1  0.5595770000000  0.4911000000000  0.5163250000000 1.0
C      1  0.5562440000000  0.4735980000000  0.4597260000000 1.0
C      1  0.4922010000000  0.4352170000000  0.4734620000000 1.0
C      1  0.4906550000000  0.5006580000000  0.5802900000000 1.0
C      1  0.4776880000000  0.5428860000000  0.5248440000000 1.0
C      1  0.4269820000000  0.4913150000000  0.5000110000000 1.0
C      1  0.5034820000000  0.4747100000000  0.5200820000000 1.0
C      1  0.5393530000000  0.5070670000000  0.4360920000000 1.0
C      1  0.4892270000000  0.5507680000000  0.5502590000000 1.0
C      1  0.5193250000000  0.4378120000000  0.4855880000000 1.0
C      1  0.4396880000000  0.5337720000000  0.4816020000000 1.0
C      1  0.4580240000000  0.4418010000000  0.4903050000000 1.0
C      1  0.4822050000000  0.4525500000000  0.5304350000000 1.0
C      1  0.4785340000000  0.4501690000000  0.4518600000000 1.0
C      1  0.4336060000000  0.4845870000000  0.4710240000000 1.0
C      1  0.5303640000000  0.4620490000000  0.5582710000000 1.0
C      1  0.4720670000000  0.4860410000000  0.5651010000000 1.0
C      1  0.5392440000000  0.4616920000000  0.4821220000000 1.0
C      1  0.5185580000000  0.4317520000000  0.5153630000000 1.0
C      1  0.4665540000000  0.5374600000000  0.4335520000000 1.0
C      1  0.5122480000000  0.5381010000000  0.5608230000000 1.0
C      1  0.4570440000000  0.4551250000000  0.5153350000000 1.0
C      1  0.5498360000000  0.5063910000000  0.4924420000000 1.0
C      1  0.5015000000000  0.5021500000000  0.5317510000000 1.0
C      1  0.4434980000000  0.5101160000000  0.4602670000000 1.0
C      1  0.5553790000000  0.4983150000000  0.5430640000000 1.0
C      1  0.5363890000000  0.4910690000000  0.5623220000000 1.0
C      1  0.5285480000000  0.4577410000000  0.5275080000000 1.0
C      1  0.5323370000000  0.5679740000000  0.5301110000000 1.0
END
