TITL C-950526-5686-734 1.12418770660824e-06 125000 -197.31154832406 0 0 34 (C1) n - 1
REM
REM in /home/bkarasulu/work/CARBON/AIRSS/Generating-Clusters/EDIP-Nigel-Params/with-SteepDescent/Only-C1/SD-CG/HFTN-CG
REM
REM
REM
REM
REM
REM ./C.cell (11c1c37f851c82e70ff6c80c92926a4b)
REM
REM compiler GCC version 9.2.1 20190827 (Red Hat 9.2.1-1)
REM options -cpp -mtune=generic -march=x86-64 -g -O0 -fpre-include=/usr/include/finclude/math-vector-fortran.h
REM seed -1836979909 412367535 449017552 1966225708 -1606746378 1936379822 -1502129841 -1777862296 -674170936 1404684688 -1874501840 1048981637 -1777755041 50115707 -1701335593 1157552440 -1681027158 -1159579817 1171921359 -1836606294 1656577372 284995354 1736507315 376254032 -87677538 -2060115094 -2102162387 -1502190733 -2099613874 1616781750 -1721862487 462951894 614131287
REM
CELL 1.54180   50.00000   50.00000   50.00000   90.00000   90.00000   90.00000
LATT -1
SFAC C  
C      1  0.5362110000000  0.4656440000000  0.5075710000000 1.0
C      1  0.5075320000000  0.4946480000000  0.4536130000000 1.0
C      1  0.4540190000000  0.5392260000000  0.5389770000000 1.0
C      1  0.5149600000000  0.5647160000000  0.5082490000000 1.0
C      1  0.4717490000000  0.4606480000000  0.4661360000000 1.0
C      1  0.5179580000000  0.5631530000000  0.4814060000000 1.0
C      1  0.4574210000000  0.5447230000000  0.5121250000000 1.0
C      1  0.4624480000000  0.5306360000000  0.4669910000000 1.0
C      1  0.5433000000000  0.5136350000000  0.5192480000000 1.0
C      1  0.5481930000000  0.4852780000000  0.5243730000000 1.0
C      1  0.4588210000000  0.4884340000000  0.5150930000000 1.0
C      1  0.4666690000000  0.4719320000000  0.5369330000000 1.0
C      1  0.5422160000000  0.4640240000000  0.4796380000000 1.0
C      1  0.5533960000000  0.4876440000000  0.4684280000000 1.0
C      1  0.4739930000000  0.5407480000000  0.4902470000000 1.0
C      1  0.5316250000000  0.5252830000000  0.5425770000000 1.0
C      1  0.4926500000000  0.4597820000000  0.5341100000000 1.0
C      1  0.5230560000000  0.5142980000000  0.4965880000000 1.0
C      1  0.4798120000000  0.4972240000000  0.4968660000000 1.0
C      1  0.4954980000000  0.4489880000000  0.5077240000000 1.0
C      1  0.5093480000000  0.5081400000000  0.5469840000000 1.0
C      1  0.5315220000000  0.5056130000000  0.4690060000000 1.0
C      1  0.5043580000000  0.5406000000000  0.4947420000000 1.0
C      1  0.4789490000000  0.4892770000000  0.4675190000000 1.0
C      1  0.5070740000000  0.4911210000000  0.5069010000000 1.0
C      1  0.4593620000000  0.5066330000000  0.4548220000000 1.0
C      1  0.5172650000000  0.4605900000000  0.4364690000000 1.0
C      1  0.4853780000000  0.5173950000000  0.5602170000000 1.0
C      1  0.5121890000000  0.4856620000000  0.4264250000000 1.0
C      1  0.4576930000000  0.5079530000000  0.5474710000000 1.0
C      1  0.4774530000000  0.5453360000000  0.5557590000000 1.0
C      1  0.5190490000000  0.4533260000000  0.4644970000000 1.0
C      1  0.4938450000000  0.4486710000000  0.4793180000000 1.0
C      1  0.5149890000000  0.4790210000000  0.5429760000000 1.0
END
