TITL C-951334-9093-460 -4.68016024696569e-06 125000 -819.966214659532 0 0 131 (C1) n - 1
REM
REM in /home/bkarasulu/work/CARBON/AIRSS/Generating-Clusters/EDIP-Nigel-Params/with-SteepDescent/Only-C1/SD-CG/HFTN-CG
REM
REM
REM
REM
REM
REM ./C.cell (11c1c37f851c82e70ff6c80c92926a4b)
REM
REM compiler GCC version 9.2.1 20190827 (Red Hat 9.2.1-1)
REM options -cpp -mtune=generic -march=x86-64 -g -O0 -fpre-include=/usr/include/finclude/math-vector-fortran.h
REM seed 557363906 2108653387 -303930948 -2119116796 1560274367 374889058 -1240815122 -64164105 -606763972 739623615 1372215641 -810042207 -1018304995 1023541385 1545543250 1446794223 1928729143 1417443475 -574870941 1408642425 1261531252 2046598964 -1386903234 -1082090068 -430069823 -812522093 -559865692 1006230495 1085750504 1860216403 50184753 -463914069 -767978407
REM
CELL 1.54180   50.00000   50.00000   50.00000   90.00000   90.00000   90.00000
LATT -1
SFAC C  
C      1  0.4817460000000  0.5336890000000  0.4319770000000 1.0
C      1  0.5257660000000  0.5204690000000  0.4478850000000 1.0
C      1  0.5767970000000  0.5578840000000  0.4655510000000 1.0
C      1  0.4784390000000  0.5444110000000  0.5388140000000 1.0
C      1  0.5909960000000  0.4885640000000  0.4846870000000 1.0
C      1  0.5060820000000  0.4469720000000  0.4989530000000 1.0
C      1  0.4649530000000  0.4338370000000  0.5295580000000 1.0
C      1  0.4592880000000  0.5900840000000  0.5079030000000 1.0
C      1  0.4440600000000  0.4567870000000  0.5655900000000 1.0
C      1  0.5481830000000  0.4650470000000  0.4073360000000 1.0
C      1  0.4041260000000  0.5323590000000  0.5212530000000 1.0
C      1  0.5199280000000  0.5094760000000  0.3953250000000 1.0
C      1  0.5060490000000  0.5800330000000  0.5129550000000 1.0
C      1  0.4947490000000  0.3987070000000  0.5382110000000 1.0
C      1  0.5888710000000  0.5159190000000  0.4449610000000 1.0
C      1  0.4670130000000  0.5558490000000  0.5846310000000 1.0
C      1  0.5542980000000  0.5759300000000  0.4762860000000 1.0
C      1  0.5547390000000  0.4889840000000  0.4197790000000 1.0
C      1  0.4200560000000  0.4699270000000  0.4565950000000 1.0
C      1  0.3864930000000  0.4925870000000  0.4809740000000 1.0
C      1  0.4819840000000  0.4066510000000  0.4928500000000 1.0
C      1  0.4335890000000  0.5625020000000  0.4724580000000 1.0
C      1  0.3964050000000  0.5403710000000  0.4957660000000 1.0
C      1  0.4372520000000  0.5659910000000  0.5508870000000 1.0
C      1  0.4799760000000  0.5872580000000  0.5267280000000 1.0
C      1  0.4514390000000  0.4435700000000  0.4328000000000 1.0
C      1  0.4870240000000  0.5349090000000  0.4628780000000 1.0
C      1  0.4713890000000  0.5810270000000  0.4484530000000 1.0
C      1  0.4869970000000  0.5066200000000  0.4827370000000 1.0
C      1  0.5720880000000  0.5469410000000  0.5536800000000 1.0
C      1  0.4267460000000  0.5471490000000  0.5312100000000 1.0
C      1  0.5704650000000  0.5007150000000  0.5790450000000 1.0
C      1  0.5523470000000  0.4120870000000  0.4941280000000 1.0
C      1  0.5087440000000  0.4775110000000  0.4582980000000 1.0
C      1  0.5333270000000  0.5853890000000  0.5243420000000 1.0
C      1  0.5573120000000  0.5226770000000  0.5622570000000 1.0
C      1  0.4851850000000  0.5025920000000  0.4243470000000 1.0
C      1  0.4960400000000  0.4936590000000  0.3965170000000 1.0
C      1  0.4872740000000  0.4842190000000  0.5827140000000 1.0
C      1  0.5178020000000  0.4468340000000  0.5730640000000 1.0
C      1  0.4156570000000  0.5193610000000  0.4541120000000 1.0
C      1  0.5903440000000  0.5381480000000  0.5338500000000 1.0
C      1  0.5495960000000  0.5399220000000  0.4234940000000 1.0
C      1  0.4812110000000  0.5652610000000  0.4724780000000 1.0
C      1  0.5193220000000  0.4389660000000  0.4332980000000 1.0
C      1  0.5138720000000  0.4961000000000  0.4345550000000 1.0
C      1  0.5445790000000  0.5134780000000  0.4085680000000 1.0
C      1  0.5554490000000  0.5834800000000  0.5046870000000 1.0
C      1  0.4736600000000  0.4060440000000  0.5214970000000 1.0
C      1  0.5604340000000  0.4309930000000  0.5553440000000 1.0
C      1  0.5281070000000  0.5633010000000  0.4702880000000 1.0
C      1  0.4179220000000  0.4901100000000  0.5465440000000 1.0
C      1  0.4352520000000  0.4392540000000  0.5238930000000 1.0
C      1  0.4528110000000  0.5414950000000  0.4302240000000 1.0
C      1  0.4325790000000  0.4651760000000  0.5399060000000 1.0
C      1  0.5742960000000  0.5411510000000  0.4404420000000 1.0
C      1  0.4798390000000  0.5316510000000  0.5907780000000 1.0
C      1  0.4976050000000  0.5101830000000  0.5121060000000 1.0
C      1  0.5423160000000  0.5031780000000  0.5322490000000 1.0
C      1  0.5049470000000  0.5333630000000  0.5505740000000 1.0
C      1  0.4016240000000  0.4938890000000  0.4570410000000 1.0
C      1  0.5437720000000  0.4905040000000  0.5898170000000 1.0
C      1  0.5027120000000  0.4660560000000  0.3958100000000 1.0
C      1  0.4690180000000  0.5696120000000  0.5506940000000 1.0
C      1  0.5756610000000  0.4901030000000  0.4396780000000 1.0
C      1  0.5904770000000  0.5402500000000  0.4856250000000 1.0
C      1  0.4578790000000  0.5119080000000  0.4628750000000 1.0
C      1  0.4657320000000  0.5406250000000  0.5110480000000 1.0
C      1  0.4949270000000  0.4266110000000  0.4379670000000 1.0
C      1  0.4979570000000  0.5126780000000  0.5783580000000 1.0
C      1  0.4448370000000  0.5196270000000  0.5103840000000 1.0
C      1  0.5472640000000  0.5465420000000  0.5109700000000 1.0
C      1  0.5839540000000  0.4809380000000  0.5151330000000 1.0
C      1  0.4128050000000  0.5415330000000  0.4730920000000 1.0
C      1  0.4303640000000  0.5019250000000  0.5698080000000 1.0
C      1  0.5771060000000  0.4727870000000  0.4631940000000 1.0
C      1  0.5370980000000  0.4005040000000  0.5162780000000 1.0
C      1  0.4365560000000  0.4192090000000  0.4805210000000 1.0
C      1  0.5219380000000  0.5546910000000  0.5637730000000 1.0
C      1  0.4538150000000  0.4919100000000  0.5207490000000 1.0
C      1  0.4272330000000  0.5279750000000  0.5791150000000 1.0
C      1  0.5325030000000  0.4252830000000  0.5581510000000 1.0
C      1  0.4877500000000  0.5802130000000  0.4256380000000 1.0
C      1  0.5743660000000  0.5325920000000  0.5096550000000 1.0
C      1  0.4434040000000  0.4799150000000  0.5837620000000 1.0
C      1  0.5368080000000  0.5138290000000  0.4750560000000 1.0
C      1  0.4999060000000  0.5554270000000  0.4227730000000 1.0
C      1  0.5611230000000  0.4590970000000  0.5565050000000 1.0
C      1  0.4344020000000  0.5202130000000  0.4331550000000 1.0
C      1  0.4416550000000  0.4698460000000  0.4361000000000 1.0
C      1  0.5209230000000  0.5232800000000  0.5264050000000 1.0
C      1  0.4055250000000  0.4838650000000  0.4998720000000 1.0
C      1  0.5244840000000  0.5137820000000  0.5923420000000 1.0
C      1  0.5301390000000  0.4644270000000  0.5019890000000 1.0
C      1  0.5590580000000  0.4407130000000  0.4961390000000 1.0
C      1  0.4729480000000  0.4389690000000  0.4518060000000 1.0
C      1  0.5310680000000  0.5395150000000  0.4873570000000 1.0
C      1  0.4636480000000  0.4211370000000  0.4747320000000 1.0
C      1  0.5410800000000  0.4332400000000  0.4525950000000 1.0
C      1  0.5991540000000  0.4880500000000  0.5398850000000 1.0
C      1  0.5054530000000  0.5781990000000  0.4834560000000 1.0
C      1  0.5097500000000  0.4181360000000  0.4946480000000 1.0
C      1  0.5238080000000  0.4521030000000  0.4079820000000 1.0
C      1  0.4113790000000  0.5030810000000  0.5216720000000 1.0
C      1  0.4656990000000  0.4824990000000  0.6005220000000 1.0
C      1  0.5244410000000  0.5517690000000  0.4393960000000 1.0
C      1  0.4687220000000  0.4415580000000  0.5598170000000 1.0
C      1  0.5419790000000  0.5681630000000  0.5472240000000 1.0
C      1  0.5322810000000  0.4117410000000  0.4711920000000 1.0
C      1  0.4647620000000  0.4873880000000  0.4448340000000 1.0
C      1  0.4802130000000  0.4683210000000  0.4623570000000 1.0
C      1  0.4609210000000  0.4746270000000  0.4952200000000 1.0
C      1  0.5286120000000  0.4753840000000  0.5315530000000 1.0
C      1  0.6044740000000  0.5156160000000  0.5416590000000 1.0
C      1  0.5574920000000  0.4519970000000  0.4696890000000 1.0
C      1  0.4810860000000  0.4968940000000  0.5320980000000 1.0
C      1  0.5382430000000  0.5365150000000  0.5804770000000 1.0
C      1  0.4819240000000  0.4555850000000  0.5141920000000 1.0
C      1  0.4586360000000  0.5650880000000  0.4932300000000 1.0
C      1  0.4457950000000  0.5664670000000  0.4451710000000 1.0
C      1  0.5998370000000  0.5154750000000  0.4724230000000 1.0
C      1  0.5831590000000  0.4779880000000  0.5633350000000 1.0
C      1  0.5636250000000  0.5035840000000  0.5084190000000 1.0
C      1  0.4965740000000  0.4724300000000  0.5363260000000 1.0
C      1  0.5198980000000  0.4105580000000  0.5365170000000 1.0
C      1  0.4381310000000  0.5539610000000  0.5782130000000 1.0
C      1  0.4919940000000  0.4604130000000  0.5641630000000 1.0
C      1  0.5218250000000  0.4886750000000  0.4824500000000 1.0
C      1  0.4282650000000  0.4672760000000  0.4869020000000 1.0
C      1  0.4255350000000  0.4392670000000  0.4964460000000 1.0
C      1  0.5370030000000  0.4691650000000  0.5693000000000 1.0
END
