TITL C-950521-2237-267 1.75564469894994e-07 125000 -759.245821837521 0 0 121 (C1) n - 1
REM
REM in /home/bkarasulu/work/CARBON/AIRSS/Generating-Clusters/EDIP-Nigel-Params/with-SteepDescent/Only-C1/SD-CG/HFTN-CG
REM
REM
REM
REM
REM
REM ./C.cell (11c1c37f851c82e70ff6c80c92926a4b)
REM
REM compiler GCC version 9.2.1 20190827 (Red Hat 9.2.1-1)
REM options -cpp -mtune=generic -march=x86-64 -g -O0 -fpre-include=/usr/include/finclude/math-vector-fortran.h
REM seed -190129094 484946971 1467568861 1760542145 -1876754610 -1413575255 -22144122 1656580269 613361667 562482326 -1498710870 -369804591 1768603427 -1019199139 1473775821 1901526056 1299087052 -1736477732 312165276 -774020817 -1246035974 -2019046143 879958304 1650684425 -962245689 1663170756 1501096758 714194359 238250799 -1648837853 -2004765042 1795718565 -307964603
REM
CELL 1.54180   50.00000   50.00000   50.00000   90.00000   90.00000   90.00000
LATT -1
SFAC C  
C      1  0.5382100000000  0.4687000000000  0.5355420000000 1.0
C      1  0.5093020000000  0.4347470000000  0.5559170000000 1.0
C      1  0.5176230000000  0.5518530000000  0.5598220000000 1.0
C      1  0.5011570000000  0.4469560000000  0.4805920000000 1.0
C      1  0.4807140000000  0.5480370000000  0.5904990000000 1.0
C      1  0.4805030000000  0.5833210000000  0.5576600000000 1.0
C      1  0.5389320000000  0.4885230000000  0.4767930000000 1.0
C      1  0.5222810000000  0.5920000000000  0.5286100000000 1.0
C      1  0.4626050000000  0.5095140000000  0.4167120000000 1.0
C      1  0.4232880000000  0.4821630000000  0.5466680000000 1.0
C      1  0.4874960000000  0.6069490000000  0.4832330000000 1.0
C      1  0.4427630000000  0.5673570000000  0.4589240000000 1.0
C      1  0.5677500000000  0.5247390000000  0.4499560000000 1.0
C      1  0.5754330000000  0.4481810000000  0.4977110000000 1.0
C      1  0.5090260000000  0.5255860000000  0.4140540000000 1.0
C      1  0.5542570000000  0.5747380000000  0.4952080000000 1.0
C      1  0.5373390000000  0.4183440000000  0.4910360000000 1.0
C      1  0.5486870000000  0.5794230000000  0.5236390000000 1.0
C      1  0.4824000000000  0.5475410000000  0.5210410000000 1.0
C      1  0.4542300000000  0.5306030000000  0.5600430000000 1.0
C      1  0.5210440000000  0.5124760000000  0.4679600000000 1.0
C      1  0.4383370000000  0.4817710000000  0.5720830000000 1.0
C      1  0.5842280000000  0.5134820000000  0.4717160000000 1.0
C      1  0.4456980000000  0.4569060000000  0.5827490000000 1.0
C      1  0.5890600000000  0.5317720000000  0.5182670000000 1.0
C      1  0.5015170000000  0.4059790000000  0.5179050000000 1.0
C      1  0.5554820000000  0.4970310000000  0.5011790000000 1.0
C      1  0.4948310000000  0.4800690000000  0.5500360000000 1.0
C      1  0.4991150000000  0.3959060000000  0.4891560000000 1.0
C      1  0.5083330000000  0.4579750000000  0.5358350000000 1.0
C      1  0.4239690000000  0.4449390000000  0.4788910000000 1.0
C      1  0.4594610000000  0.4455710000000  0.4458240000000 1.0
C      1  0.5141300000000  0.4179190000000  0.4730690000000 1.0
C      1  0.4554490000000  0.5050250000000  0.5785330000000 1.0
C      1  0.4652950000000  0.4880090000000  0.3997510000000 1.0
C      1  0.4371160000000  0.5178310000000  0.4228710000000 1.0
C      1  0.4578730000000  0.4280520000000  0.5443060000000 1.0
C      1  0.4580930000000  0.4101480000000  0.4972360000000 1.0
C      1  0.5324820000000  0.4793640000000  0.4218130000000 1.0
C      1  0.4210440000000  0.4585220000000  0.5292140000000 1.0
C      1  0.4176520000000  0.5085330000000  0.5348210000000 1.0
C      1  0.5583590000000  0.4284190000000  0.4525300000000 1.0
C      1  0.5438310000000  0.5611630000000  0.5681860000000 1.0
C      1  0.4244100000000  0.4895730000000  0.4895540000000 1.0
C      1  0.4731610000000  0.5222320000000  0.5354150000000 1.0
C      1  0.5274950000000  0.4209940000000  0.5173700000000 1.0
C      1  0.4942500000000  0.5037240000000  0.4550520000000 1.0
C      1  0.5562310000000  0.4361700000000  0.4796550000000 1.0
C      1  0.4608030000000  0.5792420000000  0.4823330000000 1.0
C      1  0.4350080000000  0.5586640000000  0.5103030000000 1.0
C      1  0.5419320000000  0.5365030000000  0.4606730000000 1.0
C      1  0.4406110000000  0.4888120000000  0.4642370000000 1.0
C      1  0.4765150000000  0.6026080000000  0.5089640000000 1.0
C      1  0.5420330000000  0.4996020000000  0.5279690000000 1.0
C      1  0.5396220000000  0.5107850000000  0.5739130000000 1.0
C      1  0.5865130000000  0.4707700000000  0.5346050000000 1.0
C      1  0.5359300000000  0.4262960000000  0.5625700000000 1.0
C      1  0.4651010000000  0.4409770000000  0.5701440000000 1.0
C      1  0.5753880000000  0.4839480000000  0.5575800000000 1.0
C      1  0.5318210000000  0.5333030000000  0.5118130000000 1.0
C      1  0.5600100000000  0.4809900000000  0.4317060000000 1.0
C      1  0.4555850000000  0.5682530000000  0.5530490000000 1.0
C      1  0.4882930000000  0.4506820000000  0.5098530000000 1.0
C      1  0.5140650000000  0.5231170000000  0.5664620000000 1.0
C      1  0.5003280000000  0.4769750000000  0.5787130000000 1.0
C      1  0.4523540000000  0.5719590000000  0.4311470000000 1.0
C      1  0.5315610000000  0.4834090000000  0.5823950000000 1.0
C      1  0.4353380000000  0.4206480000000  0.4857140000000 1.0
C      1  0.5221540000000  0.4319380000000  0.4241080000000 1.0
C      1  0.4581470000000  0.5660430000000  0.5239090000000 1.0
C      1  0.4929800000000  0.5925580000000  0.5312790000000 1.0
C      1  0.4858460000000  0.5203330000000  0.4323590000000 1.0
C      1  0.4338830000000  0.5152870000000  0.4501470000000 1.0
C      1  0.4964350000000  0.5660870000000  0.5751480000000 1.0
C      1  0.4734320000000  0.4861740000000  0.4699610000000 1.0
C      1  0.4314240000000  0.5104190000000  0.5083060000000 1.0
C      1  0.5306810000000  0.5062490000000  0.4101870000000 1.0
C      1  0.5596510000000  0.5093330000000  0.5511920000000 1.0
C      1  0.5500670000000  0.4679210000000  0.5646410000000 1.0
C      1  0.5311650000000  0.5585040000000  0.4427050000000 1.0
C      1  0.5481060000000  0.4256200000000  0.5369950000000 1.0
C      1  0.4998770000000  0.5067830000000  0.5402230000000 1.0
C      1  0.4288950000000  0.5367880000000  0.4947590000000 1.0
C      1  0.5133800000000  0.5540270000000  0.5294470000000 1.0
C      1  0.5741650000000  0.5348440000000  0.5415870000000 1.0
C      1  0.5790400000000  0.5333620000000  0.4924290000000 1.0
C      1  0.4344010000000  0.4593140000000  0.4544850000000 1.0
C      1  0.4264200000000  0.5290740000000  0.5517520000000 1.0
C      1  0.4723480000000  0.3916190000000  0.4822230000000 1.0
C      1  0.4815120000000  0.4589080000000  0.4605200000000 1.0
C      1  0.4750920000000  0.4231630000000  0.5187570000000 1.0
C      1  0.5692660000000  0.4472240000000  0.5267570000000 1.0
C      1  0.4774240000000  0.4853710000000  0.5010740000000 1.0
C      1  0.4355020000000  0.5393450000000  0.4668130000000 1.0
C      1  0.5036130000000  0.5849270000000  0.4733440000000 1.0
C      1  0.5229320000000  0.4653660000000  0.4812760000000 1.0
C      1  0.4225300000000  0.4636450000000  0.5005790000000 1.0
C      1  0.4996500000000  0.4583040000000  0.3936480000000 1.0
C      1  0.5027520000000  0.4981740000000  0.5100760000000 1.0
C      1  0.4815520000000  0.4989520000000  0.5916710000000 1.0
C      1  0.5316560000000  0.4195690000000  0.4468420000000 1.0
C      1  0.5413280000000  0.5925120000000  0.4771330000000 1.0
C      1  0.5221090000000  0.4553320000000  0.4093630000000 1.0
C      1  0.5151560000000  0.5536390000000  0.4191030000000 1.0
C      1  0.5803940000000  0.4788020000000  0.4974500000000 1.0
C      1  0.4799870000000  0.5486540000000  0.4444800000000 1.0
C      1  0.5653900000000  0.4821340000000  0.4611430000000 1.0
C      1  0.4959810000000  0.5242440000000  0.5900340000000 1.0
C      1  0.4726720000000  0.4616040000000  0.3980850000000 1.0
C      1  0.4879570000000  0.5401350000000  0.4933800000000 1.0
C      1  0.4622000000000  0.4453200000000  0.4179620000000 1.0
C      1  0.5105750000000  0.5213890000000  0.4946370000000 1.0
C      1  0.5653680000000  0.5088080000000  0.4260110000000 1.0
C      1  0.4593260000000  0.5047460000000  0.5156060000000 1.0
C      1  0.5518090000000  0.5455070000000  0.4901730000000 1.0
C      1  0.5585100000000  0.5598000000000  0.5444200000000 1.0
C      1  0.4806990000000  0.5697970000000  0.4229160000000 1.0
C      1  0.5348980000000  0.5854580000000  0.4505740000000 1.0
C      1  0.4931860000000  0.4457240000000  0.5780360000000 1.0
C      1  0.4847140000000  0.5607720000000  0.4729430000000 1.0
C      1  0.4310140000000  0.4340190000000  0.5385740000000 1.0
END
