TITL C-950532-2784-73 -1.81629182173908e-06 125000 -1045.47593085332 0 0 168 (C1) n - 1
REM
REM in /home/bkarasulu/work/CARBON/AIRSS/Generating-Clusters/EDIP-Nigel-Params/with-SteepDescent/Only-C1/SD-CG/HFTN-CG
REM
REM
REM
REM
REM
REM ./C.cell (11c1c37f851c82e70ff6c80c92926a4b)
REM
REM compiler GCC version 9.2.1 20190827 (Red Hat 9.2.1-1)
REM options -cpp -mtune=generic -march=x86-64 -g -O0 -fpre-include=/usr/include/finclude/math-vector-fortran.h
REM seed -402224945 -1275487347 -1278171156 -127267573 1911559081 -77149063 -1680072288 -902783704 102309110 221878703 1549635805 -548710952 1330447249 -114019416 -1165496307 1960414132 108856873 1528973876 -990385589 -1323668080 -1310552107 -1903160977 1685051962 -1469821972 -1216344714 1685261644 147555358 -1215049072 420921958 1024296113 273608990 -2131077128 -1551316053
REM
CELL 1.54180   50.00000   50.00000   50.00000   90.00000   90.00000   90.00000
LATT -1
SFAC C  
C      1  0.4454560000000  0.4668240000000  0.5699050000000 1.0
C      1  0.5409820000000  0.4690630000000  0.4075700000000 1.0
C      1  0.5325040000000  0.3866520000000  0.5225250000000 1.0
C      1  0.5501370000000  0.5087190000000  0.6006330000000 1.0
C      1  0.5446310000000  0.5552300000000  0.5787860000000 1.0
C      1  0.4868430000000  0.4658710000000  0.6098050000000 1.0
C      1  0.5201770000000  0.4392210000000  0.5791570000000 1.0
C      1  0.4704350000000  0.4857920000000  0.5655920000000 1.0
C      1  0.4968810000000  0.4692120000000  0.5445670000000 1.0
C      1  0.5908880000000  0.4592320000000  0.5309850000000 1.0
C      1  0.4530820000000  0.5486510000000  0.4306270000000 1.0
C      1  0.4888200000000  0.5623050000000  0.5146900000000 1.0
C      1  0.5549660000000  0.5814960000000  0.4815750000000 1.0
C      1  0.5386340000000  0.5890820000000  0.5287490000000 1.0
C      1  0.4538740000000  0.4384780000000  0.5607540000000 1.0
C      1  0.5391630000000  0.5996420000000  0.5010690000000 1.0
C      1  0.4033810000000  0.4994970000000  0.5497130000000 1.0
C      1  0.4991720000000  0.5190610000000  0.5305300000000 1.0
C      1  0.4771360000000  0.5874710000000  0.5661610000000 1.0
C      1  0.5345440000000  0.5127000000000  0.4578930000000 1.0
C      1  0.4152570000000  0.5460110000000  0.5469210000000 1.0
C      1  0.6112620000000  0.5194640000000  0.5173280000000 1.0
C      1  0.5969460000000  0.4835570000000  0.4885020000000 1.0
C      1  0.4518300000000  0.5659290000000  0.4823760000000 1.0
C      1  0.5635300000000  0.5208270000000  0.4697150000000 1.0
C      1  0.4367820000000  0.5102390000000  0.5321460000000 1.0
C      1  0.5669180000000  0.5539740000000  0.5602880000000 1.0
C      1  0.4077150000000  0.4897990000000  0.4752150000000 1.0
C      1  0.4932460000000  0.5182360000000  0.4310320000000 1.0
C      1  0.5243580000000  0.4642130000000  0.4998810000000 1.0
C      1  0.4106370000000  0.5403570000000  0.4674790000000 1.0
C      1  0.5149110000000  0.6095560000000  0.4916340000000 1.0
C      1  0.5839700000000  0.5105300000000  0.4485480000000 1.0
C      1  0.4884490000000  0.6019690000000  0.4866350000000 1.0
C      1  0.5721230000000  0.4429920000000  0.4896660000000 1.0
C      1  0.4693740000000  0.4833450000000  0.5126870000000 1.0
C      1  0.4815610000000  0.4399290000000  0.4948430000000 1.0
C      1  0.4057560000000  0.4494240000000  0.5096150000000 1.0
C      1  0.5539730000000  0.4682170000000  0.5367670000000 1.0
C      1  0.4282840000000  0.4612440000000  0.5263730000000 1.0
C      1  0.4202130000000  0.4734650000000  0.5525620000000 1.0
C      1  0.5243560000000  0.4930280000000  0.5051060000000 1.0
C      1  0.4390330000000  0.4311060000000  0.4558160000000 1.0
C      1  0.5362860000000  0.5752800000000  0.4337910000000 1.0
C      1  0.5769000000000  0.5532100000000  0.4534380000000 1.0
C      1  0.5706380000000  0.4969670000000  0.4251810000000 1.0
C      1  0.5163800000000  0.5567500000000  0.5641990000000 1.0
C      1  0.4327550000000  0.5695900000000  0.5530580000000 1.0
C      1  0.5080430000000  0.4977180000000  0.5459990000000 1.0
C      1  0.6003130000000  0.5310380000000  0.4921530000000 1.0
C      1  0.5961100000000  0.5096230000000  0.5410230000000 1.0
C      1  0.4560460000000  0.4455120000000  0.4771460000000 1.0
C      1  0.4762790000000  0.4564030000000  0.5212570000000 1.0
C      1  0.5644770000000  0.5755060000000  0.5390310000000 1.0
C      1  0.4075440000000  0.5546120000000  0.4969910000000 1.0
C      1  0.4113910000000  0.5238680000000  0.5655130000000 1.0
C      1  0.5168440000000  0.3959910000000  0.4994490000000 1.0
C      1  0.4535790000000  0.5291860000000  0.5143220000000 1.0
C      1  0.4399290000000  0.5791020000000  0.4583050000000 1.0
C      1  0.5168320000000  0.6002120000000  0.5466620000000 1.0
C      1  0.4243930000000  0.5568540000000  0.4458510000000 1.0
C      1  0.5517470000000  0.4653860000000  0.4837680000000 1.0
C      1  0.4595530000000  0.4263230000000  0.4319250000000 1.0
C      1  0.4409400000000  0.4854970000000  0.5128980000000 1.0
C      1  0.5244580000000  0.4910560000000  0.3984550000000 1.0
C      1  0.4583810000000  0.5643950000000  0.5712070000000 1.0
C      1  0.5146250000000  0.5058460000000  0.4802410000000 1.0
C      1  0.4782510000000  0.5389680000000  0.5953380000000 1.0
C      1  0.5070470000000  0.4479950000000  0.6022380000000 1.0
C      1  0.4472560000000  0.5115660000000  0.3957910000000 1.0
C      1  0.5727610000000  0.4400810000000  0.4418070000000 1.0
C      1  0.4879780000000  0.4803110000000  0.4669180000000 1.0
C      1  0.5679820000000  0.5114430000000  0.4010070000000 1.0
C      1  0.4405840000000  0.4715010000000  0.5992650000000 1.0
C      1  0.4778910000000  0.4252630000000  0.5655080000000 1.0
C      1  0.5025500000000  0.4557520000000  0.4800480000000 1.0
C      1  0.5332120000000  0.4053570000000  0.4520470000000 1.0
C      1  0.4439530000000  0.5020970000000  0.6015120000000 1.0
C      1  0.5942360000000  0.4572770000000  0.5029380000000 1.0
C      1  0.4297250000000  0.5750520000000  0.5011470000000 1.0
C      1  0.4512960000000  0.4432300000000  0.5322140000000 1.0
C      1  0.5106820000000  0.5468340000000  0.5312810000000 1.0
C      1  0.5059630000000  0.5838500000000  0.5691380000000 1.0
C      1  0.4640310000000  0.5824550000000  0.4432880000000 1.0
C      1  0.4047810000000  0.5378980000000  0.5206710000000 1.0
C      1  0.4692610000000  0.5281530000000  0.4437080000000 1.0
C      1  0.4860860000000  0.4903520000000  0.5931450000000 1.0
C      1  0.4777620000000  0.5915580000000  0.5139670000000 1.0
C      1  0.4828650000000  0.5274940000000  0.4004790000000 1.0
C      1  0.5562150000000  0.4220110000000  0.5033300000000 1.0
C      1  0.5481190000000  0.4250050000000  0.4315350000000 1.0
C      1  0.5153200000000  0.4252170000000  0.5326740000000 1.0
C      1  0.5402790000000  0.5176840000000  0.4003560000000 1.0
C      1  0.4449340000000  0.5352020000000  0.4849250000000 1.0
C      1  0.4023730000000  0.5130940000000  0.4570920000000 1.0
C      1  0.5180830000000  0.5337180000000  0.4420940000000 1.0
C      1  0.4346880000000  0.4971950000000  0.4198940000000 1.0
C      1  0.4634270000000  0.5171170000000  0.4688700000000 1.0
C      1  0.5617010000000  0.5375890000000  0.5104690000000 1.0
C      1  0.5301780000000  0.5073040000000  0.5605680000000 1.0
C      1  0.4704410000000  0.5389660000000  0.5573010000000 1.0
C      1  0.4371820000000  0.4916800000000  0.4829850000000 1.0
C      1  0.4713030000000  0.5122040000000  0.6068630000000 1.0
C      1  0.5332610000000  0.5487500000000  0.5112760000000 1.0
C      1  0.4895550000000  0.6072570000000  0.5360160000000 1.0
C      1  0.5943460000000  0.5551960000000  0.4765920000000 1.0
C      1  0.4882580000000  0.5209930000000  0.4850870000000 1.0
C      1  0.6198310000000  0.4983370000000  0.4997120000000 1.0
C      1  0.4121950000000  0.5084490000000  0.4316220000000 1.0
C      1  0.5417570000000  0.4912300000000  0.5806480000000 1.0
C      1  0.5701310000000  0.4984770000000  0.4925800000000 1.0
C      1  0.4765370000000  0.5021060000000  0.3852540000000 1.0
C      1  0.4602160000000  0.4577650000000  0.6142620000000 1.0
C      1  0.4046760000000  0.4615280000000  0.4634810000000 1.0
C      1  0.4585570000000  0.4518000000000  0.4159420000000 1.0
C      1  0.5003590000000  0.4891550000000  0.4414310000000 1.0
C      1  0.5225970000000  0.4546800000000  0.5299080000000 1.0
C      1  0.3907300000000  0.4903300000000  0.5004970000000 1.0
C      1  0.5034860000000  0.4003160000000  0.4477650000000 1.0
C      1  0.5191700000000  0.4400830000000  0.4592260000000 1.0
C      1  0.3946480000000  0.5100240000000  0.5220010000000 1.0
C      1  0.5397260000000  0.5543810000000  0.4825070000000 1.0
C      1  0.4534550000000  0.5126030000000  0.5593990000000 1.0
C      1  0.5975300000000  0.4839000000000  0.4576120000000 1.0
C      1  0.4694360000000  0.3914040000000  0.4986920000000 1.0
C      1  0.4854060000000  0.4578250000000  0.4054400000000 1.0
C      1  0.5331510000000  0.5417580000000  0.4176850000000 1.0
C      1  0.5972560000000  0.4808350000000  0.5491600000000 1.0
C      1  0.4567270000000  0.4735690000000  0.4649090000000 1.0
C      1  0.5051330000000  0.4230260000000  0.5607830000000 1.0
C      1  0.4787550000000  0.5121750000000  0.5115340000000 1.0
C      1  0.4442260000000  0.4717120000000  0.4335730000000 1.0
C      1  0.5804380000000  0.5609160000000  0.5185180000000 1.0
C      1  0.5127280000000  0.5883670000000  0.4453630000000 1.0
C      1  0.4628020000000  0.3846330000000  0.4726870000000 1.0
C      1  0.5832240000000  0.4306090000000  0.4661190000000 1.0
C      1  0.5053990000000  0.5355350000000  0.5837860000000 1.0
C      1  0.4884230000000  0.5519300000000  0.4846110000000 1.0
C      1  0.5825890000000  0.5762800000000  0.4935480000000 1.0
C      1  0.5584910000000  0.4692980000000  0.5681000000000 1.0
C      1  0.5490160000000  0.4408290000000  0.5743190000000 1.0
C      1  0.4886320000000  0.4210770000000  0.4345570000000 1.0
C      1  0.5029670000000  0.4394620000000  0.4182620000000 1.0
C      1  0.5569370000000  0.4213710000000  0.5551620000000 1.0
C      1  0.4286620000000  0.5220640000000  0.5877120000000 1.0
C      1  0.3825830000000  0.4651880000000  0.5098220000000 1.0
C      1  0.5423110000000  0.4606360000000  0.4557030000000 1.0
C      1  0.5845290000000  0.5297200000000  0.5594460000000 1.0
C      1  0.4897930000000  0.3836160000000  0.4667800000000 1.0
C      1  0.4908270000000  0.4104390000000  0.5059630000000 1.0
C      1  0.4950630000000  0.4845420000000  0.3980390000000 1.0
C      1  0.5522020000000  0.4948040000000  0.5185720000000 1.0
C      1  0.5866400000000  0.4742700000000  0.5742530000000 1.0
C      1  0.5808890000000  0.4687720000000  0.4355780000000 1.0
C      1  0.4124320000000  0.4410500000000  0.4826360000000 1.0
C      1  0.4423950000000  0.5832120000000  0.5270050000000 1.0
C      1  0.5310280000000  0.4433540000000  0.4164860000000 1.0
C      1  0.4871800000000  0.5886600000000  0.4597380000000 1.0
C      1  0.5551920000000  0.5194840000000  0.5358880000000 1.0
C      1  0.5436220000000  0.4133930000000  0.5301900000000 1.0
C      1  0.5141160000000  0.5550750000000  0.4655240000000 1.0
C      1  0.5313520000000  0.4858030000000  0.4411860000000 1.0
C      1  0.5346160000000  0.4135400000000  0.4835150000000 1.0
C      1  0.4542780000000  0.5417920000000  0.4018620000000 1.0
C      1  0.4216370000000  0.4533760000000  0.4411800000000 1.0
C      1  0.4647290000000  0.5518800000000  0.5291100000000 1.0
C      1  0.5341000000000  0.5321740000000  0.5969050000000 1.0
C      1  0.5600380000000  0.5771790000000  0.4505860000000 1.0
END
