TITL C-950536-5891-404 -1.76815859114277e-05 125000 -982.657935868508 0 0 159 (C1) n - 1
REM
REM in /home/bkarasulu/work/CARBON/AIRSS/Generating-Clusters/EDIP-Nigel-Params/with-SteepDescent/Only-C1/SD-CG/HFTN-CG
REM
REM
REM
REM
REM
REM ./C.cell (11c1c37f851c82e70ff6c80c92926a4b)
REM
REM compiler GCC version 9.2.1 20190827 (Red Hat 9.2.1-1)
REM options -cpp -mtune=generic -march=x86-64 -g -O0 -fpre-include=/usr/include/finclude/math-vector-fortran.h
REM seed 2120315856 -1270715456 -1752642012 1486035372 1857626018 1206879949 900885977 1776279767 1398168774 -1544653384 2014815078 1880133442 -1992293331 -1862861738 -790624871 1832959599 1342584457 111864682 -476613344 255948068 -1076899312 1212727336 -1240121684 -2076296993 671930248 1784719651 -1958923610 -2070374047 1828518073 -1416716823 -1029404460 -1068232943 -47660875
REM
CELL 1.54180   50.00000   50.00000   50.00000   90.00000   90.00000   90.00000
LATT -1
SFAC C  
C      1  0.4211180000000  0.4483180000000  0.4676470000000 1.0
C      1  0.5448540000000  0.4873440000000  0.4172130000000 1.0
C      1  0.4766650000000  0.6062240000000  0.5188850000000 1.0
C      1  0.4452110000000  0.4795270000000  0.5857870000000 1.0
C      1  0.6109870000000  0.5129470000000  0.5062500000000 1.0
C      1  0.5734420000000  0.5532900000000  0.5576830000000 1.0
C      1  0.5902410000000  0.4842510000000  0.4380250000000 1.0
C      1  0.5197600000000  0.4891590000000  0.3883350000000 1.0
C      1  0.4898640000000  0.4855450000000  0.5616930000000 1.0
C      1  0.4308700000000  0.5146710000000  0.4818610000000 1.0
C      1  0.4718990000000  0.4173580000000  0.5655130000000 1.0
C      1  0.5821730000000  0.4683860000000  0.5679090000000 1.0
C      1  0.5720340000000  0.4738430000000  0.4162710000000 1.0
C      1  0.5951070000000  0.4970390000000  0.4884920000000 1.0
C      1  0.5336910000000  0.3992990000000  0.5287760000000 1.0
C      1  0.5720070000000  0.4970320000000  0.5686420000000 1.0
C      1  0.5125690000000  0.5270290000000  0.5428600000000 1.0
C      1  0.5933090000000  0.4727760000000  0.5385640000000 1.0
C      1  0.5917010000000  0.5493150000000  0.5365520000000 1.0
C      1  0.5507900000000  0.5157540000000  0.4489560000000 1.0
C      1  0.5341580000000  0.5242070000000  0.5178260000000 1.0
C      1  0.5367000000000  0.4531320000000  0.5845390000000 1.0
C      1  0.4758010000000  0.5132410000000  0.5225710000000 1.0
C      1  0.4442260000000  0.4120630000000  0.5634140000000 1.0
C      1  0.4292110000000  0.4942080000000  0.5043550000000 1.0
C      1  0.4684950000000  0.4110870000000  0.4680490000000 1.0
C      1  0.4477970000000  0.5164580000000  0.4200470000000 1.0
C      1  0.4978000000000  0.5325470000000  0.5735990000000 1.0
C      1  0.5522610000000  0.5169020000000  0.4182660000000 1.0
C      1  0.4072560000000  0.4938190000000  0.4503130000000 1.0
C      1  0.5887950000000  0.5655990000000  0.5119330000000 1.0
C      1  0.5901240000000  0.4440720000000  0.4724340000000 1.0
C      1  0.4585370000000  0.6018380000000  0.4957750000000 1.0
C      1  0.4621640000000  0.5651090000000  0.5070270000000 1.0
C      1  0.3916780000000  0.5340010000000  0.5150850000000 1.0
C      1  0.4593270000000  0.5521290000000  0.5835950000000 1.0
C      1  0.3968860000000  0.4739950000000  0.5236280000000 1.0
C      1  0.5582640000000  0.4143240000000  0.5302570000000 1.0
C      1  0.4672020000000  0.5670210000000  0.5381020000000 1.0
C      1  0.4477490000000  0.5375720000000  0.4868180000000 1.0
C      1  0.5285210000000  0.4705350000000  0.5310200000000 1.0
C      1  0.4794010000000  0.5095660000000  0.5745620000000 1.0
C      1  0.6010320000000  0.5214710000000  0.5316000000000 1.0
C      1  0.5180070000000  0.4833780000000  0.6176260000000 1.0
C      1  0.5129550000000  0.5155340000000  0.3983240000000 1.0
C      1  0.5436240000000  0.4990970000000  0.5771160000000 1.0
C      1  0.5545350000000  0.4130750000000  0.4841190000000 1.0
C      1  0.4056470000000  0.5192190000000  0.4662000000000 1.0
C      1  0.5041930000000  0.5754510000000  0.5691650000000 1.0
C      1  0.4070280000000  0.5686860000000  0.4558290000000 1.0
C      1  0.4178210000000  0.5838030000000  0.5177790000000 1.0
C      1  0.4832810000000  0.4441590000000  0.4973110000000 1.0
C      1  0.5044710000000  0.4356510000000  0.4367360000000 1.0
C      1  0.4665580000000  0.5028210000000  0.4582790000000 1.0
C      1  0.4815610000000  0.4742010000000  0.4195960000000 1.0
C      1  0.5336190000000  0.5984540000000  0.4777620000000 1.0
C      1  0.5518580000000  0.4771030000000  0.4676160000000 1.0
C      1  0.5378760000000  0.4785060000000  0.5985160000000 1.0
C      1  0.4875740000000  0.4630340000000  0.4732540000000 1.0
C      1  0.5559410000000  0.4437290000000  0.5368630000000 1.0
C      1  0.4613020000000  0.4746670000000  0.4690400000000 1.0
C      1  0.4816490000000  0.5505150000000  0.4552890000000 1.0
C      1  0.5220100000000  0.4809980000000  0.5024590000000 1.0
C      1  0.4145610000000  0.5542360000000  0.5211490000000 1.0
C      1  0.5216460000000  0.4936560000000  0.5533140000000 1.0
C      1  0.5908900000000  0.4376350000000  0.5014070000000 1.0
C      1  0.5688720000000  0.4162610000000  0.4589820000000 1.0
C      1  0.4849990000000  0.5651950000000  0.5888090000000 1.0
C      1  0.4900990000000  0.5224240000000  0.4983990000000 1.0
C      1  0.4910990000000  0.5740090000000  0.4699560000000 1.0
C      1  0.4565420000000  0.4039330000000  0.5154340000000 1.0
C      1  0.5159880000000  0.5299020000000  0.5978390000000 1.0
C      1  0.5313720000000  0.4802900000000  0.4447700000000 1.0
C      1  0.4969210000000  0.4008790000000  0.4721040000000 1.0
C      1  0.5590770000000  0.5774670000000  0.5073700000000 1.0
C      1  0.5474140000000  0.4322970000000  0.4174350000000 1.0
C      1  0.4128930000000  0.4642630000000  0.5451310000000 1.0
C      1  0.4984090000000  0.5633490000000  0.5429220000000 1.0
C      1  0.4619700000000  0.4293080000000  0.4473280000000 1.0
C      1  0.5022670000000  0.4636190000000  0.4469050000000 1.0
C      1  0.5487490000000  0.5509670000000  0.5703960000000 1.0
C      1  0.4648350000000  0.5499450000000  0.4092580000000 1.0
C      1  0.5463930000000  0.4144570000000  0.4406500000000 1.0
C      1  0.4726930000000  0.5280800000000  0.4747590000000 1.0
C      1  0.4588850000000  0.4622820000000  0.4060360000000 1.0
C      1  0.4410730000000  0.4768490000000  0.5472660000000 1.0
C      1  0.5564230000000  0.5028490000000  0.5190520000000 1.0
C      1  0.5046500000000  0.3997620000000  0.5035650000000 1.0
C      1  0.4162540000000  0.4737380000000  0.5739770000000 1.0
C      1  0.4586530000000  0.5562150000000  0.4364150000000 1.0
C      1  0.5709420000000  0.4463080000000  0.4108630000000 1.0
C      1  0.4911040000000  0.4009170000000  0.5503700000000 1.0
C      1  0.3918220000000  0.4848110000000  0.4966010000000 1.0
C      1  0.4824440000000  0.3926720000000  0.5225770000000 1.0
C      1  0.4457210000000  0.4538080000000  0.4505310000000 1.0
C      1  0.4470850000000  0.4707540000000  0.4966850000000 1.0
C      1  0.4715860000000  0.4649560000000  0.5755960000000 1.0
C      1  0.5108580000000  0.5091910000000  0.6158220000000 1.0
C      1  0.4382780000000  0.4652680000000  0.4242510000000 1.0
C      1  0.5086840000000  0.4302740000000  0.5059930000000 1.0
C      1  0.5315960000000  0.5726970000000  0.5743560000000 1.0
C      1  0.4309700000000  0.5927210000000  0.4934690000000 1.0
C      1  0.5799240000000  0.5016870000000  0.5388100000000 1.0
C      1  0.5198600000000  0.4423140000000  0.4121030000000 1.0
C      1  0.4324380000000  0.5973430000000  0.5379080000000 1.0
C      1  0.4116710000000  0.5428110000000  0.4475000000000 1.0
C      1  0.5834810000000  0.4730450000000  0.4659130000000 1.0
C      1  0.5186260000000  0.5137990000000  0.4931870000000 1.0
C      1  0.4890980000000  0.5623820000000  0.4029510000000 1.0
C      1  0.4402430000000  0.5034290000000  0.5318380000000 1.0
C      1  0.4995670000000  0.5170510000000  0.4244110000000 1.0
C      1  0.5595120000000  0.5845460000000  0.4768860000000 1.0
C      1  0.5161170000000  0.5834620000000  0.4597530000000 1.0
C      1  0.5017870000000  0.5867650000000  0.5164780000000 1.0
C      1  0.4241270000000  0.5463330000000  0.5478750000000 1.0
C      1  0.4695390000000  0.4639710000000  0.5174020000000 1.0
C      1  0.4023910000000  0.4716850000000  0.4696330000000 1.0
C      1  0.4175820000000  0.5183930000000  0.5473580000000 1.0
C      1  0.5118670000000  0.4393460000000  0.5834610000000 1.0
C      1  0.4393070000000  0.4073110000000  0.5372240000000 1.0
C      1  0.6022160000000  0.5440450000000  0.4612950000000 1.0
C      1  0.5190610000000  0.4182550000000  0.4559560000000 1.0
C      1  0.5285530000000  0.5319950000000  0.4636160000000 1.0
C      1  0.5662830000000  0.5062710000000  0.4896010000000 1.0
C      1  0.5127670000000  0.4424470000000  0.5335000000000 1.0
C      1  0.5581210000000  0.5573310000000  0.4622070000000 1.0
C      1  0.5292140000000  0.5966090000000  0.5074070000000 1.0
C      1  0.5359310000000  0.5321130000000  0.4006210000000 1.0
C      1  0.5112150000000  0.5628470000000  0.4207630000000 1.0
C      1  0.5392030000000  0.4626410000000  0.4884050000000 1.0
C      1  0.5478880000000  0.5488670000000  0.5078200000000 1.0
C      1  0.5658930000000  0.5382260000000  0.4860430000000 1.0
C      1  0.4834790000000  0.4387570000000  0.5819960000000 1.0
C      1  0.4517620000000  0.5498360000000  0.5557540000000 1.0
C      1  0.4588960000000  0.4241900000000  0.4933120000000 1.0
C      1  0.5182520000000  0.5874030000000  0.4321030000000 1.0
C      1  0.4602750000000  0.5962060000000  0.5422940000000 1.0
C      1  0.4337010000000  0.4430210000000  0.4934620000000 1.0
C      1  0.4264540000000  0.4919700000000  0.4266960000000 1.0
C      1  0.5599020000000  0.4488130000000  0.5661220000000 1.0
C      1  0.4402420000000  0.5352940000000  0.4432700000000 1.0
C      1  0.5072670000000  0.4682570000000  0.4029660000000 1.0
C      1  0.3909370000000  0.5160680000000  0.5373440000000 1.0
C      1  0.5779080000000  0.4559740000000  0.5206930000000 1.0
C      1  0.5808600000000  0.5526200000000  0.4444380000000 1.0
C      1  0.5064170000000  0.5405820000000  0.4409150000000 1.0
C      1  0.3873670000000  0.5158090000000  0.4910430000000 1.0
C      1  0.4475240000000  0.5328420000000  0.6009290000000 1.0
C      1  0.5741510000000  0.4131490000000  0.5058130000000 1.0
C      1  0.4903890000000  0.5667790000000  0.4973130000000 1.0
C      1  0.5308780000000  0.4341580000000  0.4851530000000 1.0
C      1  0.5419390000000  0.5277030000000  0.5865020000000 1.0
C      1  0.6018460000000  0.5526600000000  0.4889440000000 1.0
C      1  0.4175240000000  0.5887520000000  0.4696190000000 1.0
C      1  0.5826060000000  0.5146210000000  0.4504340000000 1.0
C      1  0.4744200000000  0.5027620000000  0.4291320000000 1.0
C      1  0.4815630000000  0.4867920000000  0.5323720000000 1.0
C      1  0.5173000000000  0.4150210000000  0.5470810000000 1.0
C      1  0.4547560000000  0.5083130000000  0.5890280000000 1.0
END
