TITL C-951348-1603-136 -5.931620259813e-06 125000 -690.831888060722 0 0 111 (C1) n - 1
REM
REM in /home/bkarasulu/work/CARBON/AIRSS/Generating-Clusters/EDIP-Nigel-Params/with-SteepDescent/Only-C1/SD-CG/HFTN-CG
REM
REM
REM
REM
REM
REM ./C.cell (11c1c37f851c82e70ff6c80c92926a4b)
REM
REM compiler GCC version 9.2.1 20190827 (Red Hat 9.2.1-1)
REM options -cpp -mtune=generic -march=x86-64 -g -O0 -fpre-include=/usr/include/finclude/math-vector-fortran.h
REM seed 828667732 -1810358054 -1091570927 -868760779 762286935 -1010084071 -305889083 1579569269 -75907383 1346773904 786386724 1695173492 -727129323 1592738812 522301348 918458582 139762582 -37816797 1093721361 -935727174 -1907046592 318366336 1979476868 -1912478676 -862102334 -918605427 -1822135614 -1777274602 1924614774 2139259194 -88462692 484128032 -1370480192
REM
CELL 1.54180   50.00000   50.00000   50.00000   90.00000   90.00000   90.00000
LATT -1
SFAC C  
C      1  0.4727490000000  0.5240800000000  0.5775710000000 1.0
C      1  0.4850240000000  0.5792440000000  0.4556310000000 1.0
C      1  0.5865830000000  0.4604160000000  0.5407680000000 1.0
C      1  0.5539560000000  0.5225660000000  0.4309050000000 1.0
C      1  0.5014130000000  0.5587900000000  0.5132450000000 1.0
C      1  0.5126020000000  0.4149230000000  0.4535660000000 1.0
C      1  0.5096740000000  0.5273230000000  0.4080400000000 1.0
C      1  0.4575870000000  0.4196240000000  0.5342520000000 1.0
C      1  0.4947920000000  0.4551430000000  0.5673590000000 1.0
C      1  0.5188400000000  0.5268800000000  0.5485050000000 1.0
C      1  0.4693890000000  0.5284680000000  0.5389110000000 1.0
C      1  0.4743570000000  0.4409970000000  0.4623490000000 1.0
C      1  0.4700780000000  0.5094560000000  0.4330870000000 1.0
C      1  0.4380160000000  0.4271640000000  0.4838380000000 1.0
C      1  0.5375710000000  0.4332760000000  0.5538890000000 1.0
C      1  0.5169910000000  0.5992960000000  0.5362130000000 1.0
C      1  0.4957190000000  0.5415110000000  0.5851620000000 1.0
C      1  0.4701380000000  0.5852340000000  0.5326890000000 1.0
C      1  0.4769510000000  0.4507430000000  0.4343030000000 1.0
C      1  0.4988620000000  0.5266680000000  0.4737310000000 1.0
C      1  0.5357750000000  0.5143870000000  0.4089750000000 1.0
C      1  0.4600300000000  0.4592390000000  0.4825500000000 1.0
C      1  0.4152030000000  0.5289370000000  0.5159410000000 1.0
C      1  0.4573840000000  0.5350240000000  0.4981590000000 1.0
C      1  0.5536150000000  0.4577130000000  0.4343730000000 1.0
C      1  0.4884030000000  0.5070640000000  0.4081770000000 1.0
C      1  0.4656530000000  0.4600210000000  0.5619920000000 1.0
C      1  0.5301540000000  0.5486160000000  0.5055920000000 1.0
C      1  0.4421700000000  0.5378020000000  0.5495750000000 1.0
C      1  0.4364790000000  0.5378900000000  0.4751180000000 1.0
C      1  0.4694220000000  0.5749860000000  0.4794160000000 1.0
C      1  0.4780440000000  0.4995820000000  0.5477460000000 1.0
C      1  0.5147490000000  0.5800410000000  0.4584950000000 1.0
C      1  0.5857510000000  0.4686980000000  0.4730720000000 1.0
C      1  0.4349180000000  0.5437670000000  0.4475990000000 1.0
C      1  0.4951560000000  0.5451170000000  0.5404650000000 1.0
C      1  0.5240060000000  0.4971740000000  0.5871610000000 1.0
C      1  0.4600060000000  0.5378290000000  0.4373000000000 1.0
C      1  0.5542780000000  0.4258420000000  0.5274260000000 1.0
C      1  0.5436030000000  0.5406860000000  0.5332900000000 1.0
C      1  0.5085810000000  0.4986520000000  0.5415220000000 1.0
C      1  0.5225030000000  0.4549580000000  0.5186870000000 1.0
C      1  0.5664470000000  0.4755520000000  0.5524340000000 1.0
C      1  0.5212950000000  0.5263070000000  0.5787230000000 1.0
C      1  0.4795600000000  0.5591960000000  0.4339660000000 1.0
C      1  0.5268490000000  0.5643870000000  0.4373050000000 1.0
C      1  0.5724340000000  0.5044410000000  0.4444760000000 1.0
C      1  0.5692400000000  0.5031630000000  0.5515030000000 1.0
C      1  0.5252730000000  0.4980200000000  0.5064030000000 1.0
C      1  0.5005920000000  0.4323710000000  0.4727340000000 1.0
C      1  0.5225600000000  0.5232750000000  0.4904790000000 1.0
C      1  0.4230280000000  0.4514840000000  0.5385150000000 1.0
C      1  0.5290980000000  0.4461160000000  0.4267460000000 1.0
C      1  0.4461080000000  0.4910230000000  0.4315340000000 1.0
C      1  0.5901610000000  0.5149020000000  0.4651650000000 1.0
C      1  0.4468620000000  0.4411120000000  0.5494130000000 1.0
C      1  0.5739480000000  0.5105880000000  0.5058150000000 1.0
C      1  0.4703060000000  0.5797800000000  0.5608290000000 1.0
C      1  0.5163900000000  0.4786490000000  0.5633220000000 1.0
C      1  0.5634990000000  0.5566540000000  0.4687790000000 1.0
C      1  0.4087410000000  0.4629920000000  0.5176960000000 1.0
C      1  0.4826480000000  0.5497720000000  0.4892390000000 1.0
C      1  0.4971150000000  0.5880700000000  0.5200350000000 1.0
C      1  0.4755370000000  0.4024580000000  0.5041390000000 1.0
C      1  0.5306010000000  0.5916480000000  0.4784770000000 1.0
C      1  0.5140910000000  0.4908820000000  0.6127920000000 1.0
C      1  0.5536690000000  0.4894160000000  0.5029160000000 1.0
C      1  0.5045790000000  0.4640300000000  0.4289290000000 1.0
C      1  0.4231330000000  0.5159960000000  0.5511190000000 1.0
C      1  0.4302340000000  0.4935780000000  0.5655000000000 1.0
C      1  0.5439970000000  0.4459400000000  0.4816430000000 1.0
C      1  0.5054550000000  0.5498890000000  0.4253000000000 1.0
C      1  0.4519520000000  0.4805310000000  0.5773930000000 1.0
C      1  0.5387660000000  0.4641250000000  0.5486820000000 1.0
C      1  0.5324150000000  0.4885540000000  0.3979690000000 1.0
C      1  0.4551110000000  0.4216860000000  0.5060250000000 1.0
C      1  0.5063230000000  0.4315850000000  0.5526930000000 1.0
C      1  0.5682190000000  0.5230350000000  0.5321500000000 1.0
C      1  0.5819190000000  0.5378870000000  0.4798570000000 1.0
C      1  0.4302820000000  0.5527770000000  0.5273200000000 1.0
C      1  0.5170130000000  0.4593850000000  0.4744970000000 1.0
C      1  0.5051980000000  0.4825010000000  0.4051160000000 1.0
C      1  0.5084120000000  0.4737790000000  0.4994860000000 1.0
C      1  0.4667600000000  0.4895020000000  0.4773050000000 1.0
C      1  0.5385860000000  0.4240410000000  0.5015190000000 1.0
C      1  0.4142950000000  0.5237970000000  0.4871630000000 1.0
C      1  0.4743650000000  0.4614430000000  0.5111410000000 1.0
C      1  0.4975930000000  0.4383690000000  0.5237480000000 1.0
C      1  0.5398120000000  0.5897760000000  0.5464710000000 1.0
C      1  0.5500920000000  0.5651580000000  0.5464320000000 1.0
C      1  0.4187100000000  0.4474930000000  0.4833540000000 1.0
C      1  0.4130690000000  0.4961490000000  0.4756910000000 1.0
C      1  0.5989170000000  0.4932330000000  0.4820290000000 1.0
C      1  0.5001700000000  0.4174400000000  0.5013980000000 1.0
C      1  0.4656520000000  0.5054570000000  0.5013380000000 1.0
C      1  0.4929800000000  0.5634630000000  0.5640430000000 1.0
C      1  0.4696050000000  0.4985270000000  0.5911710000000 1.0
C      1  0.4873890000000  0.4888270000000  0.6104070000000 1.0
C      1  0.4543950000000  0.4651610000000  0.4264290000000 1.0
C      1  0.5095280000000  0.4802180000000  0.4530620000000 1.0
C      1  0.4517790000000  0.5702250000000  0.5140510000000 1.0
C      1  0.4873710000000  0.5012080000000  0.4589470000000 1.0
C      1  0.5258530000000  0.4187450000000  0.4305850000000 1.0
C      1  0.5722510000000  0.4751230000000  0.4467610000000 1.0
C      1  0.4245600000000  0.4943890000000  0.4496170000000 1.0
C      1  0.5743730000000  0.4468010000000  0.5194830000000 1.0
C      1  0.4198940000000  0.4738520000000  0.4935880000000 1.0
C      1  0.5502480000000  0.5487130000000  0.4436750000000 1.0
C      1  0.4650230000000  0.4872190000000  0.5237100000000 1.0
C      1  0.5648510000000  0.4624680000000  0.4944020000000 1.0
C      1  0.5456430000000  0.5698370000000  0.4887210000000 1.0
END
