TITL C-951347-9520-606 -3.78004601533808e-06 125000 -705.659772546005 0 0 113 (C1) n - 1
REM
REM in /home/bkarasulu/work/CARBON/AIRSS/Generating-Clusters/EDIP-Nigel-Params/with-SteepDescent/Only-C1/SD-CG/HFTN-CG
REM
REM
REM
REM
REM
REM ./C.cell (11c1c37f851c82e70ff6c80c92926a4b)
REM
REM compiler GCC version 9.2.1 20190827 (Red Hat 9.2.1-1)
REM options -cpp -mtune=generic -march=x86-64 -g -O0 -fpre-include=/usr/include/finclude/math-vector-fortran.h
REM seed 2087901870 -105103697 -54088125 -2057398907 355476510 -1712803407 1311494580 -1743239 1930536099 -1817244037 876991351 539043112 122241675 -1371869081 -1037588996 -2097252562 403128604 -1055337374 131407093 903720578 -375407548 1841989586 -1290918594 -270794157 1137486804 810757704 -757331045 1630897248 349977735 -309634363 -1163494468 1979554333 1491791497
REM
CELL 1.54180   50.00000   50.00000   50.00000   90.00000   90.00000   90.00000
LATT -1
SFAC C  
C      1  0.5474790000000  0.4313130000000  0.5305480000000 1.0
C      1  0.4164110000000  0.5129820000000  0.5406770000000 1.0
C      1  0.5485220000000  0.4814080000000  0.5516680000000 1.0
C      1  0.4937360000000  0.5628500000000  0.5820820000000 1.0
C      1  0.5102330000000  0.5895890000000  0.5189330000000 1.0
C      1  0.5026430000000  0.4485030000000  0.4588550000000 1.0
C      1  0.4586110000000  0.5079860000000  0.5201490000000 1.0
C      1  0.4155280000000  0.4854750000000  0.5456080000000 1.0
C      1  0.5187980000000  0.4305900000000  0.5371120000000 1.0
C      1  0.4517740000000  0.4411050000000  0.4557990000000 1.0
C      1  0.5219940000000  0.5764680000000  0.4958830000000 1.0
C      1  0.4693810000000  0.5686460000000  0.5638240000000 1.0
C      1  0.4926060000000  0.4886910000000  0.3995500000000 1.0
C      1  0.5215890000000  0.5860680000000  0.5446110000000 1.0
C      1  0.5660710000000  0.4492070000000  0.5446020000000 1.0
C      1  0.5407800000000  0.5502790000000  0.5628310000000 1.0
C      1  0.4732660000000  0.4893190000000  0.4746760000000 1.0
C      1  0.4991650000000  0.5593360000000  0.4259470000000 1.0
C      1  0.4752800000000  0.5765060000000  0.4345170000000 1.0
C      1  0.4444700000000  0.5720070000000  0.5043210000000 1.0
C      1  0.4793950000000  0.4884310000000  0.5914650000000 1.0
C      1  0.4959090000000  0.5346110000000  0.5967090000000 1.0
C      1  0.4677210000000  0.4117460000000  0.4963000000000 1.0
C      1  0.4806700000000  0.5874160000000  0.4618810000000 1.0
C      1  0.5343830000000  0.4784180000000  0.5027560000000 1.0
C      1  0.5028270000000  0.4613330000000  0.4021390000000 1.0
C      1  0.5400480000000  0.4844610000000  0.4745930000000 1.0
C      1  0.4467680000000  0.5813340000000  0.4761660000000 1.0
C      1  0.4636240000000  0.5300330000000  0.4261780000000 1.0
C      1  0.4389430000000  0.4932990000000  0.4476400000000 1.0
C      1  0.4800900000000  0.5243610000000  0.5575860000000 1.0
C      1  0.5127900000000  0.5260290000000  0.4633680000000 1.0
C      1  0.5839020000000  0.4668610000000  0.5291580000000 1.0
C      1  0.5629420000000  0.5026090000000  0.5669560000000 1.0
C      1  0.4498510000000  0.4887560000000  0.4957620000000 1.0
C      1  0.5162220000000  0.4767130000000  0.4566880000000 1.0
C      1  0.4815750000000  0.5393980000000  0.5159310000000 1.0
C      1  0.5884350000000  0.4946410000000  0.5395310000000 1.0
C      1  0.4533630000000  0.5560340000000  0.4353280000000 1.0
C      1  0.5757020000000  0.5427720000000  0.4526420000000 1.0
C      1  0.5271760000000  0.4578170000000  0.4184340000000 1.0
C      1  0.5029060000000  0.4274980000000  0.4958600000000 1.0
C      1  0.4928500000000  0.4998980000000  0.4934650000000 1.0
C      1  0.4473810000000  0.4282500000000  0.4837740000000 1.0
C      1  0.5863420000000  0.4610850000000  0.5006660000000 1.0
C      1  0.4667490000000  0.4406070000000  0.5349360000000 1.0
C      1  0.5572110000000  0.5429320000000  0.4740840000000 1.0
C      1  0.5007490000000  0.5280330000000  0.4930210000000 1.0
C      1  0.4512530000000  0.5035810000000  0.4235950000000 1.0
C      1  0.4766200000000  0.4981600000000  0.5441970000000 1.0
C      1  0.4249290000000  0.5105380000000  0.4666360000000 1.0
C      1  0.4176010000000  0.4656920000000  0.4773610000000 1.0
C      1  0.5052330000000  0.5089180000000  0.4178690000000 1.0
C      1  0.5018210000000  0.4084690000000  0.5293590000000 1.0
C      1  0.5686540000000  0.4735170000000  0.4690160000000 1.0
C      1  0.4351590000000  0.4525520000000  0.4974470000000 1.0
C      1  0.5188460000000  0.4765530000000  0.5603350000000 1.0
C      1  0.4784860000000  0.4488270000000  0.4126760000000 1.0
C      1  0.4322130000000  0.4648590000000  0.4515240000000 1.0
C      1  0.4705980000000  0.5170760000000  0.5996000000000 1.0
C      1  0.4892370000000  0.5338730000000  0.4135960000000 1.0
C      1  0.5345430000000  0.5124480000000  0.4125720000000 1.0
C      1  0.5431090000000  0.4304180000000  0.4580800000000 1.0
C      1  0.4552550000000  0.5417560000000  0.5582090000000 1.0
C      1  0.4720050000000  0.5680660000000  0.5143540000000 1.0
C      1  0.5052100000000  0.5737900000000  0.4715950000000 1.0
C      1  0.4787120000000  0.4396450000000  0.4398930000000 1.0
C      1  0.5849000000000  0.4985440000000  0.4688360000000 1.0
C      1  0.4005330000000  0.4681860000000  0.5289730000000 1.0
C      1  0.4778700000000  0.5824570000000  0.5390120000000 1.0
C      1  0.5491990000000  0.4770310000000  0.4162560000000 1.0
C      1  0.5503980000000  0.4947410000000  0.5215270000000 1.0
C      1  0.5063370000000  0.4799200000000  0.5103460000000 1.0
C      1  0.5752750000000  0.5084680000000  0.4951520000000 1.0
C      1  0.5527090000000  0.4265070000000  0.5022060000000 1.0
C      1  0.4349060000000  0.5355880000000  0.4771680000000 1.0
C      1  0.5006270000000  0.5390210000000  0.5411840000000 1.0
C      1  0.5305920000000  0.4249340000000  0.4836050000000 1.0
C      1  0.4374230000000  0.4708740000000  0.5593050000000 1.0
C      1  0.5657630000000  0.5607910000000  0.5212220000000 1.0
C      1  0.4648560000000  0.4842630000000  0.4067630000000 1.0
C      1  0.4380250000000  0.5283520000000  0.5300480000000 1.0
C      1  0.5184570000000  0.5160860000000  0.5885410000000 1.0
C      1  0.5856390000000  0.5414520000000  0.5251080000000 1.0
C      1  0.5529090000000  0.5015570000000  0.4319980000000 1.0
C      1  0.5763400000000  0.5150090000000  0.4454100000000 1.0
C      1  0.4140400000000  0.4931710000000  0.4861540000000 1.0
C      1  0.5091590000000  0.4487390000000  0.5575340000000 1.0
C      1  0.5136580000000  0.5541380000000  0.4516490000000 1.0
C      1  0.4774390000000  0.4596530000000  0.4786040000000 1.0
C      1  0.4310360000000  0.5451110000000  0.5049050000000 1.0
C      1  0.5287160000000  0.4333550000000  0.4337690000000 1.0
C      1  0.5135090000000  0.5610710000000  0.5589690000000 1.0
C      1  0.5897600000000  0.5148340000000  0.5187910000000 1.0
C      1  0.4998630000000  0.5012830000000  0.4488620000000 1.0
C      1  0.5439280000000  0.5549890000000  0.5002390000000 1.0
C      1  0.5712940000000  0.4361380000000  0.4606980000000 1.0
C      1  0.4386230000000  0.4455760000000  0.5438010000000 1.0
C      1  0.4672520000000  0.4772760000000  0.5650870000000 1.0
C      1  0.5774250000000  0.4358750000000  0.4894030000000 1.0
C      1  0.4804940000000  0.4505350000000  0.5586920000000 1.0
C      1  0.4733730000000  0.4129990000000  0.5249790000000 1.0
C      1  0.5409290000000  0.5168920000000  0.4714120000000 1.0
C      1  0.4194600000000  0.4479180000000  0.5222620000000 1.0
C      1  0.5236520000000  0.5192940000000  0.5358900000000 1.0
C      1  0.5435630000000  0.5235290000000  0.5748440000000 1.0
C      1  0.5059820000000  0.4926200000000  0.5377080000000 1.0
C      1  0.4382310000000  0.5586570000000  0.4602350000000 1.0
C      1  0.5278250000000  0.5291920000000  0.5071120000000 1.0
C      1  0.5554910000000  0.5700800000000  0.5463830000000 1.0
C      1  0.5094900000000  0.4886210000000  0.5869920000000 1.0
C      1  0.4895090000000  0.4542300000000  0.5060270000000 1.0
C      1  0.4491950000000  0.5280020000000  0.5832100000000 1.0
END
