TITL C-950531-5884-704 8.13292537047625e-07 125000 -131.153983391162 0 0 24 (C1) n - 1
REM
REM in /home/bkarasulu/work/CARBON/AIRSS/Generating-Clusters/EDIP-Nigel-Params/with-SteepDescent/Only-C1/SD-CG/HFTN-CG
REM
REM
REM
REM
REM
REM ./C.cell (11c1c37f851c82e70ff6c80c92926a4b)
REM
REM compiler GCC version 9.2.1 20190827 (Red Hat 9.2.1-1)
REM options -cpp -mtune=generic -march=x86-64 -g -O0 -fpre-include=/usr/include/finclude/math-vector-fortran.h
REM seed 993773131 -1821657684 -336749778 129790658 1048006455 -630871669 95584095 242997412 -1674008414 1192266685 -985877278 -1978975303 1747583672 1227177239 -1477181896 425084541 -2007500812 -1421382009 1964241848 1310739068 1612901506 158962747 1027686099 -1337622949 315680929 -1675975367 -1673454596 1237576642 -1696682365 -855975834 -491636289 1517334422 -1560083562
REM
CELL 1.54180   50.00000   50.00000   50.00000   90.00000   90.00000   90.00000
LATT -1
SFAC C  
C      1  0.5591690000000  0.5163330000000  0.4295710000000 1.0
C      1  0.4992770000000  0.4896280000000  0.5173880000000 1.0
C      1  0.4558150000000  0.4952450000000  0.4944530000000 1.0
C      1  0.4655700000000  0.5209250000000  0.5332340000000 1.0
C      1  0.4999510000000  0.4873520000000  0.4579910000000 1.0
C      1  0.5334860000000  0.4584530000000  0.5161300000000 1.0
C      1  0.4724860000000  0.5008080000000  0.5157550000000 1.0
C      1  0.5090790000000  0.4660920000000  0.5016810000000 1.0
C      1  0.5088420000000  0.5005020000000  0.4340030000000 1.0
C      1  0.4555900000000  0.5534680000000  0.5668350000000 1.0
C      1  0.4741450000000  0.4508590000000  0.4702210000000 1.0
C      1  0.4396390000000  0.5704690000000  0.5774160000000 1.0
C      1  0.5172030000000  0.5146480000000  0.5575620000000 1.0
C      1  0.5588180000000  0.4858200000000  0.5054570000000 1.0
C      1  0.5445050000000  0.4816430000000  0.5312280000000 1.0
C      1  0.5204550000000  0.4980500000000  0.5356060000000 1.0
C      1  0.4734280000000  0.4750050000000  0.4589260000000 1.0
C      1  0.5345580000000  0.5099430000000  0.4327820000000 1.0
C      1  0.4524050000000  0.4911120000000  0.4680500000000 1.0
C      1  0.4907260000000  0.5111870000000  0.4180050000000 1.0
C      1  0.5193220000000  0.4734450000000  0.4748300000000 1.0
C      1  0.4976980000000  0.5307340000000  0.5660780000000 1.0
C      1  0.5451310000000  0.4829390000000  0.4812580000000 1.0
C      1  0.4727010000000  0.5353400000000  0.5555400000000 1.0
END
