TITL C-950528-5794-340 1.54092682006565e-07 125000 -700.477151163076 0 0 113 (C1) n - 1
REM
REM in /home/bkarasulu/work/CARBON/AIRSS/Generating-Clusters/EDIP-Nigel-Params/with-SteepDescent/Only-C1/SD-CG/HFTN-CG
REM
REM
REM
REM
REM
REM ./C.cell (11c1c37f851c82e70ff6c80c92926a4b)
REM
REM compiler GCC version 9.2.1 20190827 (Red Hat 9.2.1-1)
REM options -cpp -mtune=generic -march=x86-64 -g -O0 -fpre-include=/usr/include/finclude/math-vector-fortran.h
REM seed 1891573796 -1264229824 -337151508 -288769307 20406793 -1595871718 -119707488 619529794 1149735920 1735884133 1150041233 1483125733 1915807741 413623407 -1210955977 -952740601 -1739967321 -152160326 818275197 -424996244 -1191358629 -1253847592 -2108978724 -556201116 -1492965109 754117573 480148626 -1586740990 -869707594 1079105478 -147911796 1941653950 -1670878622
REM
CELL 1.54180   50.00000   50.00000   50.00000   90.00000   90.00000   90.00000
LATT -1
SFAC C  
C      1  0.4827830000000  0.5737580000000  0.5125340000000 1.0
C      1  0.4690090000000  0.4804750000000  0.5382980000000 1.0
C      1  0.5819970000000  0.4846050000000  0.4562240000000 1.0
C      1  0.5530400000000  0.4918620000000  0.4565530000000 1.0
C      1  0.5021090000000  0.4454810000000  0.4512430000000 1.0
C      1  0.5034640000000  0.5514850000000  0.5702620000000 1.0
C      1  0.5451040000000  0.5460810000000  0.4441260000000 1.0
C      1  0.4639060000000  0.4138750000000  0.5382000000000 1.0
C      1  0.4630120000000  0.4677260000000  0.4969070000000 1.0
C      1  0.5762930000000  0.5114580000000  0.5514200000000 1.0
C      1  0.4636820000000  0.5322320000000  0.5296240000000 1.0
C      1  0.4149440000000  0.4694510000000  0.5182180000000 1.0
C      1  0.4180650000000  0.5026260000000  0.4502150000000 1.0
C      1  0.5287810000000  0.4472800000000  0.4388060000000 1.0
C      1  0.5069680000000  0.4892010000000  0.4372340000000 1.0
C      1  0.4464100000000  0.5078190000000  0.5222250000000 1.0
C      1  0.5333460000000  0.4534010000000  0.5320040000000 1.0
C      1  0.4157330000000  0.4944940000000  0.4807860000000 1.0
C      1  0.4558110000000  0.5689240000000  0.4516360000000 1.0
C      1  0.4909610000000  0.5039400000000  0.5317460000000 1.0
C      1  0.5251620000000  0.5650410000000  0.5565850000000 1.0
C      1  0.5467600000000  0.4789830000000  0.5954190000000 1.0
C      1  0.4181920000000  0.5116250000000  0.5081480000000 1.0
C      1  0.5265830000000  0.4213010000000  0.4958750000000 1.0
C      1  0.5420580000000  0.5478100000000  0.5415360000000 1.0
C      1  0.4086650000000  0.4662720000000  0.4888230000000 1.0
C      1  0.5046280000000  0.4447240000000  0.5267390000000 1.0
C      1  0.5564040000000  0.5310720000000  0.5604690000000 1.0
C      1  0.5136360000000  0.4835250000000  0.3904160000000 1.0
C      1  0.5860140000000  0.4653290000000  0.5065000000000 1.0
C      1  0.5056160000000  0.4991960000000  0.5768330000000 1.0
C      1  0.5349060000000  0.4772860000000  0.4332930000000 1.0
C      1  0.4369690000000  0.5664930000000  0.5102730000000 1.0
C      1  0.5588620000000  0.4666860000000  0.5729800000000 1.0
C      1  0.4933120000000  0.4419070000000  0.5559570000000 1.0
C      1  0.5229470000000  0.5564390000000  0.4907250000000 1.0
C      1  0.4578390000000  0.5718360000000  0.5556420000000 1.0
C      1  0.4917730000000  0.4624160000000  0.5053210000000 1.0
C      1  0.4205130000000  0.4437340000000  0.4777940000000 1.0
C      1  0.4498970000000  0.5129570000000  0.4776560000000 1.0
C      1  0.5428200000000  0.5274090000000  0.5849660000000 1.0
C      1  0.4679550000000  0.4575080000000  0.5574850000000 1.0
C      1  0.5385840000000  0.4855800000000  0.5326980000000 1.0
C      1  0.5119050000000  0.5866060000000  0.5433010000000 1.0
C      1  0.4655480000000  0.5897420000000  0.4716670000000 1.0
C      1  0.5702610000000  0.4431420000000  0.4666780000000 1.0
C      1  0.4848700000000  0.4136580000000  0.5580120000000 1.0
C      1  0.5144480000000  0.4982590000000  0.5478430000000 1.0
C      1  0.4957510000000  0.5937120000000  0.4711680000000 1.0
C      1  0.5482820000000  0.4290740000000  0.4525410000000 1.0
C      1  0.4447500000000  0.5547750000000  0.5376010000000 1.0
C      1  0.4051870000000  0.4841170000000  0.5459950000000 1.0
C      1  0.5143910000000  0.5274960000000  0.5860870000000 1.0
C      1  0.5134290000000  0.5155890000000  0.4468210000000 1.0
C      1  0.5254630000000  0.5321410000000  0.4246780000000 1.0
C      1  0.4588310000000  0.5150220000000  0.5921890000000 1.0
C      1  0.5985490000000  0.4938690000000  0.5068110000000 1.0
C      1  0.5348810000000  0.4118060000000  0.4708110000000 1.0
C      1  0.5317830000000  0.5656220000000  0.4620120000000 1.0
C      1  0.4833320000000  0.5740500000000  0.5662320000000 1.0
C      1  0.5550400000000  0.5226820000000  0.4598960000000 1.0
C      1  0.4485010000000  0.5072230000000  0.5666190000000 1.0
C      1  0.4931390000000  0.4727860000000  0.4583450000000 1.0
C      1  0.5157670000000  0.4488210000000  0.5760480000000 1.0
C      1  0.5191150000000  0.4753620000000  0.5904850000000 1.0
C      1  0.5078140000000  0.4790330000000  0.4862740000000 1.0
C      1  0.5454440000000  0.4385240000000  0.5096610000000 1.0
C      1  0.4482320000000  0.4386540000000  0.5446640000000 1.0
C      1  0.5252800000000  0.5946300000000  0.5182110000000 1.0
C      1  0.5640430000000  0.5250500000000  0.5057420000000 1.0
C      1  0.5861700000000  0.4688860000000  0.5342600000000 1.0
C      1  0.5040100000000  0.4099000000000  0.5100220000000 1.0
C      1  0.5866000000000  0.5178040000000  0.5241500000000 1.0
C      1  0.5892310000000  0.4577730000000  0.4519690000000 1.0
C      1  0.4702830000000  0.5136910000000  0.4573240000000 1.0
C      1  0.4818520000000  0.4282130000000  0.4429150000000 1.0
C      1  0.5010080000000  0.5060380000000  0.5018890000000 1.0
C      1  0.5404840000000  0.5154130000000  0.4062520000000 1.0
C      1  0.4434170000000  0.4578580000000  0.5205980000000 1.0
C      1  0.4627760000000  0.4981210000000  0.4985740000000 1.0
C      1  0.4577610000000  0.5134540000000  0.4310150000000 1.0
C      1  0.5410580000000  0.4457260000000  0.5610050000000 1.0
C      1  0.4752790000000  0.4153250000000  0.5111810000000 1.0
C      1  0.4412610000000  0.4879260000000  0.4368710000000 1.0
C      1  0.4925210000000  0.5309360000000  0.4600850000000 1.0
C      1  0.4419860000000  0.4275740000000  0.4703440000000 1.0
C      1  0.4601800000000  0.4702310000000  0.4583830000000 1.0
C      1  0.5609500000000  0.4564720000000  0.4920790000000 1.0
C      1  0.4408440000000  0.5427060000000  0.4883200000000 1.0
C      1  0.5479880000000  0.5551110000000  0.5130000000000 1.0
C      1  0.5378580000000  0.4876300000000  0.4045160000000 1.0
C      1  0.5655430000000  0.4836170000000  0.5488670000000 1.0
C      1  0.4583080000000  0.5867670000000  0.5019400000000 1.0
C      1  0.4327930000000  0.5529900000000  0.4616830000000 1.0
C      1  0.4788030000000  0.5158360000000  0.4085710000000 1.0
C      1  0.4579090000000  0.4412380000000  0.4503840000000 1.0
C      1  0.5070210000000  0.5820300000000  0.4977600000000 1.0
C      1  0.5423660000000  0.4809360000000  0.4842890000000 1.0
C      1  0.5519240000000  0.5844520000000  0.5151500000000 1.0
C      1  0.4752610000000  0.4953760000000  0.5793330000000 1.0
C      1  0.4965290000000  0.5416420000000  0.4151760000000 1.0
C      1  0.4758130000000  0.5460840000000  0.5046490000000 1.0
C      1  0.4208730000000  0.5312650000000  0.4473870000000 1.0
C      1  0.5946590000000  0.5028560000000  0.4768820000000 1.0
C      1  0.5444100000000  0.5007830000000  0.5066360000000 1.0
C      1  0.4243260000000  0.4935060000000  0.5637360000000 1.0
C      1  0.5766420000000  0.5267480000000  0.4786700000000 1.0
C      1  0.4874500000000  0.5556930000000  0.4421700000000 1.0
C      1  0.4939910000000  0.4895950000000  0.4101500000000 1.0
C      1  0.3975660000000  0.5033350000000  0.5263290000000 1.0
C      1  0.5075320000000  0.5772220000000  0.4496820000000 1.0
C      1  0.4996320000000  0.5343290000000  0.4895960000000 1.0
C      1  0.4575840000000  0.4141620000000  0.4894290000000 1.0
END
