TITL C-950528-5794-131 -3.75613841463155e-06 125000 -323.109665759679 0 0 53 (C1) n - 1
REM
REM in /home/bkarasulu/work/CARBON/AIRSS/Generating-Clusters/EDIP-Nigel-Params/with-SteepDescent/Only-C1/SD-CG/HFTN-CG
REM
REM
REM
REM
REM
REM ./C.cell (11c1c37f851c82e70ff6c80c92926a4b)
REM
REM compiler GCC version 9.2.1 20190827 (Red Hat 9.2.1-1)
REM options -cpp -mtune=generic -march=x86-64 -g -O0 -fpre-include=/usr/include/finclude/math-vector-fortran.h
REM seed -1024246945 -1902814255 -37985042 1897012413 48015982 -549531208 -1436480234 1298257369 473305317 -1896489994 560370815 -875451367 -762293029 730145382 1942095352 2001117784 1967122712 571737390 -2132887132 -2007964921 152227221 695401928 939446203 586222827 463860346 719987495 1486977148 -1387966437 -503392243 -653834007 1968049135 1604977428 -766696032
REM
CELL 1.54180   50.00000   50.00000   50.00000   90.00000   90.00000   90.00000
LATT -1
SFAC C  
C      1  0.5569440000000  0.5044160000000  0.5364150000000 1.0
C      1  0.5018020000000  0.5008110000000  0.4864870000000 1.0
C      1  0.5632820000000  0.5154750000000  0.4849030000000 1.0
C      1  0.4858200000000  0.4812810000000  0.5022120000000 1.0
C      1  0.4959910000000  0.5653080000000  0.5120550000000 1.0
C      1  0.5020890000000  0.5265000000000  0.5071850000000 1.0
C      1  0.5503810000000  0.5168490000000  0.5107830000000 1.0
C      1  0.5531290000000  0.5234910000000  0.4581160000000 1.0
C      1  0.4840970000000  0.5009310000000  0.4599250000000 1.0
C      1  0.5197510000000  0.4804850000000  0.5397570000000 1.0
C      1  0.5454130000000  0.5652360000000  0.4806720000000 1.0
C      1  0.5445840000000  0.5173020000000  0.5584160000000 1.0
C      1  0.5579650000000  0.4759930000000  0.5368480000000 1.0
C      1  0.5007140000000  0.5393670000000  0.5544670000000 1.0
C      1  0.4631460000000  0.4956000000000  0.5151800000000 1.0
C      1  0.4883310000000  0.4408040000000  0.5391880000000 1.0
C      1  0.5048760000000  0.4596990000000  0.5562650000000 1.0
C      1  0.5398950000000  0.4971140000000  0.4514290000000 1.0
C      1  0.4307470000000  0.4597960000000  0.4921750000000 1.0
C      1  0.4518220000000  0.5346870000000  0.4981370000000 1.0
C      1  0.4576650000000  0.4515870000000  0.5359030000000 1.0
C      1  0.5345910000000  0.5472870000000  0.4618610000000 1.0
C      1  0.4532990000000  0.4952140000000  0.4672250000000 1.0
C      1  0.5307030000000  0.5372330000000  0.5172430000000 1.0
C      1  0.4623930000000  0.5524940000000  0.4770110000000 1.0
C      1  0.4547970000000  0.4817240000000  0.5403590000000 1.0
C      1  0.5394460000000  0.5644840000000  0.5079120000000 1.0
C      1  0.4867690000000  0.5285980000000  0.4488130000000 1.0
C      1  0.5183060000000  0.4232860000000  0.4951600000000 1.0
C      1  0.5220230000000  0.4930110000000  0.4301930000000 1.0
C      1  0.4818880000000  0.5522700000000  0.5360170000000 1.0
C      1  0.4554280000000  0.4499600000000  0.4508420000000 1.0
C      1  0.5439260000000  0.4607690000000  0.5174340000000 1.0
C      1  0.4973690000000  0.4354730000000  0.5103820000000 1.0
C      1  0.5322450000000  0.4922520000000  0.4807150000000 1.0
C      1  0.4996040000000  0.4810030000000  0.4425070000000 1.0
C      1  0.5037370000000  0.4529840000000  0.4550170000000 1.0
C      1  0.4763980000000  0.4933960000000  0.5572450000000 1.0
C      1  0.4418530000000  0.4683480000000  0.4672320000000 1.0
C      1  0.4984100000000  0.5053920000000  0.5371780000000 1.0
C      1  0.4783760000000  0.4433460000000  0.4657030000000 1.0
C      1  0.4876140000000  0.4734670000000  0.5742410000000 1.0
C      1  0.5194920000000  0.5819920000000  0.5167720000000 1.0
C      1  0.4401820000000  0.5105090000000  0.4879550000000 1.0
C      1  0.5397230000000  0.4652480000000  0.4894080000000 1.0
C      1  0.4512040000000  0.4463060000000  0.5065020000000 1.0
C      1  0.5246110000000  0.4442800000000  0.4765100000000 1.0
C      1  0.4637730000000  0.5329440000000  0.5246830000000 1.0
C      1  0.5057070000000  0.5423350000000  0.4666230000000 1.0
C      1  0.4896470000000  0.5610900000000  0.4827890000000 1.0
C      1  0.5281510000000  0.5367270000000  0.5466810000000 1.0
C      1  0.4783220000000  0.4518550000000  0.4948920000000 1.0
C      1  0.4615700000000  0.5419930000000  0.4503750000000 1.0
END
