TITL C-951339-9237-540 -3.72486826055677e-06 125000 -958.244102824714 0 0 153 (C1) n - 1
REM
REM in /home/bkarasulu/work/CARBON/AIRSS/Generating-Clusters/EDIP-Nigel-Params/with-SteepDescent/Only-C1/SD-CG/HFTN-CG
REM
REM
REM
REM
REM
REM ./C.cell (11c1c37f851c82e70ff6c80c92926a4b)
REM
REM compiler GCC version 9.2.1 20190827 (Red Hat 9.2.1-1)
REM options -cpp -mtune=generic -march=x86-64 -g -O0 -fpre-include=/usr/include/finclude/math-vector-fortran.h
REM seed -1959673377 754921345 -608289289 1129223964 1475924648 -659913756 -1724888210 -298309839 1266910566 -694591288 1288264104 -1982646941 149208092 -1112349220 -1657330835 1322748773 986699335 146165048 1847465743 -1149224815 -1451162229 57686530 -929715646 -1999338909 1516207635 -517017553 -1277967208 -156374949 2139714418 -1613936505 164510392 -1450340446 1525504192
REM
CELL 1.54180   50.00000   50.00000   50.00000   90.00000   90.00000   90.00000
LATT -1
SFAC C  
C      1  0.4692560000000  0.4668080000000  0.5951020000000 1.0
C      1  0.4175120000000  0.4818640000000  0.5772570000000 1.0
C      1  0.5237460000000  0.5169490000000  0.4923590000000 1.0
C      1  0.5958080000000  0.4469280000000  0.4789890000000 1.0
C      1  0.4407830000000  0.4525920000000  0.4392220000000 1.0
C      1  0.4035280000000  0.4581110000000  0.5038960000000 1.0
C      1  0.5131370000000  0.5397420000000  0.4075640000000 1.0
C      1  0.5589720000000  0.5883490000000  0.5115240000000 1.0
C      1  0.5604300000000  0.5647170000000  0.5289110000000 1.0
C      1  0.5649060000000  0.5155670000000  0.5353100000000 1.0
C      1  0.5417920000000  0.5625530000000  0.5508770000000 1.0
C      1  0.5610800000000  0.5894650000000  0.4588800000000 1.0
C      1  0.5060480000000  0.5543490000000  0.5201630000000 1.0
C      1  0.6238800000000  0.4922450000000  0.4535710000000 1.0
C      1  0.5116990000000  0.4263300000000  0.4343150000000 1.0
C      1  0.5633510000000  0.4752370000000  0.5020590000000 1.0
C      1  0.4870710000000  0.4130680000000  0.5218420000000 1.0
C      1  0.4866630000000  0.3887370000000  0.4527810000000 1.0
C      1  0.5172000000000  0.5823420000000  0.4826580000000 1.0
C      1  0.4904270000000  0.4712120000000  0.4246450000000 1.0
C      1  0.4211280000000  0.5472750000000  0.5107080000000 1.0
C      1  0.5502730000000  0.5161820000000  0.5801030000000 1.0
C      1  0.5797120000000  0.5121300000000  0.4415700000000 1.0
C      1  0.5316430000000  0.4831740000000  0.4652730000000 1.0
C      1  0.4649730000000  0.6084050000000  0.4852620000000 1.0
C      1  0.4684760000000  0.5334430000000  0.5906050000000 1.0
C      1  0.4885520000000  0.4428600000000  0.5901870000000 1.0
C      1  0.4183230000000  0.4452080000000  0.4570900000000 1.0
C      1  0.5008100000000  0.5657650000000  0.5732180000000 1.0
C      1  0.4122750000000  0.4689710000000  0.4770790000000 1.0
C      1  0.4118510000000  0.5270050000000  0.4679720000000 1.0
C      1  0.4834900000000  0.5975990000000  0.5152090000000 1.0
C      1  0.4916860000000  0.5343450000000  0.5389520000000 1.0
C      1  0.5392260000000  0.5620100000000  0.4828060000000 1.0
C      1  0.5601760000000  0.4344040000000  0.4490700000000 1.0
C      1  0.5146350000000  0.5739480000000  0.5435100000000 1.0
C      1  0.5358300000000  0.6046300000000  0.5159350000000 1.0
C      1  0.4499110000000  0.5393530000000  0.5103040000000 1.0
C      1  0.4335180000000  0.4402780000000  0.5641960000000 1.0
C      1  0.3927010000000  0.5056410000000  0.5102890000000 1.0
C      1  0.5209180000000  0.4477260000000  0.5004580000000 1.0
C      1  0.4953560000000  0.4546230000000  0.5433990000000 1.0
C      1  0.4790010000000  0.4950780000000  0.4598680000000 1.0
C      1  0.4950560000000  0.5199860000000  0.5927470000000 1.0
C      1  0.4757580000000  0.5107520000000  0.4060640000000 1.0
C      1  0.5734800000000  0.5827310000000  0.4847800000000 1.0
C      1  0.5303700000000  0.5432990000000  0.5042740000000 1.0
C      1  0.4491930000000  0.4947540000000  0.4576040000000 1.0
C      1  0.4524510000000  0.5141670000000  0.5754080000000 1.0
C      1  0.3985730000000  0.4775420000000  0.5536910000000 1.0
C      1  0.4909400000000  0.5687810000000  0.4477360000000 1.0
C      1  0.4820180000000  0.4645470000000  0.4719020000000 1.0
C      1  0.5709160000000  0.4966800000000  0.5749380000000 1.0
C      1  0.4618000000000  0.5281940000000  0.5356530000000 1.0
C      1  0.4374960000000  0.4594250000000  0.5869610000000 1.0
C      1  0.4614850000000  0.5885700000000  0.5355670000000 1.0
C      1  0.5656900000000  0.5533580000000  0.4227350000000 1.0
C      1  0.5518330000000  0.4929790000000  0.4829480000000 1.0
C      1  0.4297210000000  0.4590530000000  0.5417300000000 1.0
C      1  0.4565100000000  0.4237670000000  0.5553970000000 1.0
C      1  0.4927990000000  0.5733200000000  0.4982960000000 1.0
C      1  0.5349210000000  0.4923480000000  0.5345120000000 1.0
C      1  0.5897590000000  0.4688860000000  0.4281710000000 1.0
C      1  0.5424480000000  0.4063100000000  0.5260730000000 1.0
C      1  0.4169710000000  0.5696300000000  0.5294000000000 1.0
C      1  0.5125170000000  0.4635240000000  0.4762150000000 1.0
C      1  0.4532440000000  0.4206610000000  0.4748750000000 1.0
C      1  0.5384390000000  0.4629860000000  0.4118910000000 1.0
C      1  0.5073190000000  0.3992260000000  0.4392800000000 1.0
C      1  0.4668550000000  0.4428550000000  0.4526010000000 1.0
C      1  0.4864210000000  0.5132060000000  0.4832350000000 1.0
C      1  0.6123150000000  0.4669040000000  0.4948200000000 1.0
C      1  0.4115310000000  0.5526680000000  0.4829260000000 1.0
C      1  0.4943330000000  0.4435730000000  0.5156270000000 1.0
C      1  0.5953570000000  0.4807290000000  0.5416050000000 1.0
C      1  0.4252850000000  0.4189490000000  0.4663610000000 1.0
C      1  0.4993570000000  0.4073020000000  0.5504880000000 1.0
C      1  0.4062800000000  0.5268150000000  0.5251470000000 1.0
C      1  0.5929030000000  0.5611010000000  0.4854880000000 1.0
C      1  0.4875770000000  0.4962540000000  0.5085650000000 1.0
C      1  0.4754270000000  0.5226850000000  0.4330460000000 1.0
C      1  0.4605650000000  0.5634840000000  0.5509670000000 1.0
C      1  0.5212420000000  0.3947800000000  0.4973170000000 1.0
C      1  0.5562840000000  0.4480020000000  0.5426860000000 1.0
C      1  0.4494010000000  0.5384630000000  0.4377180000000 1.0
C      1  0.4740770000000  0.3969210000000  0.4761830000000 1.0
C      1  0.5396000000000  0.5642940000000  0.4206260000000 1.0
C      1  0.4506200000000  0.4344910000000  0.5031540000000 1.0
C      1  0.5226460000000  0.4938070000000  0.5647850000000 1.0
C      1  0.3994910000000  0.5032150000000  0.4814740000000 1.0
C      1  0.5771820000000  0.4633540000000  0.5576590000000 1.0
C      1  0.5859040000000  0.5060040000000  0.5523790000000 1.0
C      1  0.3948650000000  0.4793910000000  0.5236610000000 1.0
C      1  0.4626990000000  0.5344960000000  0.4837150000000 1.0
C      1  0.6028870000000  0.4947770000000  0.4354680000000 1.0
C      1  0.4671880000000  0.4876360000000  0.5701490000000 1.0
C      1  0.5115750000000  0.6015390000000  0.5304030000000 1.0
C      1  0.5142670000000  0.5041200000000  0.5166360000000 1.0
C      1  0.5180190000000  0.4501800000000  0.5864250000000 1.0
C      1  0.4967210000000  0.4921220000000  0.6027370000000 1.0
C      1  0.5329460000000  0.4390840000000  0.5610950000000 1.0
C      1  0.5564000000000  0.4206100000000  0.4752880000000 1.0
C      1  0.4667870000000  0.4836110000000  0.4130790000000 1.0
C      1  0.6000140000000  0.5095210000000  0.4954340000000 1.0
C      1  0.4464820000000  0.5673760000000  0.4468320000000 1.0
C      1  0.4579950000000  0.4153820000000  0.5259470000000 1.0
C      1  0.5386620000000  0.5861140000000  0.4409360000000 1.0
C      1  0.5380760000000  0.4384620000000  0.4291990000000 1.0
C      1  0.5566970000000  0.5033190000000  0.4267410000000 1.0
C      1  0.5907960000000  0.4829510000000  0.5114120000000 1.0
C      1  0.5657090000000  0.4248330000000  0.5242860000000 1.0
C      1  0.5294940000000  0.5000840000000  0.4404590000000 1.0
C      1  0.3996060000000  0.5412240000000  0.5492960000000 1.0
C      1  0.4998260000000  0.5406770000000  0.4343420000000 1.0
C      1  0.4681350000000  0.5869540000000  0.4393010000000 1.0
C      1  0.5432060000000  0.4655370000000  0.5211450000000 1.0
C      1  0.4921700000000  0.3938250000000  0.5001290000000 1.0
C      1  0.4616310000000  0.4984220000000  0.5231710000000 1.0
C      1  0.5793420000000  0.5405560000000  0.4436710000000 1.0
C      1  0.4431230000000  0.5907050000000  0.4923680000000 1.0
C      1  0.4061860000000  0.5292460000000  0.5731570000000 1.0
C      1  0.5204910000000  0.5270930000000  0.4507610000000 1.0
C      1  0.5739590000000  0.4326920000000  0.4956320000000 1.0
C      1  0.5437250000000  0.5452810000000  0.4563620000000 1.0
C      1  0.4847970000000  0.4327340000000  0.5623540000000 1.0
C      1  0.4567350000000  0.4758560000000  0.5426400000000 1.0
C      1  0.4394420000000  0.4801120000000  0.4809530000000 1.0
C      1  0.5362830000000  0.5351130000000  0.5626490000000 1.0
C      1  0.6217200000000  0.4933090000000  0.4812970000000 1.0
C      1  0.5642210000000  0.4782660000000  0.4131290000000 1.0
C      1  0.5150350000000  0.4855630000000  0.4161830000000 1.0
C      1  0.5202610000000  0.4792590000000  0.5913770000000 1.0
C      1  0.4425430000000  0.4812640000000  0.4311630000000 1.0
C      1  0.5280230000000  0.4119270000000  0.5511160000000 1.0
C      1  0.5064540000000  0.5353430000000  0.5672210000000 1.0
C      1  0.4244700000000  0.5101810000000  0.5823880000000 1.0
C      1  0.4727240000000  0.5626850000000  0.4756950000000 1.0
C      1  0.5714890000000  0.5392460000000  0.5201170000000 1.0
C      1  0.5832440000000  0.4518140000000  0.4517160000000 1.0
C      1  0.4879570000000  0.4425960000000  0.4304490000000 1.0
C      1  0.4413880000000  0.5238590000000  0.4618920000000 1.0
C      1  0.4953140000000  0.4842730000000  0.5501840000000 1.0
C      1  0.4416040000000  0.4959340000000  0.5036250000000 1.0
C      1  0.4716470000000  0.5613740000000  0.5776000000000 1.0
C      1  0.4248830000000  0.4435930000000  0.5166570000000 1.0
C      1  0.5131090000000  0.5873140000000  0.4549180000000 1.0
C      1  0.5291590000000  0.4205280000000  0.4862530000000 1.0
C      1  0.4360290000000  0.5901530000000  0.5210650000000 1.0
C      1  0.4715240000000  0.4561940000000  0.5001390000000 1.0
C      1  0.4682920000000  0.6086860000000  0.4573840000000 1.0
C      1  0.5924600000000  0.5375140000000  0.5008640000000 1.0
C      1  0.5050510000000  0.5116960000000  0.3987770000000 1.0
C      1  0.4303490000000  0.5732440000000  0.4722660000000 1.0
END
