TITL C-951334-9093-48 3.57249420809482e-06 125000 -1159.71650956122 0 0 185 (C1) n - 1
REM
REM in /home/bkarasulu/work/CARBON/AIRSS/Generating-Clusters/EDIP-Nigel-Params/with-SteepDescent/Only-C1/SD-CG/HFTN-CG
REM
REM
REM
REM
REM
REM ./C.cell (11c1c37f851c82e70ff6c80c92926a4b)
REM
REM compiler GCC version 9.2.1 20190827 (Red Hat 9.2.1-1)
REM options -cpp -mtune=generic -march=x86-64 -g -O0 -fpre-include=/usr/include/finclude/math-vector-fortran.h
REM seed 1936602800 1307700409 -1771029119 -181383111 2080905266 55239095 -728255338 -1026828249 -1810654669 48430171 847806196 -626839341 -1513237216 -662026956 745931440 623222613 1949489134 84793781 -1920426372 -1289836438 1519681401 -1968002645 354989816 -809900955 1669581308 339378282 -296788762 -734069839 -1964422466 631807556 -1068602162 -1845310866 -2029816358
REM
CELL 1.54180   50.00000   50.00000   50.00000   90.00000   90.00000   90.00000
LATT -1
SFAC C  
C      1  0.5080040000000  0.5257890000000  0.3984420000000 1.0
C      1  0.5494860000000  0.4899100000000  0.5020880000000 1.0
C      1  0.5811880000000  0.5779910000000  0.5015800000000 1.0
C      1  0.5196590000000  0.4358960000000  0.5352530000000 1.0
C      1  0.5387640000000  0.4901960000000  0.4028570000000 1.0
C      1  0.5455890000000  0.5252920000000  0.5370580000000 1.0
C      1  0.4876270000000  0.4177780000000  0.5982190000000 1.0
C      1  0.5363230000000  0.5131020000000  0.4462180000000 1.0
C      1  0.4813760000000  0.4673890000000  0.6065450000000 1.0
C      1  0.6091360000000  0.5428160000000  0.4816900000000 1.0
C      1  0.3977060000000  0.5645640000000  0.5280180000000 1.0
C      1  0.5318360000000  0.5606690000000  0.5838000000000 1.0
C      1  0.5646180000000  0.4742140000000  0.4591110000000 1.0
C      1  0.5904180000000  0.4671540000000  0.5680600000000 1.0
C      1  0.4100020000000  0.5773850000000  0.4576550000000 1.0
C      1  0.5891000000000  0.4493340000000  0.5225870000000 1.0
C      1  0.5420360000000  0.5761000000000  0.5591220000000 1.0
C      1  0.4660960000000  0.4928690000000  0.6052930000000 1.0
C      1  0.5058970000000  0.4510670000000  0.3969400000000 1.0
C      1  0.5304030000000  0.4619300000000  0.4457490000000 1.0
C      1  0.4316230000000  0.5357150000000  0.4645820000000 1.0
C      1  0.5157490000000  0.5644430000000  0.5429860000000 1.0
C      1  0.4879980000000  0.4956690000000  0.5218230000000 1.0
C      1  0.4847330000000  0.5797050000000  0.5700040000000 1.0
C      1  0.5406740000000  0.5828870000000  0.4729250000000 1.0
C      1  0.4867990000000  0.5139280000000  0.6084000000000 1.0
C      1  0.5477690000000  0.4220960000000  0.4669390000000 1.0
C      1  0.4300580000000  0.4767770000000  0.5754730000000 1.0
C      1  0.5864980000000  0.4427010000000  0.5514750000000 1.0
C      1  0.4480420000000  0.5162100000000  0.4227900000000 1.0
C      1  0.5854180000000  0.5464620000000  0.5523660000000 1.0
C      1  0.6017550000000  0.5356480000000  0.5319250000000 1.0
C      1  0.5611660000000  0.4289070000000  0.5593350000000 1.0
C      1  0.5748320000000  0.4934210000000  0.4368870000000 1.0
C      1  0.4759440000000  0.6173550000000  0.5369250000000 1.0
C      1  0.4786780000000  0.4239440000000  0.4281700000000 1.0
C      1  0.3981130000000  0.5644090000000  0.4799540000000 1.0
C      1  0.4980810000000  0.5889150000000  0.4473180000000 1.0
C      1  0.4091030000000  0.5306070000000  0.5634140000000 1.0
C      1  0.5011460000000  0.4883430000000  0.4898300000000 1.0
C      1  0.4570920000000  0.4224880000000  0.4762880000000 1.0
C      1  0.6020650000000  0.4969600000000  0.4988970000000 1.0
C      1  0.4779340000000  0.5076870000000  0.5658290000000 1.0
C      1  0.4101650000000  0.4732980000000  0.4955320000000 1.0
C      1  0.4831980000000  0.5348850000000  0.5011120000000 1.0
C      1  0.5865540000000  0.4520270000000  0.4599410000000 1.0
C      1  0.4792370000000  0.5439890000000  0.5289050000000 1.0
C      1  0.4888970000000  0.5480810000000  0.4103520000000 1.0
C      1  0.5254050000000  0.4289770000000  0.3964620000000 1.0
C      1  0.5047760000000  0.3972060000000  0.4618880000000 1.0
C      1  0.3855730000000  0.4918310000000  0.4966210000000 1.0
C      1  0.4503450000000  0.4551690000000  0.5156320000000 1.0
C      1  0.4224830000000  0.4209540000000  0.5127410000000 1.0
C      1  0.4477300000000  0.6129820000000  0.4922690000000 1.0
C      1  0.5582490000000  0.5366740000000  0.4065660000000 1.0
C      1  0.5904190000000  0.5656200000000  0.4784790000000 1.0
C      1  0.5567470000000  0.5221110000000  0.4666590000000 1.0
C      1  0.4342880000000  0.5888930000000  0.5047560000000 1.0
C      1  0.5376890000000  0.5199390000000  0.3963050000000 1.0
C      1  0.5333680000000  0.5704050000000  0.5158350000000 1.0
C      1  0.4481690000000  0.5845250000000  0.5298050000000 1.0
C      1  0.5446210000000  0.6064690000000  0.4931330000000 1.0
C      1  0.4722950000000  0.4413750000000  0.5954880000000 1.0
C      1  0.6048840000000  0.5256650000000  0.5055280000000 1.0
C      1  0.5812460000000  0.4574230000000  0.4224040000000 1.0
C      1  0.5223360000000  0.4077650000000  0.4157010000000 1.0
C      1  0.3899010000000  0.5091780000000  0.4719060000000 1.0
C      1  0.5032560000000  0.4110710000000  0.4361940000000 1.0
C      1  0.5722760000000  0.4049290000000  0.5182390000000 1.0
C      1  0.6026410000000  0.5024990000000  0.4477810000000 1.0
C      1  0.4273260000000  0.5166060000000  0.4429510000000 1.0
C      1  0.4072840000000  0.4802890000000  0.5563760000000 1.0
C      1  0.5239310000000  0.5002010000000  0.5802200000000 1.0
C      1  0.4583320000000  0.4810610000000  0.5304940000000 1.0
C      1  0.3997770000000  0.5070010000000  0.5466590000000 1.0
C      1  0.5833240000000  0.4266620000000  0.5041110000000 1.0
C      1  0.5682040000000  0.4961020000000  0.4803380000000 1.0
C      1  0.4397010000000  0.5367320000000  0.5099360000000 1.0
C      1  0.5091030000000  0.4720810000000  0.6161110000000 1.0
C      1  0.4565920000000  0.4252730000000  0.4464540000000 1.0
C      1  0.4949890000000  0.6035560000000  0.5535710000000 1.0
C      1  0.4941060000000  0.6073060000000  0.4935650000000 1.0
C      1  0.5187900000000  0.4488480000000  0.5798930000000 1.0
C      1  0.5155470000000  0.4773900000000  0.3861400000000 1.0
C      1  0.4084320000000  0.4957400000000  0.4520760000000 1.0
C      1  0.4993800000000  0.4807870000000  0.5683670000000 1.0
C      1  0.4785880000000  0.4871570000000  0.4086730000000 1.0
C      1  0.4779660000000  0.4433190000000  0.4058610000000 1.0
C      1  0.4572430000000  0.6120800000000  0.4651350000000 1.0
C      1  0.4058560000000  0.5337350000000  0.4811470000000 1.0
C      1  0.5386370000000  0.4495030000000  0.5563670000000 1.0
C      1  0.5201550000000  0.5330780000000  0.5517440000000 1.0
C      1  0.4812320000000  0.4062180000000  0.5347950000000 1.0
C      1  0.5438530000000  0.5327710000000  0.5831000000000 1.0
C      1  0.4526900000000  0.4236680000000  0.5541250000000 1.0
C      1  0.5036210000000  0.4379080000000  0.4784840000000 1.0
C      1  0.5234350000000  0.3968390000000  0.5067880000000 1.0
C      1  0.5494000000000  0.4836060000000  0.5702870000000 1.0
C      1  0.4057900000000  0.5786170000000  0.5048500000000 1.0
C      1  0.4504660000000  0.5165910000000  0.5550920000000 1.0
C      1  0.5338200000000  0.4253070000000  0.5120980000000 1.0
C      1  0.5725160000000  0.5273970000000  0.5724770000000 1.0
C      1  0.4357840000000  0.5247810000000  0.5789010000000 1.0
C      1  0.5282060000000  0.5588670000000  0.4889540000000 1.0
C      1  0.4334980000000  0.5628440000000  0.4530420000000 1.0
C      1  0.4514240000000  0.5393810000000  0.5363700000000 1.0
C      1  0.4975910000000  0.4525100000000  0.5260830000000 1.0
C      1  0.4380860000000  0.4986470000000  0.5939390000000 1.0
C      1  0.4725470000000  0.6216340000000  0.5085390000000 1.0
C      1  0.4926560000000  0.4922710000000  0.4370720000000 1.0
C      1  0.4615780000000  0.4518420000000  0.4887280000000 1.0
C      1  0.5596970000000  0.5540140000000  0.5396120000000 1.0
C      1  0.5578260000000  0.4035020000000  0.5428400000000 1.0
C      1  0.5699240000000  0.4723510000000  0.5879290000000 1.0
C      1  0.4979610000000  0.5544500000000  0.4842680000000 1.0
C      1  0.4528710000000  0.4738140000000  0.4689840000000 1.0
C      1  0.4559590000000  0.5710290000000  0.5739430000000 1.0
C      1  0.4501330000000  0.5658330000000  0.4290360000000 1.0
C      1  0.4863660000000  0.5792780000000  0.4981140000000 1.0
C      1  0.4956800000000  0.5356660000000  0.4587450000000 1.0
C      1  0.5250410000000  0.4887990000000  0.4316450000000 1.0
C      1  0.5184920000000  0.5353640000000  0.4403920000000 1.0
C      1  0.4958450000000  0.5000950000000  0.3885390000000 1.0
C      1  0.6110760000000  0.4872740000000  0.4719530000000 1.0
C      1  0.5080890000000  0.4119470000000  0.5499940000000 1.0
C      1  0.5412940000000  0.4328880000000  0.4377810000000 1.0
C      1  0.6126360000000  0.4598430000000  0.4683780000000 1.0
C      1  0.4507410000000  0.4562860000000  0.4107030000000 1.0
C      1  0.4576840000000  0.4741120000000  0.5621110000000 1.0
C      1  0.5322290000000  0.4411330000000  0.4868880000000 1.0
C      1  0.4903800000000  0.4570690000000  0.4964480000000 1.0
C      1  0.4857670000000  0.6096370000000  0.4640970000000 1.0
C      1  0.5936610000000  0.4892990000000  0.5482010000000 1.0
C      1  0.5439040000000  0.5344440000000  0.4894630000000 1.0
C      1  0.5313580000000  0.3957960000000  0.4754790000000 1.0
C      1  0.4830600000000  0.5396850000000  0.5948360000000 1.0
C      1  0.5356910000000  0.5668560000000  0.4292710000000 1.0
C      1  0.5587020000000  0.5895000000000  0.5134170000000 1.0
C      1  0.5526460000000  0.4346100000000  0.3915870000000 1.0
C      1  0.4849620000000  0.5770540000000  0.4236640000000 1.0
C      1  0.5273920000000  0.5881470000000  0.4469150000000 1.0
C      1  0.4208010000000  0.4715460000000  0.4655160000000 1.0
C      1  0.5626460000000  0.5552670000000  0.4273910000000 1.0
C      1  0.5305850000000  0.4741150000000  0.4873530000000 1.0
C      1  0.4399770000000  0.5642970000000  0.5493820000000 1.0
C      1  0.4095940000000  0.4246560000000  0.4672020000000 1.0
C      1  0.5139360000000  0.5006980000000  0.6094030000000 1.0
C      1  0.4542500000000  0.4968160000000  0.4891630000000 1.0
C      1  0.5206000000000  0.6120830000000  0.5099210000000 1.0
C      1  0.5029400000000  0.4771180000000  0.5388200000000 1.0
C      1  0.5748590000000  0.5443910000000  0.4538740000000 1.0
C      1  0.4494280000000  0.4269320000000  0.5254820000000 1.0
C      1  0.5017150000000  0.5609960000000  0.5852400000000 1.0
C      1  0.4152460000000  0.5223880000000  0.5087010000000 1.0
C      1  0.5294720000000  0.4550110000000  0.6060940000000 1.0
C      1  0.4141770000000  0.4467590000000  0.4506050000000 1.0
C      1  0.5222900000000  0.6039510000000  0.5406420000000 1.0
C      1  0.4836450000000  0.4046830000000  0.4823040000000 1.0
C      1  0.3825110000000  0.5074030000000  0.5225540000000 1.0
C      1  0.5636750000000  0.4348860000000  0.4176470000000 1.0
C      1  0.6034080000000  0.5319010000000  0.4526570000000 1.0
C      1  0.4286810000000  0.4137400000000  0.4845890000000 1.0
C      1  0.4302700000000  0.4936220000000  0.5074580000000 1.0
C      1  0.4599800000000  0.5418490000000  0.4149120000000 1.0
C      1  0.5022740000000  0.4519540000000  0.4528550000000 1.0
C      1  0.5663590000000  0.5037300000000  0.5540810000000 1.0
C      1  0.4786520000000  0.5763510000000  0.5264990000000 1.0
C      1  0.4065520000000  0.4480080000000  0.5143750000000 1.0
C      1  0.5692070000000  0.4825960000000  0.4083780000000 1.0
C      1  0.4022520000000  0.4577750000000  0.5404020000000 1.0
C      1  0.4570070000000  0.5264640000000  0.4875490000000 1.0
C      1  0.4382710000000  0.4429310000000  0.4343360000000 1.0
C      1  0.4938860000000  0.5205990000000  0.5421530000000 1.0
C      1  0.4500440000000  0.4941540000000  0.4055120000000 1.0
C      1  0.4106050000000  0.5583090000000  0.5520110000000 1.0
C      1  0.4636810000000  0.4454860000000  0.5684850000000 1.0
C      1  0.5388660000000  0.5157410000000  0.5100920000000 1.0
C      1  0.4752680000000  0.4654840000000  0.4431980000000 1.0
C      1  0.4893340000000  0.5065510000000  0.4643600000000 1.0
C      1  0.4927700000000  0.3963730000000  0.5088550000000 1.0
C      1  0.5081110000000  0.4210600000000  0.5792680000000 1.0
C      1  0.5989470000000  0.4773510000000  0.5216730000000 1.0
C      1  0.5301630000000  0.3921740000000  0.5412710000000 1.0
C      1  0.5765010000000  0.4281850000000  0.4750530000000 1.0
C      1  0.4547550000000  0.5469730000000  0.5904880000000 1.0
END
