TITL C-951333-8791-374 -1.36873256946721e-06 125000 -250.777167320698 0 0 42 (C1) n - 1
REM
REM in /home/bkarasulu/work/CARBON/AIRSS/Generating-Clusters/EDIP-Nigel-Params/with-SteepDescent/Only-C1/SD-CG/HFTN-CG
REM
REM
REM
REM
REM
REM ./C.cell (11c1c37f851c82e70ff6c80c92926a4b)
REM
REM compiler GCC version 9.2.1 20190827 (Red Hat 9.2.1-1)
REM options -cpp -mtune=generic -march=x86-64 -g -O0 -fpre-include=/usr/include/finclude/math-vector-fortran.h
REM seed 1729612482 -884673279 1079468556 610771179 -879006305 1845092671 -1387440605 -1266417841 250440624 -780264293 1202604851 -2083604387 -1586449173 2011827340 -1878586555 1966467232 717933524 447528903 1490887541 -1951099498 86569636 636537159 1267858023 30735340 931296256 1387114980 1671644292 1517150309 -285120427 -285062033 399687781 1421879512 1437908911
REM
CELL 1.54180   50.00000   50.00000   50.00000   90.00000   90.00000   90.00000
LATT -1
SFAC C  
C      1  0.4493920000000  0.4480940000000  0.5204200000000 1.0
C      1  0.4899780000000  0.4909860000000  0.4990120000000 1.0
C      1  0.4938000000000  0.4606990000000  0.4598410000000 1.0
C      1  0.5207080000000  0.5144090000000  0.4402360000000 1.0
C      1  0.5594760000000  0.5504980000000  0.4862640000000 1.0
C      1  0.4985960000000  0.5123620000000  0.4824140000000 1.0
C      1  0.5732160000000  0.5159420000000  0.5099830000000 1.0
C      1  0.4536030000000  0.5147070000000  0.4607890000000 1.0
C      1  0.5498090000000  0.5015040000000  0.5206780000000 1.0
C      1  0.5191490000000  0.5509970000000  0.5111890000000 1.0
C      1  0.5379320000000  0.4477760000000  0.4746780000000 1.0
C      1  0.4734230000000  0.5132090000000  0.4409230000000 1.0
C      1  0.4924460000000  0.5304340000000  0.5457600000000 1.0
C      1  0.5260030000000  0.4666840000000  0.4521530000000 1.0
C      1  0.4447100000000  0.5277360000000  0.5215630000000 1.0
C      1  0.4659660000000  0.4461280000000  0.4955760000000 1.0
C      1  0.4344380000000  0.4875830000000  0.5461750000000 1.0
C      1  0.5730490000000  0.5219630000000  0.4799390000000 1.0
C      1  0.5035320000000  0.4831700000000  0.5486700000000 1.0
C      1  0.4321700000000  0.4918450000000  0.4985860000000 1.0
C      1  0.4549180000000  0.5073860000000  0.5407800000000 1.0
C      1  0.5459510000000  0.4730490000000  0.5217750000000 1.0
C      1  0.5407770000000  0.5464130000000  0.5318930000000 1.0
C      1  0.4232490000000  0.5182110000000  0.5050800000000 1.0
C      1  0.5309790000000  0.5527460000000  0.4854240000000 1.0
C      1  0.4603390000000  0.4229880000000  0.5111960000000 1.0
C      1  0.5670610000000  0.5464260000000  0.5162650000000 1.0
C      1  0.4487140000000  0.4880080000000  0.4740400000000 1.0
C      1  0.5591410000000  0.5029180000000  0.4649660000000 1.0
C      1  0.5392540000000  0.5181050000000  0.5425030000000 1.0
C      1  0.5095030000000  0.4398130000000  0.4742190000000 1.0
C      1  0.5127300000000  0.5115280000000  0.5558810000000 1.0
C      1  0.4745370000000  0.4716780000000  0.4813360000000 1.0
C      1  0.5244570000000  0.4674860000000  0.5384740000000 1.0
C      1  0.4593150000000  0.5359610000000  0.4790700000000 1.0
C      1  0.4933670000000  0.5379370000000  0.5182150000000 1.0
C      1  0.4345740000000  0.4733290000000  0.5216760000000 1.0
C      1  0.4973360000000  0.5184010000000  0.4546340000000 1.0
C      1  0.4829850000000  0.4965780000000  0.5291030000000 1.0
C      1  0.4661920000000  0.5406580000000  0.5061220000000 1.0
C      1  0.5350720000000  0.4951730000000  0.4542400000000 1.0
C      1  0.5481510000000  0.4584820000000  0.4982600000000 1.0
END
