TITL C-950535-5962-723 1.0364956410301e-06 125000 -1106.73033673741 0 0 177 (C1) n - 1
REM
REM in /home/bkarasulu/work/CARBON/AIRSS/Generating-Clusters/EDIP-Nigel-Params/with-SteepDescent/Only-C1/SD-CG/HFTN-CG
REM
REM
REM
REM
REM
REM ./C.cell (11c1c37f851c82e70ff6c80c92926a4b)
REM
REM compiler GCC version 9.2.1 20190827 (Red Hat 9.2.1-1)
REM options -cpp -mtune=generic -march=x86-64 -g -O0 -fpre-include=/usr/include/finclude/math-vector-fortran.h
REM seed -439509574 310318636 -919085887 659459705 -1111456787 1252001097 -1341110025 765292399 1718054276 -1600800306 -758341269 -1296314718 1897826551 -448389854 -547628318 -1694559637 -1319114621 740469451 465323351 89320482 -84958794 -1309304248 1714714653 -1836774503 1643789365 1187751264 2040905872 -1350524809 2135907942 984541051 1031463665 -82280897 800694049
REM
CELL 1.54180   50.00000   50.00000   50.00000   90.00000   90.00000   90.00000
LATT -1
SFAC C  
C      1  0.4722000000000  0.3999960000000  0.4945630000000 1.0
C      1  0.4293380000000  0.5765850000000  0.5488900000000 1.0
C      1  0.5588370000000  0.5887780000000  0.4761210000000 1.0
C      1  0.5649150000000  0.4717720000000  0.5965510000000 1.0
C      1  0.5160470000000  0.5796340000000  0.5832680000000 1.0
C      1  0.5243360000000  0.4280060000000  0.4427180000000 1.0
C      1  0.5925270000000  0.5368920000000  0.4716830000000 1.0
C      1  0.4179860000000  0.4679010000000  0.4628580000000 1.0
C      1  0.5071030000000  0.4672480000000  0.5255950000000 1.0
C      1  0.4210980000000  0.4212630000000  0.4929870000000 1.0
C      1  0.4146360000000  0.4384640000000  0.5471820000000 1.0
C      1  0.4784180000000  0.5521160000000  0.5216220000000 1.0
C      1  0.4945040000000  0.4013660000000  0.4778540000000 1.0
C      1  0.4729880000000  0.4514540000000  0.5020800000000 1.0
C      1  0.4209560000000  0.5506250000000  0.5555710000000 1.0
C      1  0.5143580000000  0.6072760000000  0.4711160000000 1.0
C      1  0.6005200000000  0.5642290000000  0.5358640000000 1.0
C      1  0.4805500000000  0.3934900000000  0.5213250000000 1.0
C      1  0.5375830000000  0.4836450000000  0.6036510000000 1.0
C      1  0.5458990000000  0.5389610000000  0.4890980000000 1.0
C      1  0.4873140000000  0.5518630000000  0.4780970000000 1.0
C      1  0.5587450000000  0.4598980000000  0.4360970000000 1.0
C      1  0.4928630000000  0.5726250000000  0.5966930000000 1.0
C      1  0.4544160000000  0.5519150000000  0.4201500000000 1.0
C      1  0.4591410000000  0.4935560000000  0.4809770000000 1.0
C      1  0.4346190000000  0.4770620000000  0.4882140000000 1.0
C      1  0.5511410000000  0.4662000000000  0.5119240000000 1.0
C      1  0.5579160000000  0.4717780000000  0.3873030000000 1.0
C      1  0.5953740000000  0.4916040000000  0.5253120000000 1.0
C      1  0.4587830000000  0.5068660000000  0.4032210000000 1.0
C      1  0.4044700000000  0.4882650000000  0.5497090000000 1.0
C      1  0.5085730000000  0.5904810000000  0.5575370000000 1.0
C      1  0.4888910000000  0.6066890000000  0.4832430000000 1.0
C      1  0.6045260000000  0.4561800000000  0.4863280000000 1.0
C      1  0.5065460000000  0.5704070000000  0.4653100000000 1.0
C      1  0.4550110000000  0.5375090000000  0.5080940000000 1.0
C      1  0.4607530000000  0.4281850000000  0.4149130000000 1.0
C      1  0.5440530000000  0.4968910000000  0.5150670000000 1.0
C      1  0.5329700000000  0.4727480000000  0.4262410000000 1.0
C      1  0.5339570000000  0.5965100000000  0.4882560000000 1.0
C      1  0.4993060000000  0.5151750000000  0.5994040000000 1.0
C      1  0.5897790000000  0.4817930000000  0.4264830000000 1.0
C      1  0.5771750000000  0.5430470000000  0.4962710000000 1.0
C      1  0.5793000000000  0.5807930000000  0.4950360000000 1.0
C      1  0.5110480000000  0.4063970000000  0.4310740000000 1.0
C      1  0.5233730000000  0.4954650000000  0.4716130000000 1.0
C      1  0.4700480000000  0.5244410000000  0.6063810000000 1.0
C      1  0.5682890000000  0.5537190000000  0.4295780000000 1.0
C      1  0.5115870000000  0.4043740000000  0.5574080000000 1.0
C      1  0.5277570000000  0.5819350000000  0.4247840000000 1.0
C      1  0.4596490000000  0.5052530000000  0.4520360000000 1.0
C      1  0.5007460000000  0.5703260000000  0.4350290000000 1.0
C      1  0.5295850000000  0.4490530000000  0.5229310000000 1.0
C      1  0.5066400000000  0.5100670000000  0.4539510000000 1.0
C      1  0.4852760000000  0.4949160000000  0.4400620000000 1.0
C      1  0.5688810000000  0.4174590000000  0.4578210000000 1.0
C      1  0.5507800000000  0.4545720000000  0.4841280000000 1.0
C      1  0.4127980000000  0.5348270000000  0.5327440000000 1.0
C      1  0.4218070000000  0.5053380000000  0.5322770000000 1.0
C      1  0.5531560000000  0.4303800000000  0.4388130000000 1.0
C      1  0.5245580000000  0.5377990000000  0.5428970000000 1.0
C      1  0.4411480000000  0.4994450000000  0.4280530000000 1.0
C      1  0.5165750000000  0.5349360000000  0.4413720000000 1.0
C      1  0.5967950000000  0.5377640000000  0.5440760000000 1.0
C      1  0.4408290000000  0.5854960000000  0.5248890000000 1.0
C      1  0.5087080000000  0.3984610000000  0.5289940000000 1.0
C      1  0.5224940000000  0.4666670000000  0.5831960000000 1.0
C      1  0.5358130000000  0.5716670000000  0.3998870000000 1.0
C      1  0.4512610000000  0.5006530000000  0.6032350000000 1.0
C      1  0.4990650000000  0.5396100000000  0.5021990000000 1.0
C      1  0.4866600000000  0.5433680000000  0.5501480000000 1.0
C      1  0.4422740000000  0.4432840000000  0.5591720000000 1.0
C      1  0.5062980000000  0.5188430000000  0.3978080000000 1.0
C      1  0.5502110000000  0.5727020000000  0.4450200000000 1.0
C      1  0.4888350000000  0.5863250000000  0.5054010000000 1.0
C      1  0.4573600000000  0.5514160000000  0.4817400000000 1.0
C      1  0.5710100000000  0.4985810000000  0.4731210000000 1.0
C      1  0.4911290000000  0.5406010000000  0.3893770000000 1.0
C      1  0.5697580000000  0.5331440000000  0.5562530000000 1.0
C      1  0.5782080000000  0.4862110000000  0.5755040000000 1.0
C      1  0.5334870000000  0.5529680000000  0.4617120000000 1.0
C      1  0.3944650000000  0.5035490000000  0.4898250000000 1.0
C      1  0.5967960000000  0.4603860000000  0.4587230000000 1.0
C      1  0.4696260000000  0.4569580000000  0.4185590000000 1.0
C      1  0.4710490000000  0.5169020000000  0.5564950000000 1.0
C      1  0.4672250000000  0.4096370000000  0.4361230000000 1.0
C      1  0.5336970000000  0.4623640000000  0.3985570000000 1.0
C      1  0.4021160000000  0.5312280000000  0.4860840000000 1.0
C      1  0.4177050000000  0.5182300000000  0.4262110000000 1.0
C      1  0.5235510000000  0.4378530000000  0.5879030000000 1.0
C      1  0.5322990000000  0.5562630000000  0.5809520000000 1.0
C      1  0.5917070000000  0.4332010000000  0.4964570000000 1.0
C      1  0.5077220000000  0.4908750000000  0.6168600000000 1.0
C      1  0.4135130000000  0.4893340000000  0.5066360000000 1.0
C      1  0.4087710000000  0.5495290000000  0.5074810000000 1.0
C      1  0.3942950000000  0.5405750000000  0.4602380000000 1.0
C      1  0.4850440000000  0.4130970000000  0.5693450000000 1.0
C      1  0.4928550000000  0.4743080000000  0.5736210000000 1.0
C      1  0.4762750000000  0.5634090000000  0.5739610000000 1.0
C      1  0.4817100000000  0.4320600000000  0.5235370000000 1.0
C      1  0.5981910000000  0.5071640000000  0.4397500000000 1.0
C      1  0.4903070000000  0.4687190000000  0.6200220000000 1.0
C      1  0.4801680000000  0.5957190000000  0.5534300000000 1.0
C      1  0.5684800000000  0.5130930000000  0.5782210000000 1.0
C      1  0.5293690000000  0.5909010000000  0.5368110000000 1.0
C      1  0.4264900000000  0.5463870000000  0.4265190000000 1.0
C      1  0.5687010000000  0.4906320000000  0.4060610000000 1.0
C      1  0.4526640000000  0.4496950000000  0.5960820000000 1.0
C      1  0.6080590000000  0.5100530000000  0.4703660000000 1.0
C      1  0.4677710000000  0.6084890000000  0.4659300000000 1.0
C      1  0.5564890000000  0.5587940000000  0.5648880000000 1.0
C      1  0.5336000000000  0.4229830000000  0.5651470000000 1.0
C      1  0.5775330000000  0.4239810000000  0.5393120000000 1.0
C      1  0.4650700000000  0.4246480000000  0.5487470000000 1.0
C      1  0.5144560000000  0.4955350000000  0.5235480000000 1.0
C      1  0.4452490000000  0.4750180000000  0.5589520000000 1.0
C      1  0.4328710000000  0.4700740000000  0.4355980000000 1.0
C      1  0.4288000000000  0.5716840000000  0.5000950000000 1.0
C      1  0.5301880000000  0.5256520000000  0.4156640000000 1.0
C      1  0.5523710000000  0.5230900000000  0.5333090000000 1.0
C      1  0.4693950000000  0.5749770000000  0.4302800000000 1.0
C      1  0.5248520000000  0.4194110000000  0.5126910000000 1.0
C      1  0.5202330000000  0.5816760000000  0.5104390000000 1.0
C      1  0.5939460000000  0.5210150000000  0.5206860000000 1.0
C      1  0.4437040000000  0.4053720000000  0.4529810000000 1.0
C      1  0.5623970000000  0.4206570000000  0.5623430000000 1.0
C      1  0.5142060000000  0.5095660000000  0.5493720000000 1.0
C      1  0.5656990000000  0.4271360000000  0.4848680000000 1.0
C      1  0.5553080000000  0.5778790000000  0.5425620000000 1.0
C      1  0.5496200000000  0.4083170000000  0.5009650000000 1.0
C      1  0.5448890000000  0.5114490000000  0.5946560000000 1.0
C      1  0.5163150000000  0.4172490000000  0.4846750000000 1.0
C      1  0.4569780000000  0.5466310000000  0.5901330000000 1.0
C      1  0.5850810000000  0.4753940000000  0.5489380000000 1.0
C      1  0.4883310000000  0.3916830000000  0.4313720000000 1.0
C      1  0.5453850000000  0.5079020000000  0.4867960000000 1.0
C      1  0.4649750000000  0.5356010000000  0.3988200000000 1.0
C      1  0.5494130000000  0.5478310000000  0.4069700000000 1.0
C      1  0.4691180000000  0.5943860000000  0.5271140000000 1.0
C      1  0.4864110000000  0.4977790000000  0.4082420000000 1.0
C      1  0.5457940000000  0.5008380000000  0.4230390000000 1.0
C      1  0.4020900000000  0.4626260000000  0.5331240000000 1.0
C      1  0.4649870000000  0.5092090000000  0.5075640000000 1.0
C      1  0.5134880000000  0.4565570000000  0.4458320000000 1.0
C      1  0.4267970000000  0.5097220000000  0.5892500000000 1.0
C      1  0.4781080000000  0.4449990000000  0.6101050000000 1.0
C      1  0.4605960000000  0.4767520000000  0.5849820000000 1.0
C      1  0.4224200000000  0.4236690000000  0.4442990000000 1.0
C      1  0.4351530000000  0.5345070000000  0.5753170000000 1.0
C      1  0.4318900000000  0.5759510000000  0.4660940000000 1.0
C      1  0.4539720000000  0.5900490000000  0.4508960000000 1.0
C      1  0.5788130000000  0.5311840000000  0.4452350000000 1.0
C      1  0.4285250000000  0.4380710000000  0.5186150000000 1.0
C      1  0.5685990000000  0.4696380000000  0.4637420000000 1.0
C      1  0.5784550000000  0.5769490000000  0.5240440000000 1.0
C      1  0.4461840000000  0.4583670000000  0.5072970000000 1.0
C      1  0.4945850000000  0.4327160000000  0.5893820000000 1.0
C      1  0.4877590000000  0.4732890000000  0.4866290000000 1.0
C      1  0.5977590000000  0.4838360000000  0.4963290000000 1.0
C      1  0.5092140000000  0.4602980000000  0.3860180000000 1.0
C      1  0.5179540000000  0.4664730000000  0.4742870000000 1.0
C      1  0.4110200000000  0.4374620000000  0.4680840000000 1.0
C      1  0.3946630000000  0.4898120000000  0.4634480000000 1.0
C      1  0.4447460000000  0.4045910000000  0.4825290000000 1.0
C      1  0.4547010000000  0.4989790000000  0.5371280000000 1.0
C      1  0.5885720000000  0.4466740000000  0.5510870000000 1.0
C      1  0.3945960000000  0.5145820000000  0.4445750000000 1.0
C      1  0.4850910000000  0.4646110000000  0.4433960000000 1.0
C      1  0.4850820000000  0.4702930000000  0.3952360000000 1.0
C      1  0.5254040000000  0.5501450000000  0.5109870000000 1.0
C      1  0.4893520000000  0.4616710000000  0.5472500000000 1.0
C      1  0.4332080000000  0.4421490000000  0.4224400000000 1.0
C      1  0.4137070000000  0.4871550000000  0.5765110000000 1.0
C      1  0.4944480000000  0.5040930000000  0.5702230000000 1.0
C      1  0.4956200000000  0.5087110000000  0.5031180000000 1.0
C      1  0.5256240000000  0.5327870000000  0.5975840000000 1.0
C      1  0.4131980000000  0.5604010000000  0.4482410000000 1.0
END
