TITL C-951339-9237-467 -9.76562771852112e-07 125000 -222.400042217308 0 0 37 (C1) n - 1
REM
REM in /home/bkarasulu/work/CARBON/AIRSS/Generating-Clusters/EDIP-Nigel-Params/with-SteepDescent/Only-C1/SD-CG/HFTN-CG
REM
REM
REM
REM
REM
REM ./C.cell (11c1c37f851c82e70ff6c80c92926a4b)
REM
REM compiler GCC version 9.2.1 20190827 (Red Hat 9.2.1-1)
REM options -cpp -mtune=generic -march=x86-64 -g -O0 -fpre-include=/usr/include/finclude/math-vector-fortran.h
REM seed -511444428 -16620142 419240590 516992479 1105985119 -1637261432 1427213887 -1015457323 2092066472 -671263477 167757020 1495256442 -379044793 -152682441 1283148939 1493677587 -959951940 -1007914423 1190755490 -1804665011 377580722 -526456909 -1019509953 -1285736277 167207170 1808872201 156253410 -615239959 -179992304 1399167690 63289876 -869197026 1515357197
REM
CELL 1.54180   50.00000   50.00000   50.00000   90.00000   90.00000   90.00000
LATT -1
SFAC C  
C      1  0.5112170000000  0.5108610000000  0.4720890000000 1.0
C      1  0.4828600000000  0.5495550000000  0.5445850000000 1.0
C      1  0.5271620000000  0.5325070000000  0.4868990000000 1.0
C      1  0.4939060000000  0.5545030000000  0.5188490000000 1.0
C      1  0.4658950000000  0.5171300000000  0.4478740000000 1.0
C      1  0.4566240000000  0.4810680000000  0.4584340000000 1.0
C      1  0.5174230000000  0.4442770000000  0.5174800000000 1.0
C      1  0.5302880000000  0.4639040000000  0.4489690000000 1.0
C      1  0.4940770000000  0.4752000000000  0.5135770000000 1.0
C      1  0.4638920000000  0.4714020000000  0.5240940000000 1.0
C      1  0.4834180000000  0.4713640000000  0.4646360000000 1.0
C      1  0.4948840000000  0.4884780000000  0.4861440000000 1.0
C      1  0.4754810000000  0.5018090000000  0.5603330000000 1.0
C      1  0.5254920000000  0.5023320000000  0.5671870000000 1.0
C      1  0.4475540000000  0.4930000000000  0.5095520000000 1.0
C      1  0.5363830000000  0.5337210000000  0.5342930000000 1.0
C      1  0.5027570000000  0.4724140000000  0.4407180000000 1.0
C      1  0.4757940000000  0.5596780000000  0.4975470000000 1.0
C      1  0.4492940000000  0.5232840000000  0.4711520000000 1.0
C      1  0.5525790000000  0.4970030000000  0.4798880000000 1.0
C      1  0.4943720000000  0.5224170000000  0.4480050000000 1.0
C      1  0.5467880000000  0.4802890000000  0.5030890000000 1.0
C      1  0.5508640000000  0.4897590000000  0.5289990000000 1.0
C      1  0.5425530000000  0.5095700000000  0.5466050000000 1.0
C      1  0.4613620000000  0.5357110000000  0.4951270000000 1.0
C      1  0.5543190000000  0.5246020000000  0.4853320000000 1.0
C      1  0.4409310000000  0.4955520000000  0.4790970000000 1.0
C      1  0.4643890000000  0.4775660000000  0.5521000000000 1.0
C      1  0.5183810000000  0.5393790000000  0.5136850000000 1.0
C      1  0.5311540000000  0.4476060000000  0.4718570000000 1.0
C      1  0.5369850000000  0.4533380000000  0.4986170000000 1.0
C      1  0.5429720000000  0.4899660000000  0.4532830000000 1.0
C      1  0.4718420000000  0.5236450000000  0.5417640000000 1.0
C      1  0.5113210000000  0.5011900000000  0.4340540000000 1.0
C      1  0.4895910000000  0.4451090000000  0.5118310000000 1.0
C      1  0.4556170000000  0.5196850000000  0.5182460000000 1.0
C      1  0.4995810000000  0.5011270000000  0.5740080000000 1.0
END
