TITL C-950528-5794-506 -2.80875803475205e-06 125000 -1150.22293356743 0 0 185 (C1) n - 1
REM
REM in /home/bkarasulu/work/CARBON/AIRSS/Generating-Clusters/EDIP-Nigel-Params/with-SteepDescent/Only-C1/SD-CG/HFTN-CG
REM
REM
REM
REM
REM
REM ./C.cell (11c1c37f851c82e70ff6c80c92926a4b)
REM
REM compiler GCC version 9.2.1 20190827 (Red Hat 9.2.1-1)
REM options -cpp -mtune=generic -march=x86-64 -g -O0 -fpre-include=/usr/include/finclude/math-vector-fortran.h
REM seed 142058230 -392719586 -1482738499 -1508509996 1448501642 34306884 -1681986374 -831585541 -864211298 122410277 -1051153029 -536269158 551944758 -1969130830 -622256424 -755864935 1794660109 -100455689 1768757997 1227206675 58320978 -1588919882 -799078221 375563494 23553014 -477396356 -649541416 -1449777273 -1407137494 -890173215 -1093685120 -1945235197 1890884401
REM
CELL 1.54180   50.00000   50.00000   50.00000   90.00000   90.00000   90.00000
LATT -1
SFAC C  
C      1  0.5784310000000  0.5393110000000  0.4807640000000 1.0
C      1  0.4343860000000  0.5743790000000  0.4261690000000 1.0
C      1  0.5482710000000  0.4619640000000  0.5699350000000 1.0
C      1  0.5209150000000  0.4567730000000  0.6106280000000 1.0
C      1  0.4821710000000  0.4511550000000  0.5496800000000 1.0
C      1  0.4676250000000  0.4351710000000  0.5773830000000 1.0
C      1  0.4943050000000  0.6035310000000  0.4900790000000 1.0
C      1  0.4729190000000  0.5972320000000  0.5448830000000 1.0
C      1  0.4650760000000  0.4433000000000  0.5234110000000 1.0
C      1  0.5950120000000  0.5409040000000  0.5282690000000 1.0
C      1  0.4457590000000  0.3854860000000  0.4967150000000 1.0
C      1  0.4082650000000  0.4987990000000  0.4454560000000 1.0
C      1  0.4718990000000  0.5509870000000  0.5850280000000 1.0
C      1  0.5420000000000  0.4759750000000  0.4634070000000 1.0
C      1  0.5143370000000  0.5780210000000  0.5748890000000 1.0
C      1  0.4639290000000  0.5501490000000  0.4436780000000 1.0
C      1  0.5239200000000  0.5686500000000  0.3933560000000 1.0
C      1  0.4736840000000  0.4813780000000  0.5655920000000 1.0
C      1  0.5064020000000  0.5035900000000  0.5982370000000 1.0
C      1  0.5239280000000  0.5371500000000  0.5473310000000 1.0
C      1  0.4583860000000  0.5257820000000  0.5928120000000 1.0
C      1  0.4369710000000  0.5353740000000  0.4454640000000 1.0
C      1  0.5597040000000  0.5383960000000  0.3977890000000 1.0
C      1  0.5826550000000  0.4551660000000  0.4830220000000 1.0
C      1  0.5434130000000  0.5163610000000  0.4089030000000 1.0
C      1  0.4309390000000  0.4304750000000  0.4312390000000 1.0
C      1  0.4759760000000  0.4893590000000  0.5091080000000 1.0
C      1  0.4799300000000  0.5794420000000  0.4979730000000 1.0
C      1  0.5490640000000  0.5925220000000  0.5425620000000 1.0
C      1  0.4622120000000  0.5100230000000  0.4935070000000 1.0
C      1  0.4325970000000  0.4628020000000  0.5637820000000 1.0
C      1  0.4670400000000  0.4391700000000  0.4702810000000 1.0
C      1  0.4016900000000  0.5602940000000  0.5181530000000 1.0
C      1  0.4889730000000  0.3920350000000  0.5151880000000 1.0
C      1  0.5450970000000  0.5580720000000  0.5106760000000 1.0
C      1  0.5798520000000  0.4852800000000  0.4131280000000 1.0
C      1  0.4396660000000  0.4258100000000  0.5230570000000 1.0
C      1  0.4954480000000  0.4481390000000  0.6192370000000 1.0
C      1  0.5643480000000  0.4142910000000  0.4586750000000 1.0
C      1  0.4688460000000  0.5538800000000  0.5369520000000 1.0
C      1  0.5948400000000  0.5062460000000  0.4560790000000 1.0
C      1  0.5608270000000  0.5083040000000  0.5855610000000 1.0
C      1  0.5164740000000  0.5941400000000  0.4705650000000 1.0
C      1  0.5001960000000  0.4072280000000  0.5577990000000 1.0
C      1  0.3818080000000  0.5061980000000  0.4840080000000 1.0
C      1  0.4378040000000  0.5745990000000  0.4848710000000 1.0
C      1  0.4183530000000  0.5398820000000  0.4238310000000 1.0
C      1  0.3797580000000  0.5397420000000  0.4490240000000 1.0
C      1  0.5882330000000  0.5093570000000  0.4870630000000 1.0
C      1  0.4885590000000  0.4287100000000  0.5992550000000 1.0
C      1  0.5105100000000  0.4903120000000  0.5422270000000 1.0
C      1  0.5167490000000  0.4236090000000  0.4319300000000 1.0
C      1  0.4917450000000  0.5344460000000  0.4393060000000 1.0
C      1  0.5455150000000  0.5048920000000  0.4641900000000 1.0
C      1  0.5709170000000  0.4622980000000  0.4540060000000 1.0
C      1  0.5877030000000  0.5318120000000  0.4437180000000 1.0
C      1  0.5158340000000  0.5608330000000  0.4412690000000 1.0
C      1  0.4961240000000  0.3972240000000  0.4882550000000 1.0
C      1  0.5058410000000  0.5482730000000  0.4000270000000 1.0
C      1  0.5123840000000  0.4705840000000  0.4511260000000 1.0
C      1  0.4059020000000  0.5367470000000  0.5361370000000 1.0
C      1  0.4865250000000  0.5311350000000  0.5399890000000 1.0
C      1  0.5637730000000  0.4370610000000  0.4394150000000 1.0
C      1  0.4242510000000  0.4780530000000  0.4292850000000 1.0
C      1  0.5837920000000  0.4854190000000  0.5309410000000 1.0
C      1  0.4012490000000  0.5509080000000  0.4893320000000 1.0
C      1  0.4527020000000  0.5905770000000  0.5637350000000 1.0
C      1  0.6106580000000  0.4907340000000  0.5200660000000 1.0
C      1  0.4032310000000  0.4644190000000  0.5111580000000 1.0
C      1  0.4715280000000  0.5051620000000  0.3923850000000 1.0
C      1  0.4526770000000  0.5042810000000  0.5505010000000 1.0
C      1  0.4760260000000  0.3927550000000  0.5622920000000 1.0
C      1  0.5850270000000  0.5826680000000  0.4661920000000 1.0
C      1  0.4277050000000  0.5134090000000  0.4632760000000 1.0
C      1  0.4556790000000  0.4698820000000  0.5193730000000 1.0
C      1  0.4907110000000  0.5049030000000  0.5289050000000 1.0
C      1  0.5109560000000  0.4610040000000  0.5353020000000 1.0
C      1  0.4454520000000  0.5220710000000  0.5167620000000 1.0
C      1  0.5009610000000  0.4919790000000  0.5703020000000 1.0
C      1  0.4162030000000  0.5155640000000  0.5171130000000 1.0
C      1  0.4254860000000  0.4541020000000  0.4446810000000 1.0
C      1  0.4368960000000  0.4796890000000  0.5406770000000 1.0
C      1  0.5055920000000  0.4496760000000  0.4934960000000 1.0
C      1  0.5441480000000  0.5767790000000  0.5679290000000 1.0
C      1  0.4977520000000  0.5555020000000  0.4972080000000 1.0
C      1  0.4709090000000  0.4192600000000  0.4464020000000 1.0
C      1  0.5907600000000  0.5667070000000  0.5136610000000 1.0
C      1  0.4097160000000  0.4368090000000  0.5221370000000 1.0
C      1  0.4664290000000  0.6018410000000  0.5150350000000 1.0
C      1  0.5599390000000  0.4869970000000  0.6068010000000 1.0
C      1  0.5820200000000  0.4199360000000  0.5087990000000 1.0
C      1  0.6028960000000  0.4932280000000  0.5705640000000 1.0
C      1  0.5596830000000  0.5411640000000  0.4424630000000 1.0
C      1  0.4229070000000  0.5421910000000  0.5603340000000 1.0
C      1  0.4468220000000  0.4093320000000  0.4357030000000 1.0
C      1  0.5344080000000  0.5077910000000  0.5407220000000 1.0
C      1  0.3919530000000  0.4858210000000  0.4672420000000 1.0
C      1  0.4231070000000  0.5783520000000  0.5262700000000 1.0
C      1  0.4544130000000  0.4092500000000  0.5697970000000 1.0
C      1  0.4378510000000  0.5943010000000  0.5072450000000 1.0
C      1  0.5473620000000  0.5662020000000  0.4336780000000 1.0
C      1  0.5359640000000  0.5186140000000  0.4882570000000 1.0
C      1  0.5191460000000  0.5588600000000  0.5234210000000 1.0
C      1  0.4468790000000  0.4547990000000  0.5866980000000 1.0
C      1  0.5453400000000  0.6027180000000  0.4715510000000 1.0
C      1  0.4609560000000  0.3841760000000  0.5215000000000 1.0
C      1  0.5160850000000  0.5210100000000  0.3984070000000 1.0
C      1  0.5451050000000  0.5335070000000  0.5897490000000 1.0
C      1  0.4649080000000  0.5782270000000  0.4570610000000 1.0
C      1  0.4515220000000  0.4955680000000  0.4664910000000 1.0
C      1  0.4957960000000  0.4777000000000  0.4916830000000 1.0
C      1  0.4491940000000  0.5526570000000  0.5149430000000 1.0
C      1  0.4598170000000  0.4768310000000  0.6014720000000 1.0
C      1  0.5546890000000  0.4659720000000  0.4952090000000 1.0
C      1  0.5495320000000  0.5644170000000  0.4038570000000 1.0
C      1  0.4076560000000  0.4670830000000  0.4826620000000 1.0
C      1  0.4953070000000  0.4895610000000  0.4655240000000 1.0
C      1  0.4816420000000  0.4316810000000  0.4980540000000 1.0
C      1  0.5462770000000  0.5077750000000  0.5132300000000 1.0
C      1  0.5496310000000  0.5476890000000  0.5638300000000 1.0
C      1  0.4630620000000  0.5771910000000  0.4134890000000 1.0
C      1  0.5843300000000  0.4171210000000  0.4796990000000 1.0
C      1  0.5390940000000  0.4404300000000  0.4235350000000 1.0
C      1  0.4888200000000  0.4289210000000  0.4247230000000 1.0
C      1  0.5630980000000  0.5804210000000  0.5168370000000 1.0
C      1  0.5458950000000  0.5460860000000  0.4843700000000 1.0
C      1  0.5014340000000  0.5952540000000  0.5536670000000 1.0
C      1  0.5614180000000  0.5887840000000  0.4512860000000 1.0
C      1  0.4376360000000  0.5192950000000  0.5718650000000 1.0
C      1  0.5797490000000  0.5373050000000  0.5541280000000 1.0
C      1  0.5206740000000  0.5892400000000  0.5323550000000 1.0
C      1  0.5876940000000  0.4821280000000  0.4397430000000 1.0
C      1  0.5044920000000  0.4436380000000  0.4623780000000 1.0
C      1  0.5110840000000  0.3985950000000  0.5328050000000 1.0
C      1  0.4560900000000  0.4778780000000  0.4233050000000 1.0
C      1  0.4119700000000  0.4875240000000  0.5277710000000 1.0
C      1  0.5337790000000  0.4677610000000  0.4132870000000 1.0
C      1  0.5057740000000  0.4730870000000  0.4080980000000 1.0
C      1  0.5955000000000  0.5635510000000  0.4845960000000 1.0
C      1  0.5534090000000  0.4880870000000  0.4045720000000 1.0
C      1  0.4675190000000  0.5057520000000  0.4362200000000 1.0
C      1  0.5606020000000  0.4074160000000  0.5249360000000 1.0
C      1  0.4744380000000  0.5026620000000  0.6040910000000 1.0
C      1  0.4858430000000  0.4588630000000  0.4251550000000 1.0
C      1  0.4616600000000  0.5280930000000  0.4058110000000 1.0
C      1  0.4440550000000  0.4011430000000  0.5415630000000 1.0
C      1  0.5246460000000  0.3984450000000  0.4888440000000 1.0
C      1  0.4428970000000  0.4630950000000  0.4682010000000 1.0
C      1  0.4410610000000  0.4138800000000  0.4951320000000 1.0
C      1  0.4982470000000  0.5187640000000  0.4645760000000 1.0
C      1  0.4767690000000  0.5522330000000  0.4019610000000 1.0
C      1  0.5251380000000  0.4485120000000  0.5836070000000 1.0
C      1  0.5104800000000  0.4232710000000  0.5801040000000 1.0
C      1  0.5399110000000  0.4033030000000  0.4663890000000 1.0
C      1  0.6119490000000  0.5201660000000  0.5141900000000 1.0
C      1  0.5332890000000  0.4059040000000  0.5153160000000 1.0
C      1  0.3953950000000  0.5237610000000  0.4317610000000 1.0
C      1  0.3813120000000  0.5565200000000  0.4703780000000 1.0
C      1  0.4139550000000  0.4066280000000  0.4895670000000 1.0
C      1  0.4832060000000  0.5306720000000  0.4860870000000 1.0
C      1  0.4064490000000  0.5215700000000  0.4890630000000 1.0
C      1  0.5710850000000  0.4620940000000  0.5902530000000 1.0
C      1  0.5354040000000  0.4495040000000  0.5181280000000 1.0
C      1  0.5300810000000  0.4841850000000  0.6147690000000 1.0
C      1  0.5494080000000  0.4929230000000  0.5633020000000 1.0
C      1  0.5408860000000  0.5200130000000  0.4395160000000 1.0
C      1  0.5873470000000  0.5164620000000  0.5745250000000 1.0
C      1  0.4973360000000  0.5003730000000  0.4035800000000 1.0
C      1  0.5851730000000  0.4579890000000  0.5423170000000 1.0
C      1  0.5167300000000  0.5318520000000  0.5959030000000 1.0
C      1  0.5608320000000  0.4179610000000  0.5510700000000 1.0
C      1  0.3954770000000  0.4173180000000  0.5072350000000 1.0
C      1  0.5998340000000  0.4412750000000  0.5210740000000 1.0
C      1  0.5012120000000  0.5521380000000  0.5819860000000 1.0
C      1  0.5188170000000  0.5620210000000  0.4745670000000 1.0
C      1  0.5679710000000  0.4909580000000  0.5063040000000 1.0
C      1  0.6095520000000  0.4638350000000  0.5022770000000 1.0
C      1  0.5570410000000  0.4464900000000  0.5452350000000 1.0
C      1  0.5950210000000  0.4658290000000  0.5712410000000 1.0
C      1  0.4347550000000  0.5863280000000  0.4549590000000 1.0
C      1  0.5589830000000  0.6003950000000  0.4960880000000 1.0
C      1  0.5069500000000  0.5908190000000  0.4403000000000 1.0
C      1  0.4786610000000  0.5946060000000  0.4354950000000 1.0
C      1  0.4551310000000  0.4825190000000  0.3943660000000 1.0
C      1  0.4547690000000  0.5613880000000  0.5626290000000 1.0
END
