TITL C-950522-5749-73 -1.4333006674394e-06 125000 -1011.25564759299 0 0 161 (C1) n - 1
REM
REM in /home/bkarasulu/work/CARBON/AIRSS/Generating-Clusters/EDIP-Nigel-Params/with-SteepDescent/Only-C1/SD-CG/HFTN-CG
REM
REM
REM
REM
REM
REM ./C.cell (11c1c37f851c82e70ff6c80c92926a4b)
REM
REM compiler GCC version 9.2.1 20190827 (Red Hat 9.2.1-1)
REM options -cpp -mtune=generic -march=x86-64 -g -O0 -fpre-include=/usr/include/finclude/math-vector-fortran.h
REM seed -50151635 -208614114 603893762 938449504 893945938 -1006219698 1254185683 -1228815264 1238760080 1264960387 -2074868065 -2139504319 -1088554998 1481306086 1996065914 -1640045137 535927307 873481059 -1760276849 905293028 -1697265099 -2001158760 1331812921 -2108841342 -2011055948 -808937643 -672882175 -1679653258 -2093456907 1980440424 2049610820 639898682 819792546
REM
CELL 1.54180   50.00000   50.00000   50.00000   90.00000   90.00000   90.00000
LATT -1
SFAC C  
C      1  0.4804190000000  0.5206730000000  0.5582660000000 1.0
C      1  0.4329200000000  0.4453710000000  0.4568100000000 1.0
C      1  0.4362100000000  0.5075500000000  0.5657190000000 1.0
C      1  0.5083430000000  0.4523510000000  0.4434620000000 1.0
C      1  0.5510160000000  0.4643920000000  0.5053440000000 1.0
C      1  0.4534320000000  0.5014480000000  0.5914300000000 1.0
C      1  0.5083960000000  0.4910160000000  0.5307000000000 1.0
C      1  0.4071340000000  0.5579760000000  0.4977490000000 1.0
C      1  0.4803530000000  0.4660740000000  0.6122040000000 1.0
C      1  0.5583080000000  0.4147210000000  0.5349080000000 1.0
C      1  0.4836560000000  0.5053820000000  0.4541190000000 1.0
C      1  0.4694240000000  0.5441060000000  0.5198740000000 1.0
C      1  0.5363350000000  0.4375280000000  0.5701600000000 1.0
C      1  0.5074960000000  0.4140500000000  0.5353380000000 1.0
C      1  0.5997220000000  0.4973910000000  0.5099800000000 1.0
C      1  0.5587760000000  0.5549410000000  0.5742100000000 1.0
C      1  0.4452950000000  0.4940910000000  0.4238310000000 1.0
C      1  0.4372730000000  0.5829050000000  0.5450710000000 1.0
C      1  0.4166880000000  0.4858980000000  0.5613750000000 1.0
C      1  0.4587880000000  0.4582760000000  0.4475930000000 1.0
C      1  0.4027870000000  0.5245800000000  0.5353190000000 1.0
C      1  0.5296850000000  0.5219960000000  0.4165220000000 1.0
C      1  0.5453680000000  0.5615730000000  0.5323320000000 1.0
C      1  0.5576360000000  0.4089500000000  0.5048250000000 1.0
C      1  0.5014990000000  0.5342790000000  0.4149220000000 1.0
C      1  0.4364840000000  0.5446970000000  0.4307830000000 1.0
C      1  0.5754530000000  0.4272030000000  0.4639210000000 1.0
C      1  0.5651280000000  0.4253810000000  0.4390360000000 1.0
C      1  0.5446130000000  0.4320660000000  0.4209800000000 1.0
C      1  0.4524610000000  0.5227230000000  0.4189220000000 1.0
C      1  0.4814920000000  0.6036560000000  0.5293950000000 1.0
C      1  0.4969600000000  0.5508910000000  0.4665350000000 1.0
C      1  0.4827190000000  0.5680640000000  0.5778320000000 1.0
C      1  0.5091220000000  0.4034930000000  0.5067010000000 1.0
C      1  0.4981890000000  0.4143980000000  0.4140300000000 1.0
C      1  0.5681390000000  0.5702370000000  0.5503380000000 1.0
C      1  0.4105490000000  0.4667380000000  0.4593770000000 1.0
C      1  0.4136290000000  0.4448450000000  0.5253060000000 1.0
C      1  0.4840260000000  0.4539020000000  0.4604460000000 1.0
C      1  0.4700480000000  0.4751990000000  0.4097160000000 1.0
C      1  0.4882700000000  0.6179040000000  0.5057900000000 1.0
C      1  0.4571640000000  0.4881450000000  0.4517810000000 1.0
C      1  0.5562990000000  0.5186830000000  0.5282240000000 1.0
C      1  0.3993690000000  0.5088750000000  0.4849040000000 1.0
C      1  0.5298270000000  0.4488930000000  0.4897330000000 1.0
C      1  0.5498400000000  0.5459910000000  0.4170870000000 1.0
C      1  0.3970030000000  0.4650140000000  0.5112690000000 1.0
C      1  0.4418490000000  0.5562240000000  0.5518450000000 1.0
C      1  0.5035790000000  0.5856930000000  0.5404540000000 1.0
C      1  0.4100550000000  0.4805210000000  0.4875130000000 1.0
C      1  0.4056890000000  0.5297780000000  0.5057170000000 1.0
C      1  0.5502260000000  0.5313890000000  0.4590810000000 1.0
C      1  0.4146290000000  0.4906080000000  0.4412580000000 1.0
C      1  0.4096430000000  0.5630000000000  0.4687570000000 1.0
C      1  0.4945340000000  0.5966370000000  0.4492420000000 1.0
C      1  0.4406450000000  0.6056570000000  0.5014250000000 1.0
C      1  0.4750750000000  0.4095600000000  0.5743420000000 1.0
C      1  0.4701360000000  0.5501930000000  0.5584740000000 1.0
C      1  0.5931320000000  0.5454190000000  0.4878140000000 1.0
C      1  0.4735460000000  0.4230480000000  0.4247770000000 1.0
C      1  0.5341700000000  0.5661560000000  0.4049340000000 1.0
C      1  0.5612680000000  0.5038480000000  0.4507700000000 1.0
C      1  0.5127550000000  0.5509600000000  0.4911660000000 1.0
C      1  0.5121500000000  0.4695570000000  0.5516680000000 1.0
C      1  0.5015200000000  0.4530970000000  0.5020790000000 1.0
C      1  0.4439790000000  0.4501550000000  0.5823330000000 1.0
C      1  0.4677210000000  0.4139410000000  0.4545500000000 1.0
C      1  0.4894950000000  0.5053350000000  0.4868700000000 1.0
C      1  0.5030090000000  0.4436250000000  0.5319530000000 1.0
C      1  0.4538550000000  0.5189940000000  0.5185590000000 1.0
C      1  0.5975420000000  0.5069230000000  0.4625230000000 1.0
C      1  0.5087940000000  0.5623950000000  0.4171690000000 1.0
C      1  0.5051740000000  0.5194190000000  0.5381690000000 1.0
C      1  0.5222290000000  0.5801740000000  0.4963690000000 1.0
C      1  0.5287740000000  0.5490230000000  0.5723360000000 1.0
C      1  0.5282330000000  0.5045460000000  0.4879400000000 1.0
C      1  0.4667780000000  0.6125100000000  0.4883750000000 1.0
C      1  0.4954950000000  0.4821830000000  0.5063620000000 1.0
C      1  0.4272250000000  0.4351700000000  0.4995070000000 1.0
C      1  0.5998440000000  0.4753940000000  0.4302060000000 1.0
C      1  0.5592440000000  0.4539820000000  0.5605380000000 1.0
C      1  0.5773630000000  0.4504920000000  0.5107000000000 1.0
C      1  0.6097100000000  0.4647350000000  0.4769430000000 1.0
C      1  0.5711890000000  0.4794000000000  0.5688110000000 1.0
C      1  0.5727510000000  0.5281760000000  0.5717840000000 1.0
C      1  0.4823300000000  0.4595260000000  0.5606110000000 1.0
C      1  0.4583820000000  0.5102100000000  0.4904600000000 1.0
C      1  0.4811210000000  0.5116110000000  0.5867620000000 1.0
C      1  0.5444550000000  0.4603970000000  0.4117230000000 1.0
C      1  0.5201940000000  0.4737780000000  0.3997960000000 1.0
C      1  0.5730030000000  0.5844540000000  0.4834910000000 1.0
C      1  0.5781680000000  0.4259380000000  0.4919830000000 1.0
C      1  0.4546260000000  0.4726080000000  0.6007860000000 1.0
C      1  0.5324040000000  0.4903450000000  0.4599140000000 1.0
C      1  0.5743050000000  0.4395220000000  0.5396290000000 1.0
C      1  0.4626130000000  0.4249960000000  0.5331620000000 1.0
C      1  0.5277510000000  0.5844840000000  0.5245830000000 1.0
C      1  0.3977070000000  0.4965360000000  0.5421420000000 1.0
C      1  0.5629440000000  0.4835590000000  0.4023470000000 1.0
C      1  0.5956400000000  0.4842920000000  0.5560470000000 1.0
C      1  0.5585730000000  0.5554480000000  0.4455220000000 1.0
C      1  0.5317760000000  0.4160330000000  0.4918510000000 1.0
C      1  0.6020220000000  0.5173190000000  0.4880960000000 1.0
C      1  0.5468600000000  0.4934760000000  0.5089070000000 1.0
C      1  0.4675120000000  0.5432430000000  0.4712590000000 1.0
C      1  0.5331610000000  0.4144190000000  0.5518230000000 1.0
C      1  0.5443470000000  0.5888050000000  0.4778570000000 1.0
C      1  0.4252780000000  0.5892340000000  0.4693280000000 1.0
C      1  0.4058850000000  0.5146080000000  0.4566400000000 1.0
C      1  0.4581600000000  0.5037170000000  0.5443910000000 1.0
C      1  0.4803780000000  0.4084420000000  0.5471380000000 1.0
C      1  0.5086010000000  0.5716120000000  0.4462830000000 1.0
C      1  0.4618830000000  0.4468450000000  0.4110870000000 1.0
C      1  0.4782450000000  0.4389260000000  0.4838160000000 1.0
C      1  0.5362850000000  0.5006800000000  0.3954460000000 1.0
C      1  0.4349180000000  0.5732210000000  0.5030750000000 1.0
C      1  0.5371060000000  0.5335350000000  0.4863010000000 1.0
C      1  0.4561840000000  0.5635900000000  0.4403960000000 1.0
C      1  0.4475590000000  0.5894050000000  0.4503750000000 1.0
C      1  0.4381980000000  0.4147070000000  0.4618200000000 1.0
C      1  0.5928720000000  0.5640410000000  0.5096760000000 1.0
C      1  0.4608920000000  0.4513840000000  0.5232680000000 1.0
C      1  0.6087960000000  0.4823360000000  0.4554520000000 1.0
C      1  0.4334340000000  0.4064150000000  0.4909890000000 1.0
C      1  0.5316570000000  0.5289870000000  0.5481570000000 1.0
C      1  0.6013700000000  0.4686130000000  0.5034970000000 1.0
C      1  0.5203560000000  0.5309260000000  0.5952210000000 1.0
C      1  0.4421960000000  0.4817110000000  0.4867820000000 1.0
C      1  0.4524100000000  0.4526210000000  0.4960490000000 1.0
C      1  0.5152960000000  0.4840400000000  0.5866230000000 1.0
C      1  0.5566550000000  0.5041870000000  0.5749430000000 1.0
C      1  0.5380120000000  0.5763540000000  0.4524200000000 1.0
C      1  0.5077050000000  0.5719370000000  0.5662830000000 1.0
C      1  0.5785910000000  0.4936240000000  0.4249270000000 1.0
C      1  0.5194520000000  0.4410180000000  0.5928410000000 1.0
C      1  0.3801250000000  0.4799400000000  0.5277290000000 1.0
C      1  0.4511120000000  0.6029030000000  0.5308950000000 1.0
C      1  0.5093630000000  0.4982360000000  0.4395360000000 1.0
C      1  0.4701370000000  0.6043680000000  0.4604740000000 1.0
C      1  0.4841670000000  0.3916210000000  0.4636470000000 1.0
C      1  0.5828110000000  0.5270470000000  0.5435800000000 1.0
C      1  0.4198510000000  0.5396270000000  0.4539200000000 1.0
C      1  0.5910920000000  0.5561510000000  0.5373820000000 1.0
C      1  0.4580860000000  0.3961670000000  0.5016920000000 1.0
C      1  0.4719240000000  0.4372880000000  0.5799140000000 1.0
C      1  0.4844070000000  0.3964970000000  0.4914010000000 1.0
C      1  0.5836720000000  0.5633530000000  0.4650740000000 1.0
C      1  0.4314460000000  0.4606730000000  0.5552980000000 1.0
C      1  0.5172520000000  0.4260540000000  0.4308740000000 1.0
C      1  0.5304250000000  0.4606930000000  0.4619530000000 1.0
C      1  0.4937910000000  0.5291720000000  0.6047600000000 1.0
C      1  0.6013350000000  0.5047560000000  0.5379770000000 1.0
C      1  0.5006170000000  0.4750280000000  0.4216160000000 1.0
C      1  0.4597820000000  0.5581900000000  0.4966600000000 1.0
C      1  0.5078110000000  0.4636930000000  0.6051420000000 1.0
C      1  0.5549550000000  0.5415340000000  0.5095100000000 1.0
C      1  0.4780540000000  0.5292770000000  0.4334850000000 1.0
C      1  0.4228200000000  0.5340020000000  0.5563600000000 1.0
C      1  0.4975510000000  0.5375330000000  0.5147970000000 1.0
C      1  0.5337570000000  0.5050600000000  0.5923080000000 1.0
C      1  0.4586430000000  0.4709910000000  0.5445560000000 1.0
END
