TITL C-950530-3293-496 -9.86302800053742e-07 125000 -1139.22553806798 0 0 183 (C1) n - 1
REM
REM in /home/bkarasulu/work/CARBON/AIRSS/Generating-Clusters/EDIP-Nigel-Params/with-SteepDescent/Only-C1/SD-CG/HFTN-CG
REM
REM
REM
REM
REM
REM ./C.cell (11c1c37f851c82e70ff6c80c92926a4b)
REM
REM compiler GCC version 9.2.1 20190827 (Red Hat 9.2.1-1)
REM options -cpp -mtune=generic -march=x86-64 -g -O0 -fpre-include=/usr/include/finclude/math-vector-fortran.h
REM seed 975053491 -162929190 1707401810 1933801792 1543504812 -499633340 661423008 -403227774 -1657009571 1818454435 -890958647 1279027508 -1773980421 1582719333 300407321 -931660384 -1989190074 658804862 69657147 -561564656 -2026436202 -1693090358 -430710613 -1999829849 -1019627942 725157374 470563884 -1180048351 619518612 56729059 -433440013 684314014 1726582460
REM
CELL 1.54180   50.00000   50.00000   50.00000   90.00000   90.00000   90.00000
LATT -1
SFAC C  
C      1  0.4713440000000  0.5702910000000  0.5948630000000 1.0
C      1  0.4207430000000  0.4675550000000  0.5501590000000 1.0
C      1  0.4432180000000  0.5247480000000  0.5236690000000 1.0
C      1  0.4458390000000  0.4993270000000  0.4707770000000 1.0
C      1  0.4486370000000  0.5717180000000  0.5370040000000 1.0
C      1  0.4006520000000  0.4786350000000  0.5304300000000 1.0
C      1  0.6088510000000  0.4655620000000  0.5450580000000 1.0
C      1  0.4495860000000  0.5904710000000  0.4929420000000 1.0
C      1  0.5164030000000  0.4592570000000  0.4584720000000 1.0
C      1  0.4485400000000  0.5594320000000  0.4139980000000 1.0
C      1  0.5747400000000  0.5935030000000  0.4856100000000 1.0
C      1  0.4850410000000  0.4981040000000  0.4247530000000 1.0
C      1  0.4165900000000  0.4974130000000  0.4365000000000 1.0
C      1  0.4254300000000  0.5779570000000  0.5534560000000 1.0
C      1  0.3958570000000  0.5582620000000  0.5253820000000 1.0
C      1  0.5448150000000  0.4621090000000  0.4505020000000 1.0
C      1  0.4189690000000  0.4238900000000  0.5246750000000 1.0
C      1  0.4151570000000  0.5001850000000  0.5130030000000 1.0
C      1  0.4857440000000  0.5323460000000  0.3937520000000 1.0
C      1  0.4484480000000  0.5537650000000  0.5909290000000 1.0
C      1  0.5155160000000  0.4360460000000  0.4795190000000 1.0
C      1  0.5802150000000  0.4541780000000  0.4828570000000 1.0
C      1  0.5613990000000  0.4395900000000  0.4157240000000 1.0
C      1  0.4131610000000  0.5565070000000  0.5018350000000 1.0
C      1  0.5619600000000  0.4186570000000  0.5473160000000 1.0
C      1  0.4270290000000  0.5655380000000  0.5775550000000 1.0
C      1  0.5177050000000  0.4652150000000  0.5441930000000 1.0
C      1  0.5848250000000  0.5401660000000  0.5596660000000 1.0
C      1  0.5138470000000  0.5027230000000  0.5212430000000 1.0
C      1  0.5610380000000  0.4443260000000  0.5057980000000 1.0
C      1  0.4262460000000  0.5247370000000  0.5477540000000 1.0
C      1  0.4029850000000  0.5405760000000  0.5450690000000 1.0
C      1  0.4270880000000  0.5755090000000  0.4579710000000 1.0
C      1  0.4934850000000  0.5227100000000  0.4435500000000 1.0
C      1  0.4838620000000  0.4662350000000  0.4396700000000 1.0
C      1  0.3924510000000  0.5109200000000  0.4967990000000 1.0
C      1  0.4897710000000  0.5907530000000  0.5560080000000 1.0
C      1  0.5232440000000  0.6040660000000  0.5006720000000 1.0
C      1  0.5847040000000  0.4352680000000  0.4612060000000 1.0
C      1  0.4906780000000  0.5949030000000  0.4668330000000 1.0
C      1  0.5094060000000  0.4968860000000  0.4058660000000 1.0
C      1  0.4951660000000  0.5235990000000  0.5086550000000 1.0
C      1  0.4389560000000  0.4592140000000  0.4309590000000 1.0
C      1  0.4694470000000  0.4256620000000  0.5021210000000 1.0
C      1  0.4971380000000  0.5585100000000  0.5989250000000 1.0
C      1  0.4054660000000  0.5335140000000  0.4830940000000 1.0
C      1  0.4737080000000  0.5203420000000  0.5313590000000 1.0
C      1  0.5216060000000  0.4147570000000  0.5158790000000 1.0
C      1  0.5335660000000  0.5317260000000  0.3821570000000 1.0
C      1  0.5205620000000  0.4724240000000  0.3975680000000 1.0
C      1  0.5228600000000  0.5182190000000  0.6169510000000 1.0
C      1  0.5719850000000  0.5182580000000  0.4906190000000 1.0
C      1  0.5457980000000  0.5323320000000  0.6056360000000 1.0
C      1  0.5779100000000  0.5438210000000  0.4712920000000 1.0
C      1  0.4457320000000  0.4750270000000  0.5376680000000 1.0
C      1  0.5685520000000  0.4663140000000  0.5285870000000 1.0
C      1  0.4169730000000  0.4501990000000  0.4517160000000 1.0
C      1  0.5852810000000  0.5301240000000  0.4410390000000 1.0
C      1  0.4500700000000  0.5500020000000  0.4745700000000 1.0
C      1  0.5259150000000  0.5038190000000  0.5803220000000 1.0
C      1  0.4908590000000  0.5399660000000  0.5495400000000 1.0
C      1  0.5034060000000  0.5885010000000  0.5136680000000 1.0
C      1  0.5905100000000  0.5679590000000  0.4883100000000 1.0
C      1  0.5884990000000  0.4950960000000  0.5116150000000 1.0
C      1  0.4973910000000  0.5320070000000  0.6115180000000 1.0
C      1  0.4297530000000  0.4694660000000  0.4046820000000 1.0
C      1  0.5593500000000  0.4739220000000  0.4728450000000 1.0
C      1  0.5181060000000  0.5881380000000  0.5633480000000 1.0
C      1  0.5089630000000  0.4489330000000  0.4075350000000 1.0
C      1  0.5428290000000  0.5358600000000  0.4083000000000 1.0
C      1  0.5003560000000  0.4393570000000  0.5800580000000 1.0
C      1  0.5694250000000  0.4701050000000  0.4120990000000 1.0
C      1  0.4631410000000  0.4942120000000  0.5515260000000 1.0
C      1  0.4734780000000  0.5652900000000  0.5568170000000 1.0
C      1  0.4436710000000  0.5322010000000  0.4181850000000 1.0
C      1  0.5499610000000  0.5599070000000  0.4704300000000 1.0
C      1  0.4517220000000  0.5246440000000  0.5914910000000 1.0
C      1  0.5434850000000  0.4130650000000  0.4539510000000 1.0
C      1  0.5573280000000  0.5883710000000  0.4618380000000 1.0
C      1  0.5445340000000  0.5902530000000  0.5372890000000 1.0
C      1  0.4512700000000  0.4690750000000  0.5099270000000 1.0
C      1  0.5498490000000  0.4056890000000  0.5246680000000 1.0
C      1  0.5190830000000  0.5090750000000  0.4555990000000 1.0
C      1  0.5133100000000  0.4835720000000  0.6027290000000 1.0
C      1  0.5251350000000  0.5484800000000  0.4261320000000 1.0
C      1  0.4967920000000  0.5472400000000  0.4194630000000 1.0
C      1  0.5451520000000  0.4806920000000  0.4257320000000 1.0
C      1  0.5217420000000  0.5696040000000  0.5862340000000 1.0
C      1  0.5420850000000  0.4035530000000  0.4808960000000 1.0
C      1  0.5918390000000  0.4834610000000  0.4233500000000 1.0
C      1  0.4931810000000  0.4635410000000  0.5246880000000 1.0
C      1  0.4839010000000  0.6015400000000  0.5294330000000 1.0
C      1  0.5446320000000  0.4794190000000  0.5422890000000 1.0
C      1  0.5135330000000  0.4177240000000  0.5655040000000 1.0
C      1  0.5284180000000  0.4291450000000  0.4153870000000 1.0
C      1  0.5201320000000  0.4550280000000  0.5952540000000 1.0
C      1  0.4078390000000  0.4777390000000  0.4608400000000 1.0
C      1  0.4804880000000  0.4440410000000  0.4016540000000 1.0
C      1  0.4910140000000  0.5767790000000  0.4265080000000 1.0
C      1  0.4119240000000  0.4395100000000  0.5005250000000 1.0
C      1  0.5029920000000  0.4123570000000  0.5387270000000 1.0
C      1  0.5330160000000  0.6051870000000  0.4512450000000 1.0
C      1  0.4959620000000  0.4044200000000  0.4557030000000 1.0
C      1  0.4778630000000  0.5400660000000  0.4651360000000 1.0
C      1  0.5626300000000  0.4132170000000  0.5001860000000 1.0
C      1  0.4558740000000  0.4300110000000  0.5537640000000 1.0
C      1  0.4621340000000  0.5817170000000  0.4242590000000 1.0
C      1  0.4307320000000  0.5272440000000  0.4674350000000 1.0
C      1  0.6008760000000  0.4944600000000  0.5395640000000 1.0
C      1  0.4793960000000  0.3957200000000  0.5036430000000 1.0
C      1  0.4220000000000  0.5813120000000  0.4860520000000 1.0
C      1  0.4752040000000  0.5141190000000  0.6052600000000 1.0
C      1  0.4356760000000  0.4698490000000  0.5966570000000 1.0
C      1  0.5825980000000  0.4503430000000  0.5522580000000 1.0
C      1  0.5478710000000  0.5613890000000  0.5315160000000 1.0
C      1  0.5113340000000  0.4861300000000  0.4734460000000 1.0
C      1  0.5260940000000  0.5522060000000  0.4552870000000 1.0
C      1  0.5726370000000  0.4858900000000  0.5870540000000 1.0
C      1  0.5476860000000  0.5083340000000  0.4418600000000 1.0
C      1  0.4697890000000  0.4649820000000  0.3861530000000 1.0
C      1  0.4677490000000  0.4167490000000  0.4501820000000 1.0
C      1  0.6158840000000  0.4532730000000  0.5206510000000 1.0
C      1  0.5878060000000  0.5099520000000  0.5615180000000 1.0
C      1  0.5473030000000  0.5258260000000  0.5043600000000 1.0
C      1  0.4729810000000  0.4644890000000  0.4671070000000 1.0
C      1  0.4560760000000  0.5955430000000  0.5212580000000 1.0
C      1  0.5520330000000  0.4954030000000  0.5676100000000 1.0
C      1  0.4303630000000  0.4830010000000  0.4920570000000 1.0
C      1  0.5680690000000  0.5511820000000  0.5805070000000 1.0
C      1  0.4226890000000  0.4320360000000  0.4737810000000 1.0
C      1  0.4716410000000  0.4409460000000  0.5279580000000 1.0
C      1  0.4631200000000  0.4661120000000  0.5931140000000 1.0
C      1  0.5293820000000  0.4511260000000  0.5039700000000 1.0
C      1  0.4823200000000  0.3928460000000  0.5334430000000 1.0
C      1  0.4828570000000  0.4860650000000  0.6028560000000 1.0
C      1  0.5499330000000  0.6039130000000  0.5117420000000 1.0
C      1  0.5602030000000  0.4357830000000  0.4460430000000 1.0
C      1  0.5054850000000  0.5053240000000  0.5585350000000 1.0
C      1  0.4223040000000  0.4833150000000  0.5765510000000 1.0
C      1  0.5290800000000  0.5413110000000  0.5488140000000 1.0
C      1  0.3932880000000  0.4624780000000  0.5054090000000 1.0
C      1  0.5145490000000  0.6095560000000  0.4734690000000 1.0
C      1  0.6104700000000  0.4880270000000  0.4921570000000 1.0
C      1  0.4433870000000  0.4112350000000  0.4697650000000 1.0
C      1  0.5425940000000  0.4229330000000  0.5680810000000 1.0
C      1  0.5248040000000  0.4820260000000  0.4998110000000 1.0
C      1  0.5769960000000  0.5527210000000  0.5340780000000 1.0
C      1  0.4660090000000  0.4425780000000  0.4285590000000 1.0
C      1  0.5954420000000  0.5603380000000  0.5145350000000 1.0
C      1  0.5142290000000  0.5945460000000  0.4308940000000 1.0
C      1  0.4830460000000  0.4384140000000  0.4787900000000 1.0
C      1  0.6006130000000  0.5045010000000  0.4405600000000 1.0
C      1  0.5652350000000  0.5006360000000  0.4667660000000 1.0
C      1  0.4455600000000  0.4880410000000  0.4415410000000 1.0
C      1  0.5391180000000  0.5462030000000  0.5795540000000 1.0
C      1  0.6086230000000  0.4598080000000  0.4943750000000 1.0
C      1  0.4716800000000  0.4424710000000  0.5786640000000 1.0
C      1  0.4902130000000  0.4780480000000  0.5606120000000 1.0
C      1  0.4227470000000  0.5260940000000  0.4381180000000 1.0
C      1  0.5004860000000  0.5581150000000  0.4715720000000 1.0
C      1  0.5191160000000  0.4150610000000  0.4402980000000 1.0
C      1  0.4420250000000  0.5512220000000  0.5118810000000 1.0
C      1  0.4471840000000  0.5934720000000  0.4471490000000 1.0
C      1  0.6093960000000  0.4972110000000  0.4659050000000 1.0
C      1  0.4770150000000  0.4832080000000  0.5074810000000 1.0
C      1  0.4633590000000  0.6026680000000  0.4703180000000 1.0
C      1  0.5726410000000  0.4581770000000  0.5803630000000 1.0
C      1  0.5466660000000  0.4453070000000  0.5857670000000 1.0
C      1  0.4627720000000  0.5108660000000  0.4052670000000 1.0
C      1  0.5383220000000  0.5535040000000  0.5016100000000 1.0
C      1  0.3874120000000  0.4830320000000  0.4830410000000 1.0
C      1  0.5686980000000  0.5304360000000  0.4176660000000 1.0
C      1  0.5043300000000  0.3958660000000  0.4841680000000 1.0
C      1  0.4392550000000  0.5076570000000  0.5695370000000 1.0
C      1  0.4506170000000  0.4845910000000  0.3919520000000 1.0
C      1  0.5094220000000  0.5173800000000  0.3851980000000 1.0
C      1  0.4809430000000  0.4892090000000  0.4797030000000 1.0
C      1  0.4357960000000  0.3997080000000  0.5219220000000 1.0
C      1  0.5388540000000  0.5165460000000  0.5314870000000 1.0
C      1  0.4256170000000  0.4376760000000  0.5505800000000 1.0
C      1  0.5071510000000  0.5521960000000  0.5007690000000 1.0
C      1  0.4487220000000  0.3931210000000  0.4943220000000 1.0
C      1  0.4559560000000  0.3999140000000  0.5450370000000 1.0
END
