TITL C-951344-124-247 -9.98386497021059e-07 125000 -1137.36246268976 0 0 183 (C1) n - 1
REM
REM in /home/bkarasulu/work/CARBON/AIRSS/Generating-Clusters/EDIP-Nigel-Params/with-SteepDescent/Only-C1/SD-CG/HFTN-CG
REM
REM
REM
REM
REM
REM ./C.cell (11c1c37f851c82e70ff6c80c92926a4b)
REM
REM compiler GCC version 9.2.1 20190827 (Red Hat 9.2.1-1)
REM options -cpp -mtune=generic -march=x86-64 -g -O0 -fpre-include=/usr/include/finclude/math-vector-fortran.h
REM seed -1290299097 1057063905 1789140458 2040257827 1600060697 185846852 -630662832 1864523339 -511106911 258018953 -82440261 -1694151832 -278718841 -2127705285 -343725767 1477925759 -1160649906 -1969317144 1031315199 217067623 -2009643304 724235952 -2052285153 2138109088 1744255840 -913250317 -843838563 -570671980 -1085615490 1850380845 -925932817 -956860233 520262100
REM
CELL 1.54180   50.00000   50.00000   50.00000   90.00000   90.00000   90.00000
LATT -1
SFAC C  
C      1  0.4096470000000  0.5324360000000  0.4847900000000 1.0
C      1  0.5580640000000  0.4547300000000  0.4967090000000 1.0
C      1  0.5669440000000  0.4694330000000  0.4352680000000 1.0
C      1  0.4336400000000  0.4943280000000  0.4880900000000 1.0
C      1  0.4817050000000  0.5550430000000  0.5880540000000 1.0
C      1  0.5208220000000  0.4195220000000  0.4365460000000 1.0
C      1  0.5707700000000  0.4054680000000  0.5095060000000 1.0
C      1  0.4039990000000  0.5391800000000  0.5343840000000 1.0
C      1  0.5340190000000  0.5352400000000  0.5245320000000 1.0
C      1  0.5462300000000  0.4608300000000  0.4153760000000 1.0
C      1  0.5154250000000  0.4383330000000  0.5611040000000 1.0
C      1  0.5341640000000  0.5046050000000  0.4295410000000 1.0
C      1  0.4270370000000  0.4336950000000  0.5301000000000 1.0
C      1  0.6140720000000  0.4683490000000  0.4651330000000 1.0
C      1  0.5295100000000  0.4950400000000  0.6043610000000 1.0
C      1  0.5207720000000  0.3890690000000  0.5074480000000 1.0
C      1  0.5900780000000  0.5599930000000  0.5295840000000 1.0
C      1  0.5597020000000  0.5471260000000  0.4207600000000 1.0
C      1  0.5192040000000  0.4188890000000  0.4669830000000 1.0
C      1  0.4765970000000  0.4625690000000  0.5981870000000 1.0
C      1  0.4734500000000  0.5404500000000  0.4454480000000 1.0
C      1  0.5900270000000  0.5364320000000  0.4585810000000 1.0
C      1  0.4653220000000  0.5137880000000  0.5536590000000 1.0
C      1  0.4629220000000  0.6008660000000  0.5191730000000 1.0
C      1  0.4717080000000  0.5098750000000  0.4468360000000 1.0
C      1  0.4455790000000  0.5012410000000  0.5977250000000 1.0
C      1  0.5038560000000  0.4529700000000  0.5943570000000 1.0
C      1  0.5938330000000  0.5344860000000  0.4882930000000 1.0
C      1  0.5557910000000  0.4355930000000  0.4718050000000 1.0
C      1  0.5036250000000  0.6111480000000  0.4911210000000 1.0
C      1  0.5306600000000  0.5528170000000  0.4167650000000 1.0
C      1  0.4396860000000  0.4004520000000  0.4663690000000 1.0
C      1  0.4252800000000  0.4689620000000  0.5592360000000 1.0
C      1  0.5444520000000  0.6235720000000  0.5139590000000 1.0
C      1  0.4649550000000  0.3903910000000  0.5079530000000 1.0
C      1  0.4009310000000  0.5492930000000  0.5075970000000 1.0
C      1  0.5417930000000  0.4434470000000  0.5185760000000 1.0
C      1  0.5429200000000  0.5302520000000  0.4969500000000 1.0
C      1  0.5452210000000  0.5183880000000  0.5976310000000 1.0
C      1  0.6028110000000  0.4705030000000  0.5278010000000 1.0
C      1  0.4880480000000  0.5101770000000  0.6070370000000 1.0
C      1  0.4927690000000  0.6011700000000  0.5175500000000 1.0
C      1  0.5784760000000  0.4307930000000  0.5487880000000 1.0
C      1  0.6177530000000  0.5035020000000  0.5194900000000 1.0
C      1  0.5737130000000  0.5788210000000  0.4879300000000 1.0
C      1  0.6158080000000  0.5116190000000  0.4917050000000 1.0
C      1  0.4033520000000  0.4695610000000  0.4546630000000 1.0
C      1  0.5002710000000  0.5018920000000  0.5804500000000 1.0
C      1  0.5556400000000  0.6198140000000  0.5380920000000 1.0
C      1  0.4973380000000  0.4652820000000  0.4446430000000 1.0
C      1  0.6037180000000  0.5250280000000  0.5342200000000 1.0
C      1  0.3871640000000  0.4614780000000  0.4791770000000 1.0
C      1  0.4577540000000  0.4630860000000  0.5589000000000 1.0
C      1  0.4083710000000  0.5093350000000  0.5372320000000 1.0
C      1  0.4274600000000  0.4408050000000  0.4797500000000 1.0
C      1  0.4973860000000  0.5210640000000  0.4048790000000 1.0
C      1  0.5361310000000  0.4706060000000  0.5613600000000 1.0
C      1  0.4718110000000  0.4686590000000  0.4620780000000 1.0
C      1  0.6078170000000  0.4255120000000  0.4825500000000 1.0
C      1  0.5794010000000  0.4838830000000  0.5387040000000 1.0
C      1  0.4986780000000  0.4490590000000  0.5377230000000 1.0
C      1  0.4692820000000  0.4432420000000  0.5375590000000 1.0
C      1  0.4956060000000  0.4356770000000  0.4343790000000 1.0
C      1  0.5653010000000  0.5193600000000  0.4127230000000 1.0
C      1  0.4589120000000  0.4842520000000  0.5064030000000 1.0
C      1  0.5696800000000  0.5538100000000  0.4474650000000 1.0
C      1  0.5269700000000  0.4900110000000  0.4555360000000 1.0
C      1  0.5088360000000  0.5648260000000  0.5453530000000 1.0
C      1  0.5566680000000  0.5965570000000  0.5535910000000 1.0
C      1  0.4186150000000  0.4123210000000  0.5116450000000 1.0
C      1  0.5683150000000  0.5808350000000  0.4590500000000 1.0
C      1  0.4980330000000  0.4772980000000  0.5399400000000 1.0
C      1  0.4447210000000  0.5553840000000  0.5075280000000 1.0
C      1  0.5129340000000  0.4437130000000  0.5127240000000 1.0
C      1  0.4321660000000  0.5784360000000  0.5612020000000 1.0
C      1  0.5730380000000  0.5164020000000  0.5939790000000 1.0
C      1  0.4962530000000  0.4763900000000  0.4161810000000 1.0
C      1  0.3968130000000  0.4985170000000  0.4487960000000 1.0
C      1  0.4873280000000  0.5452790000000  0.5604090000000 1.0
C      1  0.5081760000000  0.4656400000000  0.4938210000000 1.0
C      1  0.4895470000000  0.5239100000000  0.5110560000000 1.0
C      1  0.5046950000000  0.5947400000000  0.5537790000000 1.0
C      1  0.5160660000000  0.5287540000000  0.4263270000000 1.0
C      1  0.5625800000000  0.5267530000000  0.5576780000000 1.0
C      1  0.5939050000000  0.5618710000000  0.5008540000000 1.0
C      1  0.5995370000000  0.4401520000000  0.5299750000000 1.0
C      1  0.5837680000000  0.5347810000000  0.5765390000000 1.0
C      1  0.4864990000000  0.4574990000000  0.3973150000000 1.0
C      1  0.4054420000000  0.4853140000000  0.5201020000000 1.0
C      1  0.4954320000000  0.5114170000000  0.4837930000000 1.0
C      1  0.5279270000000  0.4933730000000  0.3823150000000 1.0
C      1  0.4261270000000  0.5777860000000  0.5029080000000 1.0
C      1  0.4114760000000  0.4598360000000  0.5344510000000 1.0
C      1  0.5425860000000  0.5571580000000  0.4854420000000 1.0
C      1  0.5765080000000  0.5131140000000  0.5332100000000 1.0
C      1  0.4364100000000  0.4209060000000  0.5561040000000 1.0
C      1  0.5094970000000  0.5130690000000  0.3810520000000 1.0
C      1  0.3907400000000  0.4863060000000  0.4950360000000 1.0
C      1  0.5542290000000  0.4203600000000  0.5325800000000 1.0
C      1  0.5586940000000  0.4060070000000  0.4821690000000 1.0
C      1  0.4768940000000  0.4322250000000  0.4001670000000 1.0
C      1  0.5281680000000  0.4125130000000  0.5492900000000 1.0
C      1  0.4867300000000  0.4189830000000  0.4730230000000 1.0
C      1  0.4381880000000  0.5261390000000  0.5103340000000 1.0
C      1  0.5071600000000  0.5240840000000  0.5618160000000 1.0
C      1  0.5350410000000  0.5445070000000  0.5976460000000 1.0
C      1  0.4796690000000  0.4872440000000  0.5613070000000 1.0
C      1  0.4800170000000  0.3828540000000  0.4848710000000 1.0
C      1  0.4473160000000  0.4412330000000  0.4368900000000 1.0
C      1  0.5327170000000  0.6066620000000  0.4948120000000 1.0
C      1  0.4559030000000  0.4434340000000  0.5947930000000 1.0
C      1  0.5965380000000  0.4207580000000  0.5076390000000 1.0
C      1  0.4408000000000  0.4019170000000  0.4961550000000 1.0
C      1  0.4456610000000  0.5340780000000  0.4047310000000 1.0
C      1  0.4421910000000  0.5112870000000  0.4583810000000 1.0
C      1  0.4470460000000  0.5973080000000  0.4939950000000 1.0
C      1  0.4685680000000  0.3951810000000  0.4603260000000 1.0
C      1  0.4677360000000  0.5510050000000  0.4179240000000 1.0
C      1  0.4546650000000  0.5905380000000  0.5459410000000 1.0
C      1  0.4627170000000  0.5120850000000  0.5221670000000 1.0
C      1  0.4214180000000  0.5085440000000  0.4358390000000 1.0
C      1  0.4790650000000  0.4007320000000  0.5313770000000 1.0
C      1  0.5522500000000  0.4763830000000  0.4615330000000 1.0
C      1  0.3933450000000  0.5089080000000  0.4764630000000 1.0
C      1  0.4045600000000  0.4499100000000  0.4322360000000 1.0
C      1  0.4832780000000  0.4832350000000  0.4868100000000 1.0
C      1  0.4316250000000  0.4883010000000  0.4157170000000 1.0
C      1  0.5174320000000  0.5926890000000  0.4477710000000 1.0
C      1  0.4774730000000  0.5361350000000  0.6082210000000 1.0
C      1  0.5273680000000  0.4696350000000  0.5900180000000 1.0
C      1  0.4268540000000  0.5574510000000  0.4458550000000 1.0
C      1  0.4642910000000  0.5572470000000  0.4848420000000 1.0
C      1  0.5638470000000  0.5712350000000  0.5391510000000 1.0
C      1  0.5262370000000  0.4830140000000  0.4094020000000 1.0
C      1  0.5654550000000  0.4713200000000  0.5609880000000 1.0
C      1  0.4140500000000  0.5590210000000  0.5518400000000 1.0
C      1  0.4631990000000  0.4089720000000  0.5541370000000 1.0
C      1  0.5382360000000  0.4349110000000  0.4214150000000 1.0
C      1  0.5317380000000  0.5776690000000  0.5029180000000 1.0
C      1  0.4671310000000  0.5805500000000  0.5886780000000 1.0
C      1  0.5088240000000  0.3970010000000  0.5318010000000 1.0
C      1  0.5449470000000  0.5963890000000  0.4539130000000 1.0
C      1  0.4409200000000  0.5132840000000  0.5727710000000 1.0
C      1  0.4609700000000  0.5787210000000  0.4189340000000 1.0
C      1  0.5319380000000  0.5925970000000  0.5703580000000 1.0
C      1  0.4321060000000  0.4378250000000  0.5801230000000 1.0
C      1  0.4527640000000  0.5035560000000  0.4015340000000 1.0
C      1  0.4297160000000  0.4573030000000  0.4182780000000 1.0
C      1  0.4679360000000  0.4236660000000  0.4262860000000 1.0
C      1  0.4324580000000  0.4693040000000  0.4676410000000 1.0
C      1  0.4219140000000  0.5367960000000  0.4233770000000 1.0
C      1  0.4473020000000  0.5804640000000  0.4437430000000 1.0
C      1  0.4682200000000  0.4889910000000  0.6087280000000 1.0
C      1  0.4386650000000  0.5775570000000  0.5885470000000 1.0
C      1  0.4269030000000  0.4259820000000  0.4532460000000 1.0
C      1  0.4944250000000  0.5959930000000  0.4675060000000 1.0
C      1  0.4352940000000  0.5393550000000  0.4680390000000 1.0
C      1  0.5779430000000  0.4985030000000  0.4283550000000 1.0
C      1  0.4562800000000  0.4521200000000  0.5105960000000 1.0
C      1  0.6006270000000  0.4923900000000  0.4725010000000 1.0
C      1  0.5047620000000  0.5721880000000  0.5155800000000 1.0
C      1  0.5309600000000  0.4828290000000  0.5016230000000 1.0
C      1  0.5181750000000  0.5765290000000  0.4252550000000 1.0
C      1  0.5760550000000  0.4475210000000  0.5709050000000 1.0
C      1  0.4663060000000  0.4427030000000  0.4805400000000 1.0
C      1  0.4784460000000  0.5018720000000  0.4168660000000 1.0
C      1  0.5250510000000  0.5064740000000  0.4822370000000 1.0
C      1  0.5015080000000  0.5345800000000  0.4530230000000 1.0
C      1  0.4187930000000  0.4986090000000  0.5618830000000 1.0
C      1  0.4640960000000  0.5852540000000  0.4705210000000 1.0
C      1  0.6043930000000  0.4428120000000  0.4611100000000 1.0
C      1  0.5447230000000  0.5506020000000  0.5482410000000 1.0
C      1  0.4884380000000  0.5515810000000  0.5013990000000 1.0
C      1  0.5335930000000  0.5687490000000  0.5855330000000 1.0
C      1  0.5949610000000  0.5093920000000  0.4487950000000 1.0
C      1  0.5772850000000  0.4424780000000  0.4498970000000 1.0
C      1  0.5227980000000  0.4904670000000  0.5311740000000 1.0
C      1  0.5128920000000  0.5186320000000  0.5326130000000 1.0
C      1  0.5312060000000  0.3955660000000  0.4819850000000 1.0
C      1  0.4758500000000  0.5966690000000  0.5653190000000 1.0
C      1  0.3998620000000  0.4392670000000  0.4920870000000 1.0
C      1  0.5717440000000  0.4891440000000  0.4847790000000 1.0
C      1  0.5699850000000  0.5173890000000  0.5007550000000 1.0
END
