TITL C-950527-2551-194 1.14083912666335e-06 125000 -1193.49558453528 0 0 188 (C1) n - 1
REM
REM in /home/bkarasulu/work/CARBON/AIRSS/Generating-Clusters/EDIP-Nigel-Params/with-SteepDescent/Only-C1/SD-CG/HFTN-CG
REM
REM
REM
REM
REM
REM ./C.cell (11c1c37f851c82e70ff6c80c92926a4b)
REM
REM compiler GCC version 9.2.1 20190827 (Red Hat 9.2.1-1)
REM options -cpp -mtune=generic -march=x86-64 -g -O0 -fpre-include=/usr/include/finclude/math-vector-fortran.h
REM seed 240219704 -554615056 -573320096 -103813735 -956423154 1044050167 32082887 -1587986929 -2001396540 -256699895 -1793414612 323318642 -1633827855 333293447 411915020 1208676228 1374060291 -1888955773 783999263 262255340 -961837521 440583248 -1945386908 -333507616 -1450016853 1328159956 -425797081 648596405 1006919951 778509465 -2029202587 -75569432 394544643
REM
CELL 1.54180   50.00000   50.00000   50.00000   90.00000   90.00000   90.00000
LATT -1
SFAC C  
C      1  0.4082160000000  0.5052030000000  0.4449300000000 1.0
C      1  0.4659510000000  0.4799440000000  0.4869970000000 1.0
C      1  0.4815410000000  0.5336380000000  0.4004230000000 1.0
C      1  0.4343640000000  0.5799900000000  0.4536120000000 1.0
C      1  0.4480450000000  0.5893840000000  0.5275650000000 1.0
C      1  0.4250670000000  0.5955680000000  0.5444930000000 1.0
C      1  0.4297920000000  0.4949550000000  0.5769240000000 1.0
C      1  0.5316880000000  0.4827080000000  0.5044010000000 1.0
C      1  0.5217850000000  0.4505970000000  0.5457550000000 1.0
C      1  0.5462680000000  0.4823210000000  0.4439860000000 1.0
C      1  0.5100860000000  0.5644630000000  0.4677710000000 1.0
C      1  0.5226840000000  0.5410320000000  0.4509070000000 1.0
C      1  0.5849660000000  0.5183560000000  0.5600190000000 1.0
C      1  0.5528360000000  0.6034450000000  0.4767810000000 1.0
C      1  0.4182600000000  0.4376340000000  0.4528950000000 1.0
C      1  0.3878730000000  0.4861700000000  0.5541910000000 1.0
C      1  0.4939020000000  0.5913390000000  0.5144020000000 1.0
C      1  0.5092890000000  0.5742850000000  0.6023010000000 1.0
C      1  0.4713590000000  0.4580210000000  0.5057980000000 1.0
C      1  0.4650320000000  0.3926780000000  0.4768510000000 1.0
C      1  0.4549900000000  0.4884510000000  0.5481120000000 1.0
C      1  0.5967840000000  0.5352600000000  0.5374450000000 1.0
C      1  0.4793930000000  0.4397360000000  0.5858880000000 1.0
C      1  0.4541010000000  0.4555970000000  0.5879550000000 1.0
C      1  0.5524680000000  0.5134780000000  0.5760390000000 1.0
C      1  0.5041420000000  0.6118920000000  0.4540300000000 1.0
C      1  0.4151930000000  0.4731320000000  0.5607370000000 1.0
C      1  0.4288240000000  0.5281100000000  0.5193440000000 1.0
C      1  0.4527390000000  0.5324890000000  0.5004960000000 1.0
C      1  0.5939450000000  0.5181110000000  0.4361930000000 1.0
C      1  0.4927390000000  0.5931660000000  0.5878220000000 1.0
C      1  0.5080670000000  0.3932300000000  0.5335060000000 1.0
C      1  0.4659490000000  0.5150710000000  0.4578320000000 1.0
C      1  0.4816630000000  0.5048970000000  0.3909720000000 1.0
C      1  0.5318580000000  0.5278980000000  0.3952140000000 1.0
C      1  0.4990890000000  0.5423480000000  0.5119350000000 1.0
C      1  0.4314170000000  0.5538330000000  0.4423020000000 1.0
C      1  0.4491170000000  0.4807820000000  0.4179300000000 1.0
C      1  0.5623310000000  0.4390140000000  0.4894300000000 1.0
C      1  0.4809630000000  0.4143480000000  0.5697100000000 1.0
C      1  0.4625660000000  0.5193150000000  0.5463010000000 1.0
C      1  0.6075540000000  0.4934410000000  0.4389360000000 1.0
C      1  0.4511360000000  0.4487620000000  0.4179390000000 1.0
C      1  0.5863240000000  0.5626990000000  0.5390270000000 1.0
C      1  0.4934230000000  0.5505360000000  0.6111690000000 1.0
C      1  0.4613180000000  0.6138500000000  0.4856540000000 1.0
C      1  0.5155390000000  0.4420530000000  0.4814810000000 1.0
C      1  0.5503230000000  0.4132120000000  0.5285840000000 1.0
C      1  0.5565090000000  0.4961700000000  0.5194910000000 1.0
C      1  0.4300140000000  0.4467810000000  0.5721280000000 1.0
C      1  0.4575120000000  0.4916470000000  0.3927600000000 1.0
C      1  0.5734850000000  0.4246030000000  0.5129210000000 1.0
C      1  0.5728610000000  0.5705390000000  0.5135820000000 1.0
C      1  0.5158240000000  0.4060830000000  0.4413780000000 1.0
C      1  0.4772090000000  0.5249830000000  0.5722760000000 1.0
C      1  0.3990440000000  0.5585950000000  0.5300820000000 1.0
C      1  0.5581880000000  0.4310690000000  0.4408440000000 1.0
C      1  0.4303240000000  0.4749400000000  0.5332320000000 1.0
C      1  0.4231950000000  0.4921300000000  0.4246060000000 1.0
C      1  0.5319070000000  0.5742000000000  0.4153420000000 1.0
C      1  0.5302230000000  0.4025210000000  0.4687670000000 1.0
C      1  0.3921400000000  0.5157130000000  0.5570540000000 1.0
C      1  0.5356380000000  0.4507490000000  0.4996170000000 1.0
C      1  0.5183070000000  0.4820170000000  0.4527830000000 1.0
C      1  0.5549950000000  0.5365110000000  0.4103270000000 1.0
C      1  0.5344250000000  0.3871980000000  0.5197490000000 1.0
C      1  0.5452340000000  0.5540300000000  0.4321080000000 1.0
C      1  0.3866110000000  0.5320750000000  0.5323110000000 1.0
C      1  0.5032430000000  0.4878330000000  0.4040140000000 1.0
C      1  0.6138730000000  0.4800600000000  0.5501810000000 1.0
C      1  0.5773470000000  0.4532300000000  0.4315780000000 1.0
C      1  0.4686320000000  0.6090820000000  0.5141120000000 1.0
C      1  0.4703210000000  0.4355360000000  0.4855230000000 1.0
C      1  0.5088700000000  0.5507860000000  0.5377440000000 1.0
C      1  0.4992740000000  0.4960140000000  0.4327810000000 1.0
C      1  0.3949870000000  0.4817410000000  0.4572290000000 1.0
C      1  0.6055720000000  0.4616410000000  0.4728620000000 1.0
C      1  0.5284380000000  0.4339970000000  0.5237860000000 1.0
C      1  0.4189790000000  0.5298970000000  0.4607180000000 1.0
C      1  0.4697060000000  0.4908130000000  0.4401750000000 1.0
C      1  0.5899530000000  0.4896950000000  0.5609030000000 1.0
C      1  0.3927140000000  0.4746170000000  0.4855320000000 1.0
C      1  0.5327370000000  0.5630150000000  0.4916090000000 1.0
C      1  0.5964580000000  0.5254010000000  0.5073140000000 1.0
C      1  0.5243350000000  0.6022910000000  0.5199260000000 1.0
C      1  0.4369250000000  0.4288760000000  0.5488690000000 1.0
C      1  0.5304370000000  0.5624210000000  0.5863570000000 1.0
C      1  0.4888440000000  0.5654960000000  0.4960950000000 1.0
C      1  0.5747760000000  0.5837410000000  0.4666640000000 1.0
C      1  0.5248590000000  0.4409070000000  0.4048710000000 1.0
C      1  0.5305880000000  0.4984360000000  0.3980110000000 1.0
C      1  0.4777250000000  0.4694160000000  0.5531320000000 1.0
C      1  0.4837560000000  0.4474720000000  0.4512650000000 1.0
C      1  0.5439820000000  0.5775710000000  0.5658610000000 1.0
C      1  0.4985600000000  0.4842670000000  0.5682230000000 1.0
C      1  0.5132430000000  0.5006500000000  0.5471650000000 1.0
C      1  0.4428910000000  0.4298470000000  0.4407220000000 1.0
C      1  0.5022280000000  0.5001860000000  0.6091280000000 1.0
C      1  0.5026360000000  0.4197040000000  0.5203500000000 1.0
C      1  0.5090000000000  0.5482680000000  0.3968600000000 1.0
C      1  0.4547770000000  0.4852050000000  0.5920950000000 1.0
C      1  0.5323280000000  0.5229860000000  0.4724260000000 1.0
C      1  0.5690620000000  0.5602010000000  0.4491880000000 1.0
C      1  0.6064550000000  0.4654990000000  0.5275870000000 1.0
C      1  0.5171290000000  0.4978630000000  0.4797360000000 1.0
C      1  0.4922450000000  0.5770440000000  0.5409190000000 1.0
C      1  0.4142750000000  0.4319130000000  0.4805780000000 1.0
C      1  0.4378910000000  0.5762130000000  0.5007050000000 1.0
C      1  0.5076600000000  0.3992580000000  0.5639450000000 1.0
C      1  0.5568140000000  0.4184390000000  0.4674800000000 1.0
C      1  0.5682050000000  0.4652270000000  0.4055190000000 1.0
C      1  0.4863720000000  0.5030730000000  0.4888850000000 1.0
C      1  0.4385280000000  0.5949630000000  0.4775860000000 1.0
C      1  0.4785600000000  0.5212210000000  0.5130810000000 1.0
C      1  0.5128510000000  0.4519360000000  0.4543120000000 1.0
C      1  0.5010950000000  0.5275150000000  0.4338040000000 1.0
C      1  0.5385120000000  0.5432410000000  0.5394750000000 1.0
C      1  0.4976900000000  0.5845440000000  0.4468850000000 1.0
C      1  0.4639110000000  0.5722340000000  0.5754110000000 1.0
C      1  0.4374880000000  0.4912700000000  0.4875170000000 1.0
C      1  0.5074550000000  0.4498580000000  0.5941060000000 1.0
C      1  0.5287570000000  0.4324910000000  0.4334010000000 1.0
C      1  0.4346250000000  0.5376870000000  0.5487220000000 1.0
C      1  0.5547490000000  0.4900950000000  0.4152960000000 1.0
C      1  0.4717190000000  0.5476170000000  0.5894810000000 1.0
C      1  0.5483200000000  0.4501580000000  0.3927460000000 1.0
C      1  0.5006900000000  0.5996720000000  0.5601710000000 1.0
C      1  0.4813980000000  0.5000160000000  0.5871380000000 1.0
C      1  0.5212690000000  0.4775060000000  0.5991030000000 1.0
C      1  0.5610550000000  0.5167220000000  0.4744180000000 1.0
C      1  0.5488460000000  0.4852750000000  0.5864800000000 1.0
C      1  0.6127670000000  0.5016340000000  0.5026620000000 1.0
C      1  0.5197300000000  0.4351500000000  0.5708400000000 1.0
C      1  0.4886580000000  0.3824780000000  0.4954150000000 1.0
C      1  0.5003820000000  0.4567670000000  0.4025830000000 1.0
C      1  0.5664020000000  0.5617260000000  0.5588870000000 1.0
C      1  0.4160900000000  0.5692350000000  0.5509890000000 1.0
C      1  0.4830460000000  0.6217660000000  0.4693990000000 1.0
C      1  0.5368990000000  0.5345220000000  0.5929530000000 1.0
C      1  0.4638400000000  0.5706080000000  0.5459820000000 1.0
C      1  0.5731460000000  0.5142750000000  0.4155110000000 1.0
C      1  0.5369310000000  0.4110480000000  0.5768430000000 1.0
C      1  0.3788400000000  0.4910410000000  0.5042830000000 1.0
C      1  0.6004510000000  0.5443460000000  0.4830730000000 1.0
C      1  0.5808840000000  0.4755720000000  0.5125700000000 1.0
C      1  0.5702300000000  0.4707430000000  0.5717750000000 1.0
C      1  0.4486270000000  0.4002900000000  0.5005380000000 1.0
C      1  0.4030690000000  0.4590500000000  0.4424910000000 1.0
C      1  0.4551190000000  0.5463220000000  0.4256500000000 1.0
C      1  0.3888680000000  0.5190700000000  0.5051740000000 1.0
C      1  0.4689430000000  0.4706210000000  0.4593490000000 1.0
C      1  0.4803640000000  0.4411190000000  0.4200380000000 1.0
C      1  0.6207000000000  0.4818100000000  0.4855090000000 1.0
C      1  0.5823460000000  0.5351590000000  0.4596200000000 1.0
C      1  0.4966310000000  0.4203590000000  0.4911540000000 1.0
C      1  0.5143180000000  0.5273090000000  0.6113150000000 1.0
C      1  0.4925350000000  0.4617880000000  0.5286070000000 1.0
C      1  0.5724440000000  0.4429660000000  0.5597490000000 1.0
C      1  0.5048840000000  0.5791400000000  0.4193570000000 1.0
C      1  0.4633570000000  0.4090320000000  0.4511420000000 1.0
C      1  0.5909570000000  0.5715600000000  0.4895400000000 1.0
C      1  0.3927300000000  0.4469750000000  0.4905030000000 1.0
C      1  0.4595630000000  0.5589390000000  0.4926070000000 1.0
C      1  0.6025680000000  0.4658610000000  0.4438870000000 1.0
C      1  0.4387760000000  0.4287380000000  0.4981270000000 1.0
C      1  0.4207780000000  0.4964550000000  0.5118820000000 1.0
C      1  0.4004610000000  0.5384850000000  0.4835250000000 1.0
C      1  0.4111730000000  0.5595550000000  0.5028810000000 1.0
C      1  0.5312460000000  0.6125880000000  0.4613110000000 1.0
C      1  0.5513350000000  0.5465750000000  0.5116060000000 1.0
C      1  0.5293840000000  0.6001510000000  0.5508960000000 1.0
C      1  0.4753420000000  0.5381770000000  0.4437790000000 1.0
C      1  0.4337690000000  0.4444170000000  0.5244460000000 1.0
C      1  0.4604450000000  0.4106360000000  0.5487310000000 1.0
C      1  0.4653750000000  0.3954770000000  0.5237840000000 1.0
C      1  0.5637980000000  0.4877060000000  0.4671990000000 1.0
C      1  0.4868650000000  0.4075010000000  0.4331690000000 1.0
C      1  0.5207370000000  0.3844480000000  0.4916910000000 1.0
C      1  0.5587370000000  0.4156260000000  0.5580300000000 1.0
C      1  0.4186170000000  0.5217280000000  0.5688740000000 1.0
C      1  0.5087530000000  0.4860020000000  0.5227240000000 1.0
C      1  0.5780780000000  0.4652470000000  0.4838000000000 1.0
C      1  0.5662370000000  0.5203790000000  0.5034690000000 1.0
C      1  0.5871970000000  0.4422660000000  0.5334750000000 1.0
C      1  0.5446000000000  0.5893380000000  0.5016880000000 1.0
C      1  0.5404660000000  0.5133380000000  0.5472160000000 1.0
C      1  0.4427910000000  0.5178660000000  0.4757530000000 1.0
C      1  0.3754960000000  0.4801780000000  0.5298510000000 1.0
END
