TITL C-950531-5884-214 -1.67201037593928e-06 125000 -825.93185340911 0 0 133 (C1) n - 1
REM
REM in /home/bkarasulu/work/CARBON/AIRSS/Generating-Clusters/EDIP-Nigel-Params/with-SteepDescent/Only-C1/SD-CG/HFTN-CG
REM
REM
REM
REM
REM
REM ./C.cell (11c1c37f851c82e70ff6c80c92926a4b)
REM
REM compiler GCC version 9.2.1 20190827 (Red Hat 9.2.1-1)
REM options -cpp -mtune=generic -march=x86-64 -g -O0 -fpre-include=/usr/include/finclude/math-vector-fortran.h
REM seed -1722229208 1101797416 -1617671513 -1171525139 -232180620 -1320795146 1210813814 972166501 -881193460 -1966507057 -1110779776 203753632 -2070774120 -2077464899 -975579950 -1525278087 -923033875 511127878 -715613704 191465064 517671715 1040301148 1691112575 1701026881 883457509 194274278 -249332210 -472073881 -559172026 871840514 1046948582 -1204234332 1197462196
REM
CELL 1.54180   50.00000   50.00000   50.00000   90.00000   90.00000   90.00000
LATT -1
SFAC C  
C      1  0.5739910000000  0.4642780000000  0.4822060000000 1.0
C      1  0.5344710000000  0.4312920000000  0.5721860000000 1.0
C      1  0.5150600000000  0.4441050000000  0.5076230000000 1.0
C      1  0.4704050000000  0.5039350000000  0.3992910000000 1.0
C      1  0.4355420000000  0.4782880000000  0.4265110000000 1.0
C      1  0.4786370000000  0.4500150000000  0.5588760000000 1.0
C      1  0.5831040000000  0.5361150000000  0.5086730000000 1.0
C      1  0.5801310000000  0.5545480000000  0.4857680000000 1.0
C      1  0.5685870000000  0.5059670000000  0.4160680000000 1.0
C      1  0.5557510000000  0.5706410000000  0.4886300000000 1.0
C      1  0.5732010000000  0.4385450000000  0.5210990000000 1.0
C      1  0.5225220000000  0.5916670000000  0.5165260000000 1.0
C      1  0.4937020000000  0.5336190000000  0.5693040000000 1.0
C      1  0.5878930000000  0.4620940000000  0.5088850000000 1.0
C      1  0.4989680000000  0.5208970000000  0.4686420000000 1.0
C      1  0.4638540000000  0.5353450000000  0.4338570000000 1.0
C      1  0.6005070000000  0.5036490000000  0.4733420000000 1.0
C      1  0.5085730000000  0.5862970000000  0.5418000000000 1.0
C      1  0.4717590000000  0.5160830000000  0.4581230000000 1.0
C      1  0.4310490000000  0.4475060000000  0.5412480000000 1.0
C      1  0.5095190000000  0.5333490000000  0.4125150000000 1.0
C      1  0.5304230000000  0.4197380000000  0.4967600000000 1.0
C      1  0.4748160000000  0.4853550000000  0.4511330000000 1.0
C      1  0.4924120000000  0.4524740000000  0.5851890000000 1.0
C      1  0.4580180000000  0.5045010000000  0.5800520000000 1.0
C      1  0.4300360000000  0.5482870000000  0.4616760000000 1.0
C      1  0.4052410000000  0.4768610000000  0.5104200000000 1.0
C      1  0.4127900000000  0.5446270000000  0.5358830000000 1.0
C      1  0.4748760000000  0.5870300000000  0.5051490000000 1.0
C      1  0.4277330000000  0.5001760000000  0.4450800000000 1.0
C      1  0.4144630000000  0.5424510000000  0.4855150000000 1.0
C      1  0.5428260000000  0.4738310000000  0.4362970000000 1.0
C      1  0.5190400000000  0.5122790000000  0.4497480000000 1.0
C      1  0.4814100000000  0.5348520000000  0.5210310000000 1.0
C      1  0.4397610000000  0.5455230000000  0.5488850000000 1.0
C      1  0.4962220000000  0.5725670000000  0.4447190000000 1.0
C      1  0.4794240000000  0.4205110000000  0.5174940000000 1.0
C      1  0.4125680000000  0.4685440000000  0.4817650000000 1.0
C      1  0.5892760000000  0.4887240000000  0.5213350000000 1.0
C      1  0.5838600000000  0.5421180000000  0.4587170000000 1.0
C      1  0.5072460000000  0.4957820000000  0.4827360000000 1.0
C      1  0.4337840000000  0.5287260000000  0.4386550000000 1.0
C      1  0.5455050000000  0.5114750000000  0.4595860000000 1.0
C      1  0.5668620000000  0.5798800000000  0.5366220000000 1.0
C      1  0.4539150000000  0.4809980000000  0.4781550000000 1.0
C      1  0.5484590000000  0.5174560000000  0.4891770000000 1.0
C      1  0.4763070000000  0.4140880000000  0.4755320000000 1.0
C      1  0.5529330000000  0.4856230000000  0.5713440000000 1.0
C      1  0.5272370000000  0.3951750000000  0.5373460000000 1.0
C      1  0.5280590000000  0.5219950000000  0.5115960000000 1.0
C      1  0.4599720000000  0.4375520000000  0.4292320000000 1.0
C      1  0.5329440000000  0.4630600000000  0.4618090000000 1.0
C      1  0.6059610000000  0.5253570000000  0.4558460000000 1.0
C      1  0.5373250000000  0.5325460000000  0.5855750000000 1.0
C      1  0.5625050000000  0.5328490000000  0.4119640000000 1.0
C      1  0.5238190000000  0.4176410000000  0.4668650000000 1.0
C      1  0.5479300000000  0.5771450000000  0.5153840000000 1.0
C      1  0.5558650000000  0.4553040000000  0.5661340000000 1.0
C      1  0.4568200000000  0.5417250000000  0.5062680000000 1.0
C      1  0.5264180000000  0.5714750000000  0.5622020000000 1.0
C      1  0.4694500000000  0.4756940000000  0.5309100000000 1.0
C      1  0.3940850000000  0.5038320000000  0.5105640000000 1.0
C      1  0.4335920000000  0.4495210000000  0.4680430000000 1.0
C      1  0.4788460000000  0.4662030000000  0.3995320000000 1.0
C      1  0.4473940000000  0.4249260000000  0.4811390000000 1.0
C      1  0.4802370000000  0.5773040000000  0.5338950000000 1.0
C      1  0.5490480000000  0.4480070000000  0.5354860000000 1.0
C      1  0.5142280000000  0.4363640000000  0.5907510000000 1.0
C      1  0.5199810000000  0.3952530000000  0.5100810000000 1.0
C      1  0.5213040000000  0.4222940000000  0.5452540000000 1.0
C      1  0.4903690000000  0.4263120000000  0.5447990000000 1.0
C      1  0.5615210000000  0.4219280000000  0.4989420000000 1.0
C      1  0.4497460000000  0.5338590000000  0.5745550000000 1.0
C      1  0.5039720000000  0.5897820000000  0.4659610000000 1.0
C      1  0.4722840000000  0.5518870000000  0.5784840000000 1.0
C      1  0.5147640000000  0.4806770000000  0.5484910000000 1.0
C      1  0.5571520000000  0.5699490000000  0.5619440000000 1.0
C      1  0.3982810000000  0.5200220000000  0.5333230000000 1.0
C      1  0.4705220000000  0.5627550000000  0.4868570000000 1.0
C      1  0.5021030000000  0.5930740000000  0.4941220000000 1.0
C      1  0.5019020000000  0.4696330000000  0.4684180000000 1.0
C      1  0.5163010000000  0.5577790000000  0.4294200000000 1.0
C      1  0.5412820000000  0.5604770000000  0.4450590000000 1.0
C      1  0.4289870000000  0.4226940000000  0.5288030000000 1.0
C      1  0.5065400000000  0.5399700000000  0.5081990000000 1.0
C      1  0.5014500000000  0.4588020000000  0.4152590000000 1.0
C      1  0.4354580000000  0.5171560000000  0.5151280000000 1.0
C      1  0.5311710000000  0.5105940000000  0.4083120000000 1.0
C      1  0.5861660000000  0.4816520000000  0.4602250000000 1.0
C      1  0.4911440000000  0.3965000000000  0.5043080000000 1.0
C      1  0.4113530000000  0.4677940000000  0.5378440000000 1.0
C      1  0.5667180000000  0.5499580000000  0.4350450000000 1.0
C      1  0.5006300000000  0.4787050000000  0.5843850000000 1.0
C      1  0.4642050000000  0.4830920000000  0.4196060000000 1.0
C      1  0.4511730000000  0.5711340000000  0.5389730000000 1.0
C      1  0.5631830000000  0.4938680000000  0.4426210000000 1.0
C      1  0.5898410000000  0.5091570000000  0.5008450000000 1.0
C      1  0.4161740000000  0.5592550000000  0.5100630000000 1.0
C      1  0.5218240000000  0.4815020000000  0.4183660000000 1.0
C      1  0.4904570000000  0.4498370000000  0.4911800000000 1.0
C      1  0.5758830000000  0.5050780000000  0.5714400000000 1.0
C      1  0.4396110000000  0.4809860000000  0.5753270000000 1.0
C      1  0.4800020000000  0.5172800000000  0.5441070000000 1.0
C      1  0.4026650000000  0.5156370000000  0.4856830000000 1.0
C      1  0.4489290000000  0.4544160000000  0.5631590000000 1.0
C      1  0.4501440000000  0.4221960000000  0.5104220000000 1.0
C      1  0.5649020000000  0.5339230000000  0.5738460000000 1.0
C      1  0.4929460000000  0.4926220000000  0.5347440000000 1.0
C      1  0.4518330000000  0.5683230000000  0.4639100000000 1.0
C      1  0.4099970000000  0.4941600000000  0.4671620000000 1.0
C      1  0.5047730000000  0.5488370000000  0.4808810000000 1.0
C      1  0.5463760000000  0.4786430000000  0.4888480000000 1.0
C      1  0.5018800000000  0.5208640000000  0.5951920000000 1.0
C      1  0.4878360000000  0.4386900000000  0.4330660000000 1.0
C      1  0.4694390000000  0.4686410000000  0.5015040000000 1.0
C      1  0.4183860000000  0.4884620000000  0.5570160000000 1.0
C      1  0.4489040000000  0.4999690000000  0.5374350000000 1.0
C      1  0.4372430000000  0.5789890000000  0.5146250000000 1.0
C      1  0.5321530000000  0.4666780000000  0.5166370000000 1.0
C      1  0.4687800000000  0.5640190000000  0.4411340000000 1.0
C      1  0.4968220000000  0.4239670000000  0.4566400000000 1.0
C      1  0.4465520000000  0.5129870000000  0.4828930000000 1.0
C      1  0.5221360000000  0.5419960000000  0.5617320000000 1.0
C      1  0.5897950000000  0.4962470000000  0.5484800000000 1.0
C      1  0.4800140000000  0.5283530000000  0.4096120000000 1.0
C      1  0.5683500000000  0.4356260000000  0.4737760000000 1.0
C      1  0.5668450000000  0.5415130000000  0.5344760000000 1.0
C      1  0.5390370000000  0.5247130000000  0.5386130000000 1.0
C      1  0.5440710000000  0.4351240000000  0.4571340000000 1.0
C      1  0.5373820000000  0.5516090000000  0.4740490000000 1.0
C      1  0.4833890000000  0.4988410000000  0.5948390000000 1.0
C      1  0.5391590000000  0.4960670000000  0.5482470000000 1.0
C      1  0.4366460000000  0.4508100000000  0.4381250000000 1.0
END
