TITL C-950522-5749-493 5.60048789114407e-07 125000 -586.900596173043 0 0 94 (C1) n - 1
REM
REM in /home/bkarasulu/work/CARBON/AIRSS/Generating-Clusters/EDIP-Nigel-Params/with-SteepDescent/Only-C1/SD-CG/HFTN-CG
REM
REM
REM
REM
REM
REM ./C.cell (11c1c37f851c82e70ff6c80c92926a4b)
REM
REM compiler GCC version 9.2.1 20190827 (Red Hat 9.2.1-1)
REM options -cpp -mtune=generic -march=x86-64 -g -O0 -fpre-include=/usr/include/finclude/math-vector-fortran.h
REM seed -172275230 -1815269822 -892037040 592371923 1861326513 -1405799147 -1500359970 1520092363 -1653227128 -964028523 -2120094190 -936028135 2113655352 684624477 452207321 -2010163339 1858976050 -1375633431 237385829 -2020179956 -804944862 718585250 1416819201 760561917 -1784457398 410826565 1667485647 796195200 380455753 -850070396 -643077869 453513506 -1207017889
REM
CELL 1.54180   50.00000   50.00000   50.00000   90.00000   90.00000   90.00000
LATT -1
SFAC C  
C      1  0.5063080000000  0.5304230000000  0.5832060000000 1.0
C      1  0.5316730000000  0.4204990000000  0.4842570000000 1.0
C      1  0.5310680000000  0.4270080000000  0.4553250000000 1.0
C      1  0.5292540000000  0.5885710000000  0.5425420000000 1.0
C      1  0.4458650000000  0.4872000000000  0.5762740000000 1.0
C      1  0.5609240000000  0.4726410000000  0.5329900000000 1.0
C      1  0.4814040000000  0.5225630000000  0.4537990000000 1.0
C      1  0.4311000000000  0.5212580000000  0.5518030000000 1.0
C      1  0.5536350000000  0.5240710000000  0.5313390000000 1.0
C      1  0.5479300000000  0.4493380000000  0.5183370000000 1.0
C      1  0.4679230000000  0.4833170000000  0.4988540000000 1.0
C      1  0.5071800000000  0.4193910000000  0.5020390000000 1.0
C      1  0.4286580000000  0.4926400000000  0.5541620000000 1.0
C      1  0.4678140000000  0.4708880000000  0.5690350000000 1.0
C      1  0.4480980000000  0.5759140000000  0.5273610000000 1.0
C      1  0.5157190000000  0.4586810000000  0.4698960000000 1.0
C      1  0.4739830000000  0.4772190000000  0.4186340000000 1.0
C      1  0.4388310000000  0.5293590000000  0.4601640000000 1.0
C      1  0.4817140000000  0.5109660000000  0.5308070000000 1.0
C      1  0.5346420000000  0.4475390000000  0.5651020000000 1.0
C      1  0.4267240000000  0.4679580000000  0.5052980000000 1.0
C      1  0.5682980000000  0.5022260000000  0.4915230000000 1.0
C      1  0.5186870000000  0.5059760000000  0.4814010000000 1.0
C      1  0.4808070000000  0.5388320000000  0.5692100000000 1.0
C      1  0.5014350000000  0.4882770000000  0.5276350000000 1.0
C      1  0.5863340000000  0.4419780000000  0.4622320000000 1.0
C      1  0.4698030000000  0.4503490000000  0.4262870000000 1.0
C      1  0.4671380000000  0.5134610000000  0.5576890000000 1.0
C      1  0.4904980000000  0.5766260000000  0.4502020000000 1.0
C      1  0.5283610000000  0.4626170000000  0.4975210000000 1.0
C      1  0.5843640000000  0.5270790000000  0.4954060000000 1.0
C      1  0.5298370000000  0.5449120000000  0.5702780000000 1.0
C      1  0.4206440000000  0.4852980000000  0.4801210000000 1.0
C      1  0.4386610000000  0.4760590000000  0.5314450000000 1.0
C      1  0.4632680000000  0.5414260000000  0.4251350000000 1.0
C      1  0.5184650000000  0.5633240000000  0.5500720000000 1.0
C      1  0.5354500000000  0.5688480000000  0.5097490000000 1.0
C      1  0.5482440000000  0.4720240000000  0.5597200000000 1.0
C      1  0.5112830000000  0.5105690000000  0.4166700000000 1.0
C      1  0.5761150000000  0.5470380000000  0.4756640000000 1.0
C      1  0.4603580000000  0.4298610000000  0.5374260000000 1.0
C      1  0.5100520000000  0.4183770000000  0.5311560000000 1.0
C      1  0.4906320000000  0.4839060000000  0.5780250000000 1.0
C      1  0.4677190000000  0.4360010000000  0.4504520000000 1.0
C      1  0.4918310000000  0.5761290000000  0.4827800000000 1.0
C      1  0.5517090000000  0.4758360000000  0.4512990000000 1.0
C      1  0.4926310000000  0.4943640000000  0.4581420000000 1.0
C      1  0.5794230000000  0.4696160000000  0.4580660000000 1.0
C      1  0.4214970000000  0.5163300000000  0.4793940000000 1.0
C      1  0.5525100000000  0.4974540000000  0.5175060000000 1.0
C      1  0.5133420000000  0.5595130000000  0.4386140000000 1.0
C      1  0.4623100000000  0.4598720000000  0.5406380000000 1.0
C      1  0.4480080000000  0.5574110000000  0.4654720000000 1.0
C      1  0.5470620000000  0.5071930000000  0.4683210000000 1.0
C      1  0.4288710000000  0.5579620000000  0.5225800000000 1.0
C      1  0.4997630000000  0.4874220000000  0.4293580000000 1.0
C      1  0.5645920000000  0.5652710000000  0.5056130000000 1.0
C      1  0.5121580000000  0.5010490000000  0.5830250000000 1.0
C      1  0.4753810000000  0.5794140000000  0.5319590000000 1.0
C      1  0.4406770000000  0.4735330000000  0.4598720000000 1.0
C      1  0.4526070000000  0.4953490000000  0.4241600000000 1.0
C      1  0.4438900000000  0.5212240000000  0.4318850000000 1.0
C      1  0.5182090000000  0.5587980000000  0.4863290000000 1.0
C      1  0.4635090000000  0.5656390000000  0.4413960000000 1.0
C      1  0.5477930000000  0.5231650000000  0.5597580000000 1.0
C      1  0.4898010000000  0.5608670000000  0.5501050000000 1.0
C      1  0.4825260000000  0.4661840000000  0.5184670000000 1.0
C      1  0.5543450000000  0.5370020000000  0.4585440000000 1.0
C      1  0.5862690000000  0.4799320000000  0.4843440000000 1.0
C      1  0.4706840000000  0.4766670000000  0.4709870000000 1.0
C      1  0.4913170000000  0.5937830000000  0.5104220000000 1.0
C      1  0.4838460000000  0.4386520000000  0.4995690000000 1.0
C      1  0.4795020000000  0.5307730000000  0.4847780000000 1.0
C      1  0.5048430000000  0.5309470000000  0.4357990000000 1.0
C      1  0.5354460000000  0.4976120000000  0.5662210000000 1.0
C      1  0.5079700000000  0.5316860000000  0.4919170000000 1.0
C      1  0.5182970000000  0.6011010000000  0.5194130000000 1.0
C      1  0.5744980000000  0.5410690000000  0.5195690000000 1.0
C      1  0.4680590000000  0.5578660000000  0.4873940000000 1.0
C      1  0.4511410000000  0.4229070000000  0.5105970000000 1.0
C      1  0.4414660000000  0.4435460000000  0.4635200000000 1.0
C      1  0.4338650000000  0.5110170000000  0.5064760000000 1.0
C      1  0.4850240000000  0.4182220000000  0.5441420000000 1.0
C      1  0.4405750000000  0.4441840000000  0.4935990000000 1.0
C      1  0.5316680000000  0.4361440000000  0.5396270000000 1.0
C      1  0.5240340000000  0.4898900000000  0.5069530000000 1.0
C      1  0.5892730000000  0.4427250000000  0.4909970000000 1.0
C      1  0.4653510000000  0.5113080000000  0.5054510000000 1.0
C      1  0.5386700000000  0.4513320000000  0.4405570000000 1.0
C      1  0.4851280000000  0.4503350000000  0.4714310000000 1.0
C      1  0.5340550000000  0.5595070000000  0.4601650000000 1.0
C      1  0.4236630000000  0.5310690000000  0.5263060000000 1.0
C      1  0.5684170000000  0.4301230000000  0.5066720000000 1.0
C      1  0.5555970000000  0.4084990000000  0.4935690000000 1.0
END
