TITL C-950521-2237-654 -1.0187163983809e-06 125000 -470.917980249317 0 0 76 (C1) n - 1
REM
REM in /home/bkarasulu/work/CARBON/AIRSS/Generating-Clusters/EDIP-Nigel-Params/with-SteepDescent/Only-C1/SD-CG/HFTN-CG
REM
REM
REM
REM
REM
REM ./C.cell (11c1c37f851c82e70ff6c80c92926a4b)
REM
REM compiler GCC version 9.2.1 20190827 (Red Hat 9.2.1-1)
REM options -cpp -mtune=generic -march=x86-64 -g -O0 -fpre-include=/usr/include/finclude/math-vector-fortran.h
REM seed 272438951 -1992788253 -1532411246 1565276450 -2030267524 997723232 731098684 -806908349 -1445223485 -1805476488 1649935384 -1000569002 181217382 -2097971194 1839125547 402807020 1750475362 -996539300 63698623 -713441641 -1992072175 1348426889 820299356 2142277250 211041942 -1005992878 -1689257655 1708203210 -2134489076 -1321495079 -434585571 1203794092 692297610
REM
CELL 1.54180   50.00000   50.00000   50.00000   90.00000   90.00000   90.00000
LATT -1
SFAC C  
C      1  0.5468400000000  0.5625130000000  0.5093340000000 1.0
C      1  0.4833520000000  0.5922710000000  0.5425800000000 1.0
C      1  0.4782830000000  0.5455760000000  0.5119040000000 1.0
C      1  0.5092660000000  0.5585060000000  0.4665610000000 1.0
C      1  0.4521000000000  0.4677650000000  0.4532160000000 1.0
C      1  0.5721380000000  0.4693410000000  0.5272240000000 1.0
C      1  0.5592950000000  0.5150150000000  0.5183700000000 1.0
C      1  0.5337300000000  0.5443630000000  0.4542610000000 1.0
C      1  0.5633420000000  0.4755770000000  0.5528940000000 1.0
C      1  0.4689700000000  0.4351750000000  0.5476940000000 1.0
C      1  0.4951660000000  0.4118260000000  0.4874730000000 1.0
C      1  0.4398060000000  0.4817930000000  0.4997530000000 1.0
C      1  0.5466650000000  0.4335560000000  0.5094730000000 1.0
C      1  0.4896610000000  0.4881240000000  0.5641600000000 1.0
C      1  0.4896630000000  0.4696290000000  0.4225280000000 1.0
C      1  0.4211140000000  0.5235410000000  0.4753210000000 1.0
C      1  0.5129940000000  0.4561170000000  0.4305270000000 1.0
C      1  0.5228330000000  0.4317370000000  0.5281170000000 1.0
C      1  0.5152390000000  0.4754440000000  0.5569460000000 1.0
C      1  0.5177530000000  0.5857530000000  0.4730770000000 1.0
C      1  0.4649930000000  0.5328230000000  0.4529740000000 1.0
C      1  0.5143700000000  0.4272090000000  0.4707940000000 1.0
C      1  0.5367740000000  0.5827210000000  0.4925060000000 1.0
C      1  0.5329720000000  0.5909460000000  0.5464650000000 1.0
C      1  0.4477510000000  0.5130840000000  0.5641380000000 1.0
C      1  0.5087680000000  0.5521940000000  0.5565080000000 1.0
C      1  0.4816590000000  0.5196580000000  0.4103790000000 1.0
C      1  0.5066420000000  0.4663290000000  0.4899410000000 1.0
C      1  0.4413520000000  0.4396330000000  0.5211860000000 1.0
C      1  0.5070000000000  0.5809570000000  0.5518660000000 1.0
C      1  0.5709740000000  0.4429240000000  0.5192910000000 1.0
C      1  0.4476810000000  0.4350000000000  0.4918490000000 1.0
C      1  0.4999760000000  0.5367880000000  0.4235060000000 1.0
C      1  0.4906050000000  0.4364380000000  0.5649060000000 1.0
C      1  0.4762920000000  0.5136150000000  0.5598000000000 1.0
C      1  0.4305370000000  0.4671090000000  0.5239050000000 1.0
C      1  0.5555700000000  0.5332350000000  0.4708580000000 1.0
C      1  0.5396910000000  0.4382200000000  0.4812630000000 1.0
C      1  0.4245840000000  0.5085080000000  0.5498320000000 1.0
C      1  0.5428590000000  0.5000040000000  0.4368340000000 1.0
C      1  0.5101460000000  0.5135230000000  0.5269580000000 1.0
C      1  0.4879060000000  0.4890770000000  0.5253170000000 1.0
C      1  0.5402710000000  0.4904770000000  0.5581170000000 1.0
C      1  0.4676010000000  0.4821000000000  0.4350400000000 1.0
C      1  0.5664070000000  0.4832910000000  0.4779340000000 1.0
C      1  0.4599610000000  0.5254780000000  0.5020070000000 1.0
C      1  0.5639590000000  0.4884570000000  0.5074070000000 1.0
C      1  0.4675720000000  0.4168810000000  0.4837550000000 1.0
C      1  0.4928840000000  0.4860240000000  0.4756300000000 1.0
C      1  0.4909390000000  0.5335980000000  0.5412080000000 1.0
C      1  0.5245350000000  0.5244700000000  0.4353740000000 1.0
C      1  0.5624400000000  0.5065490000000  0.4590020000000 1.0
C      1  0.5179790000000  0.5233470000000  0.4992440000000 1.0
C      1  0.5089880000000  0.4317950000000  0.4436580000000 1.0
C      1  0.5467160000000  0.5668480000000  0.5385230000000 1.0
C      1  0.4465340000000  0.5370400000000  0.4779400000000 1.0
C      1  0.4468550000000  0.4611900000000  0.4796760000000 1.0
C      1  0.4438290000000  0.5655710000000  0.4853170000000 1.0
C      1  0.4865850000000  0.5526430000000  0.4456040000000 1.0
C      1  0.4804160000000  0.4372710000000  0.5206080000000 1.0
C      1  0.5010690000000  0.5453300000000  0.4925490000000 1.0
C      1  0.5000220000000  0.4617960000000  0.5177620000000 1.0
C      1  0.4998110000000  0.4134530000000  0.5168170000000 1.0
C      1  0.4641300000000  0.4976370000000  0.5072270000000 1.0
C      1  0.4307270000000  0.4816910000000  0.5485670000000 1.0
C      1  0.5357560000000  0.4712010000000  0.4420400000000 1.0
C      1  0.5155630000000  0.4459150000000  0.5557690000000 1.0
C      1  0.4204760000000  0.5000680000000  0.4887320000000 1.0
C      1  0.4642790000000  0.5913120000000  0.5238510000000 1.0
C      1  0.4617580000000  0.5696620000000  0.5069320000000 1.0
C      1  0.5154990000000  0.5016540000000  0.4798160000000 1.0
C      1  0.4646560000000  0.5113920000000  0.4315480000000 1.0
C      1  0.5384750000000  0.5152350000000  0.5412030000000 1.0
C      1  0.5370360000000  0.5429390000000  0.5546020000000 1.0
C      1  0.5467100000000  0.5341190000000  0.4994550000000 1.0
C      1  0.5522510000000  0.4599520000000  0.4645970000000 1.0
END
