TITL C-951338-5626-612 6.85473639769824e-07 125000 -1034.52898704578 0 0 165 (C1) n - 1
REM
REM in /home/bkarasulu/work/CARBON/AIRSS/Generating-Clusters/EDIP-Nigel-Params/with-SteepDescent/Only-C1/SD-CG/HFTN-CG
REM
REM
REM
REM
REM
REM ./C.cell (11c1c37f851c82e70ff6c80c92926a4b)
REM
REM compiler GCC version 9.2.1 20190827 (Red Hat 9.2.1-1)
REM options -cpp -mtune=generic -march=x86-64 -g -O0 -fpre-include=/usr/include/finclude/math-vector-fortran.h
REM seed 1787521152 2092856097 -1999055648 -12765489 -909211263 1518149152 -266431719 1816006467 1165781253 700683923 -711678951 1280197534 -520196334 545841067 337812411 -126820686 -1852060788 -931737119 -385023285 721792034 300028465 684629655 1544512860 -1814469509 1327770577 -1888004367 -1618353928 -539432420 730271900 1045513242 1555554873 -871258939 -181447799
REM
CELL 1.54180   50.00000   50.00000   50.00000   90.00000   90.00000   90.00000
LATT -1
SFAC C  
C      1  0.5611020000000  0.5695480000000  0.4627330000000 1.0
C      1  0.6139160000000  0.5052890000000  0.5609080000000 1.0
C      1  0.5890590000000  0.4570650000000  0.5099520000000 1.0
C      1  0.4253280000000  0.5028180000000  0.5710720000000 1.0
C      1  0.4726910000000  0.5516110000000  0.4458140000000 1.0
C      1  0.5237940000000  0.4178300000000  0.5194640000000 1.0
C      1  0.5743360000000  0.4799150000000  0.4254560000000 1.0
C      1  0.5232950000000  0.4868830000000  0.4435130000000 1.0
C      1  0.5853640000000  0.5514810000000  0.4595090000000 1.0
C      1  0.5517510000000  0.4378140000000  0.4864140000000 1.0
C      1  0.4895390000000  0.5280050000000  0.4342700000000 1.0
C      1  0.4682970000000  0.4673380000000  0.4793560000000 1.0
C      1  0.5102720000000  0.4475640000000  0.4667800000000 1.0
C      1  0.4174800000000  0.4428830000000  0.5176690000000 1.0
C      1  0.4639420000000  0.5536640000000  0.4917400000000 1.0
C      1  0.5237990000000  0.4280050000000  0.5935090000000 1.0
C      1  0.4799970000000  0.4992260000000  0.5154570000000 1.0
C      1  0.4873900000000  0.4584050000000  0.6011400000000 1.0
C      1  0.5157440000000  0.5188060000000  0.3949380000000 1.0
C      1  0.5700550000000  0.4342100000000  0.5094400000000 1.0
C      1  0.4288350000000  0.5493890000000  0.5600990000000 1.0
C      1  0.4511430000000  0.3985300000000  0.4796240000000 1.0
C      1  0.4504920000000  0.4395050000000  0.5852360000000 1.0
C      1  0.5078090000000  0.5069550000000  0.5372020000000 1.0
C      1  0.4644940000000  0.5271100000000  0.3978340000000 1.0
C      1  0.5222460000000  0.4540090000000  0.4937860000000 1.0
C      1  0.4758890000000  0.4198900000000  0.4371180000000 1.0
C      1  0.5733890000000  0.4806160000000  0.5736450000000 1.0
C      1  0.5289330000000  0.4978230000000  0.5886410000000 1.0
C      1  0.5197190000000  0.5207590000000  0.6053330000000 1.0
C      1  0.6047450000000  0.5147980000000  0.4885780000000 1.0
C      1  0.5240450000000  0.4242430000000  0.4529310000000 1.0
C      1  0.5649860000000  0.5211810000000  0.5274720000000 1.0
C      1  0.5464650000000  0.5750190000000  0.4375420000000 1.0
C      1  0.4932450000000  0.5363530000000  0.4050910000000 1.0
C      1  0.5386030000000  0.6112280000000  0.5239150000000 1.0
C      1  0.5193340000000  0.5354420000000  0.5359740000000 1.0
C      1  0.5238730000000  0.4915540000000  0.5168270000000 1.0
C      1  0.4998480000000  0.4497540000000  0.5165740000000 1.0
C      1  0.5546260000000  0.4896330000000  0.4058950000000 1.0
C      1  0.4862780000000  0.5784640000000  0.5758320000000 1.0
C      1  0.5958600000000  0.4945110000000  0.4697860000000 1.0
C      1  0.4406650000000  0.5917680000000  0.5069600000000 1.0
C      1  0.5318540000000  0.4728420000000  0.4156320000000 1.0
C      1  0.4714700000000  0.5238940000000  0.5909530000000 1.0
C      1  0.5542100000000  0.5029280000000  0.4830630000000 1.0
C      1  0.3907700000000  0.5082760000000  0.5031850000000 1.0
C      1  0.5111530000000  0.6055900000000  0.5154010000000 1.0
C      1  0.3924740000000  0.4782410000000  0.4977760000000 1.0
C      1  0.4672260000000  0.4828750000000  0.5570610000000 1.0
C      1  0.5590680000000  0.5339070000000  0.5812110000000 1.0
C      1  0.3935790000000  0.5196920000000  0.4760170000000 1.0
C      1  0.5853060000000  0.5012610000000  0.4432590000000 1.0
C      1  0.5425510000000  0.4127530000000  0.4737840000000 1.0
C      1  0.4321690000000  0.4934670000000  0.5088540000000 1.0
C      1  0.4120290000000  0.5349740000000  0.4594510000000 1.0
C      1  0.5143270000000  0.5348940000000  0.4489730000000 1.0
C      1  0.5856900000000  0.5301050000000  0.4350320000000 1.0
C      1  0.5579790000000  0.4554260000000  0.5694610000000 1.0
C      1  0.5423040000000  0.4348080000000  0.4301800000000 1.0
C      1  0.5869530000000  0.5568180000000  0.5124010000000 1.0
C      1  0.4546290000000  0.5406530000000  0.4668680000000 1.0
C      1  0.5414140000000  0.4784790000000  0.4700910000000 1.0
C      1  0.4746460000000  0.3963180000000  0.4963700000000 1.0
C      1  0.4816980000000  0.5468280000000  0.5734630000000 1.0
C      1  0.5431880000000  0.5567570000000  0.4837920000000 1.0
C      1  0.4932450000000  0.4692250000000  0.5656900000000 1.0
C      1  0.4672520000000  0.4003980000000  0.5251380000000 1.0
C      1  0.3934690000000  0.4607240000000  0.5211440000000 1.0
C      1  0.5642470000000  0.4582200000000  0.4674930000000 1.0
C      1  0.4923590000000  0.5763080000000  0.4514570000000 1.0
C      1  0.4894150000000  0.4930730000000  0.4416480000000 1.0
C      1  0.5250030000000  0.4009050000000  0.4940290000000 1.0
C      1  0.5714590000000  0.4967630000000  0.5111410000000 1.0
C      1  0.5496680000000  0.4297260000000  0.5300120000000 1.0
C      1  0.4251970000000  0.4973610000000  0.4790690000000 1.0
C      1  0.4982070000000  0.5535070000000  0.5282140000000 1.0
C      1  0.5711410000000  0.5511920000000  0.5598190000000 1.0
C      1  0.4378250000000  0.4006410000000  0.5270850000000 1.0
C      1  0.4141820000000  0.4771850000000  0.4410670000000 1.0
C      1  0.5649960000000  0.4537360000000  0.4381740000000 1.0
C      1  0.5632780000000  0.5745910000000  0.5183780000000 1.0
C      1  0.4444860000000  0.5418550000000  0.5138670000000 1.0
C      1  0.5976550000000  0.4826050000000  0.5569140000000 1.0
C      1  0.5417980000000  0.5361240000000  0.5163680000000 1.0
C      1  0.5866790000000  0.5382840000000  0.5362680000000 1.0
C      1  0.5313080000000  0.4356880000000  0.4038390000000 1.0
C      1  0.4455430000000  0.4394950000000  0.5566620000000 1.0
C      1  0.5140630000000  0.5689030000000  0.4828230000000 1.0
C      1  0.4072870000000  0.5529780000000  0.5165500000000 1.0
C      1  0.5461040000000  0.4425000000000  0.5911130000000 1.0
C      1  0.5030920000000  0.5840750000000  0.5349190000000 1.0
C      1  0.4945730000000  0.5501960000000  0.4977150000000 1.0
C      1  0.4723520000000  0.4740570000000  0.4225230000000 1.0
C      1  0.4383570000000  0.5785820000000  0.4519180000000 1.0
C      1  0.4095770000000  0.4639150000000  0.4672950000000 1.0
C      1  0.4810980000000  0.4458520000000  0.4653330000000 1.0
C      1  0.5285750000000  0.5885040000000  0.5529420000000 1.0
C      1  0.5553540000000  0.5263250000000  0.4633750000000 1.0
C      1  0.4163820000000  0.5252560000000  0.5535210000000 1.0
C      1  0.3940340000000  0.4750820000000  0.5450790000000 1.0
C      1  0.4849210000000  0.4029830000000  0.5487160000000 1.0
C      1  0.4705270000000  0.4981840000000  0.3941280000000 1.0
C      1  0.4480770000000  0.5097430000000  0.4627520000000 1.0
C      1  0.4780700000000  0.5937390000000  0.5496130000000 1.0
C      1  0.4491920000000  0.5556260000000  0.5401410000000 1.0
C      1  0.5087260000000  0.4689740000000  0.3849910000000 1.0
C      1  0.4252070000000  0.4383810000000  0.4691160000000 1.0
C      1  0.4434750000000  0.4669210000000  0.5479460000000 1.0
C      1  0.4551280000000  0.4977010000000  0.5811810000000 1.0
C      1  0.6010860000000  0.4650580000000  0.5346790000000 1.0
C      1  0.4176910000000  0.5722320000000  0.4975990000000 1.0
C      1  0.4872350000000  0.5065630000000  0.4880480000000 1.0
C      1  0.4733370000000  0.4935000000000  0.4672270000000 1.0
C      1  0.5071730000000  0.5253880000000  0.4831390000000 1.0
C      1  0.5673270000000  0.5377580000000  0.4124740000000 1.0
C      1  0.5040250000000  0.4436510000000  0.3984020000000 1.0
C      1  0.5605430000000  0.5647040000000  0.4153330000000 1.0
C      1  0.4205750000000  0.5621440000000  0.4690730000000 1.0
C      1  0.4281090000000  0.4006020000000  0.4983770000000 1.0
C      1  0.5884070000000  0.4687900000000  0.4816140000000 1.0
C      1  0.5556820000000  0.5045210000000  0.5774260000000 1.0
C      1  0.4149490000000  0.4263340000000  0.4930520000000 1.0
C      1  0.4596180000000  0.4655690000000  0.5968230000000 1.0
C      1  0.4421480000000  0.5395060000000  0.4165580000000 1.0
C      1  0.4505940000000  0.4219200000000  0.4604160000000 1.0
C      1  0.5186230000000  0.5640240000000  0.4396000000000 1.0
C      1  0.5595770000000  0.6007370000000  0.5085890000000 1.0
C      1  0.4786850000000  0.4166000000000  0.5743450000000 1.0
C      1  0.4993920000000  0.4939060000000  0.3943570000000 1.0
C      1  0.4515200000000  0.5849660000000  0.5357940000000 1.0
C      1  0.4829020000000  0.5988840000000  0.4732690000000 1.0
C      1  0.5354520000000  0.5159910000000  0.4405110000000 1.0
C      1  0.5422630000000  0.4553620000000  0.5434400000000 1.0
C      1  0.4736220000000  0.4682960000000  0.5090110000000 1.0
C      1  0.4452750000000  0.5677540000000  0.4249460000000 1.0
C      1  0.5095080000000  0.5980130000000  0.4870480000000 1.0
C      1  0.5286660000000  0.5697820000000  0.5994980000000 1.0
C      1  0.4056140000000  0.5250920000000  0.5246030000000 1.0
C      1  0.6088230000000  0.5031770000000  0.5145400000000 1.0
C      1  0.5113220000000  0.4032750000000  0.5405020000000 1.0
C      1  0.4253060000000  0.5241930000000  0.4350770000000 1.0
C      1  0.4434190000000  0.4718410000000  0.4307180000000 1.0
C      1  0.4966790000000  0.4330920000000  0.5906520000000 1.0
C      1  0.5924790000000  0.5414230000000  0.4869660000000 1.0
C      1  0.5488380000000  0.4797080000000  0.5260260000000 1.0
C      1  0.4578780000000  0.5829250000000  0.4822460000000 1.0
C      1  0.5092650000000  0.4937090000000  0.5658230000000 1.0
C      1  0.4752630000000  0.5433660000000  0.5455020000000 1.0
C      1  0.4991770000000  0.3970060000000  0.4799860000000 1.0
C      1  0.4422710000000  0.4660550000000  0.5177530000000 1.0
C      1  0.4916720000000  0.5208310000000  0.6101140000000 1.0
C      1  0.5106930000000  0.4546290000000  0.5445150000000 1.0
C      1  0.5440120000000  0.5177890000000  0.4108910000000 1.0
C      1  0.5538350000000  0.5714890000000  0.5461460000000 1.0
C      1  0.4521870000000  0.5125440000000  0.5186470000000 1.0
C      1  0.5352300000000  0.5432410000000  0.5950570000000 1.0
C      1  0.5307620000000  0.5140960000000  0.4984060000000 1.0
C      1  0.5153200000000  0.5856260000000  0.5807120000000 1.0
C      1  0.4178570000000  0.4775130000000  0.5595500000000 1.0
C      1  0.6110060000000  0.5202870000000  0.5376480000000 1.0
C      1  0.5001570000000  0.4047320000000  0.4496430000000 1.0
C      1  0.4239010000000  0.4847730000000  0.4148640000000 1.0
C      1  0.4259080000000  0.4243380000000  0.5408380000000 1.0
C      1  0.4852000000000  0.4459310000000  0.4214520000000 1.0
END
