TITL C-950534-5965-32 -1.54849685088706e-06 125000 -367.777147981361 0 0 60 (C1) n - 1
REM
REM in /home/bkarasulu/work/CARBON/AIRSS/Generating-Clusters/EDIP-Nigel-Params/with-SteepDescent/Only-C1/SD-CG/HFTN-CG
REM
REM
REM
REM
REM
REM ./C.cell (11c1c37f851c82e70ff6c80c92926a4b)
REM
REM compiler GCC version 9.2.1 20190827 (Red Hat 9.2.1-1)
REM options -cpp -mtune=generic -march=x86-64 -g -O0 -fpre-include=/usr/include/finclude/math-vector-fortran.h
REM seed 1100601824 -350818346 -1603371024 -955489975 -1807251158 -601416260 217690268 -2096978728 -1853137944 1182657947 -2076358253 -1055649648 790799727 2121224173 -298495678 46860954 -2012665549 -1697684142 -79404448 763271779 -2136444464 1791441694 2057080167 -1610755552 164075792 -1853518710 1129948149 -1894785739 118281078 2111247563 277621907 -1591988739 -1155074138
REM
CELL 1.54180   50.00000   50.00000   50.00000   90.00000   90.00000   90.00000
LATT -1
SFAC C  
C      1  0.4842840000000  0.4923420000000  0.4799830000000 1.0
C      1  0.4845110000000  0.4422770000000  0.4686920000000 1.0
C      1  0.4631980000000  0.5485830000000  0.4928090000000 1.0
C      1  0.5666300000000  0.5084830000000  0.4825850000000 1.0
C      1  0.4681740000000  0.4731220000000  0.4240330000000 1.0
C      1  0.5126700000000  0.5610300000000  0.4700470000000 1.0
C      1  0.4777050000000  0.5597750000000  0.5364640000000 1.0
C      1  0.5229330000000  0.4550890000000  0.4967300000000 1.0
C      1  0.4160430000000  0.5094650000000  0.4972230000000 1.0
C      1  0.5275410000000  0.4589860000000  0.4467530000000 1.0
C      1  0.5049380000000  0.4494510000000  0.5201850000000 1.0
C      1  0.4431020000000  0.4856160000000  0.4652320000000 1.0
C      1  0.4737060000000  0.4944490000000  0.5069700000000 1.0
C      1  0.4919950000000  0.5089230000000  0.4457780000000 1.0
C      1  0.4437060000000  0.4664190000000  0.4880400000000 1.0
C      1  0.5307060000000  0.5422640000000  0.5563740000000 1.0
C      1  0.5389250000000  0.5471670000000  0.4755380000000 1.0
C      1  0.4841120000000  0.5358300000000  0.4376440000000 1.0
C      1  0.4993110000000  0.5037860000000  0.5726140000000 1.0
C      1  0.4579200000000  0.5404170000000  0.4447580000000 1.0
C      1  0.4778870000000  0.4917990000000  0.5554180000000 1.0
C      1  0.4664720000000  0.4665810000000  0.5607560000000 1.0
C      1  0.4562430000000  0.4585610000000  0.5353250000000 1.0
C      1  0.5303870000000  0.4855670000000  0.4947030000000 1.0
C      1  0.4647960000000  0.4442540000000  0.4890420000000 1.0
C      1  0.4291080000000  0.5033250000000  0.5209220000000 1.0
C      1  0.5125730000000  0.5146900000000  0.5285140000000 1.0
C      1  0.5176120000000  0.4573180000000  0.5681490000000 1.0
C      1  0.4464550000000  0.5368220000000  0.4700010000000 1.0
C      1  0.5119360000000  0.4480020000000  0.4698770000000 1.0
C      1  0.4460550000000  0.4760700000000  0.4390200000000 1.0
C      1  0.5172590000000  0.4759780000000  0.4251320000000 1.0
C      1  0.5430980000000  0.5002320000000  0.4411110000000 1.0
C      1  0.5007160000000  0.5653550000000  0.5201260000000 1.0
C      1  0.5517110000000  0.4475690000000  0.5034630000000 1.0
C      1  0.5604960000000  0.5206370000000  0.5091790000000 1.0
C      1  0.4486930000000  0.4806360000000  0.5142670000000 1.0
C      1  0.5502120000000  0.4524940000000  0.5330440000000 1.0
C      1  0.5284330000000  0.5556300000000  0.5285320000000 1.0
C      1  0.4908790000000  0.4950970000000  0.5297650000000 1.0
C      1  0.4560950000000  0.5484740000000  0.5214750000000 1.0
C      1  0.5227360000000  0.4452720000000  0.5432610000000 1.0
C      1  0.4293650000000  0.5116780000000  0.4724440000000 1.0
C      1  0.4754620000000  0.4425210000000  0.5176080000000 1.0
C      1  0.5477660000000  0.5474250000000  0.5050240000000 1.0
C      1  0.5520110000000  0.4745590000000  0.4525550000000 1.0
C      1  0.5504920000000  0.5231410000000  0.5629100000000 1.0
C      1  0.5581200000000  0.4787610000000  0.4814060000000 1.0
C      1  0.5107550000000  0.5048910000000  0.4795000000000 1.0
C      1  0.5051340000000  0.5310340000000  0.5627610000000 1.0
C      1  0.5552570000000  0.4822540000000  0.5387420000000 1.0
C      1  0.4915560000000  0.4884010000000  0.4250500000000 1.0
C      1  0.5399850000000  0.5005990000000  0.5199030000000 1.0
C      1  0.5227230000000  0.4844330000000  0.5748280000000 1.0
C      1  0.5483490000000  0.5206040000000  0.4625040000000 1.0
C      1  0.5490580000000  0.4947910000000  0.5651970000000 1.0
C      1  0.4405430000000  0.5270330000000  0.5309290000000 1.0
C      1  0.4945190000000  0.5529790000000  0.4935860000000 1.0
C      1  0.5048310000000  0.5255160000000  0.5006270000000 1.0
C      1  0.5021130000000  0.5555450000000  0.4448890000000 1.0
END
