TITL C-951346-9544-158 -1.09286411230266e-06 125000 -332.069521750764 0 0 55 (C1) n - 1
REM
REM in /home/bkarasulu/work/CARBON/AIRSS/Generating-Clusters/EDIP-Nigel-Params/with-SteepDescent/Only-C1/SD-CG/HFTN-CG
REM
REM
REM
REM
REM
REM ./C.cell (11c1c37f851c82e70ff6c80c92926a4b)
REM
REM compiler GCC version 9.2.1 20190827 (Red Hat 9.2.1-1)
REM options -cpp -mtune=generic -march=x86-64 -g -O0 -fpre-include=/usr/include/finclude/math-vector-fortran.h
REM seed -740943706 1024198876 -1089771263 1486535139 -1033500228 -489972020 1944438552 -536208480 69309348 894682736 -1058224213 -917648609 -258638246 41367708 1846416852 -1734382088 -1118685166 589889981 102948770 1326809058 -1251837073 19831877 694576663 1315878049 -1980597402 1382675142 2071664013 -1264760782 343486398 -1758806895 438420128 -1372718734 -699055481
REM
CELL 1.54180   50.00000   50.00000   50.00000   90.00000   90.00000   90.00000
LATT -1
SFAC C  
C      1  0.4717010000000  0.5321640000000  0.4578220000000 1.0
C      1  0.5332290000000  0.5051840000000  0.4395400000000 1.0
C      1  0.5360410000000  0.5590620000000  0.4790830000000 1.0
C      1  0.5316050000000  0.5337870000000  0.5228980000000 1.0
C      1  0.5267450000000  0.4558410000000  0.4351310000000 1.0
C      1  0.4678420000000  0.4651720000000  0.5497770000000 1.0
C      1  0.5020210000000  0.4947860000000  0.5728340000000 1.0
C      1  0.4750110000000  0.5613770000000  0.4638220000000 1.0
C      1  0.4490530000000  0.5096580000000  0.5363280000000 1.0
C      1  0.5110710000000  0.4505880000000  0.5546920000000 1.0
C      1  0.4470300000000  0.4814890000000  0.5389860000000 1.0
C      1  0.4416150000000  0.5274890000000  0.4608500000000 1.0
C      1  0.5107190000000  0.5211200000000  0.5667910000000 1.0
C      1  0.5534470000000  0.4909260000000  0.5294620000000 1.0
C      1  0.5005310000000  0.4906400000000  0.5255400000000 1.0
C      1  0.4640980000000  0.4543340000000  0.4779490000000 1.0
C      1  0.5247150000000  0.4585850000000  0.5066590000000 1.0
C      1  0.4913610000000  0.4906280000000  0.4434010000000 1.0
C      1  0.4953030000000  0.5605260000000  0.5428340000000 1.0
C      1  0.4959020000000  0.4921570000000  0.4755310000000 1.0
C      1  0.5231320000000  0.4509470000000  0.4621650000000 1.0
C      1  0.4978410000000  0.5614350000000  0.5151750000000 1.0
C      1  0.4956700000000  0.4767010000000  0.5509800000000 1.0
C      1  0.4880160000000  0.5197920000000  0.4358990000000 1.0
C      1  0.4546300000000  0.5637010000000  0.4848820000000 1.0
C      1  0.5390900000000  0.4500990000000  0.5517680000000 1.0
C      1  0.4955360000000  0.4325350000000  0.5370720000000 1.0
C      1  0.5606260000000  0.5033330000000  0.5037190000000 1.0
C      1  0.4866290000000  0.5219870000000  0.4815880000000 1.0
C      1  0.5369810000000  0.5254920000000  0.5521570000000 1.0
C      1  0.5214990000000  0.5508690000000  0.4565810000000 1.0
C      1  0.5172070000000  0.4820230000000  0.4309170000000 1.0
C      1  0.5496100000000  0.4915610000000  0.4785120000000 1.0
C      1  0.5574290000000  0.5022240000000  0.4535860000000 1.0
C      1  0.4305510000000  0.4827460000000  0.4856350000000 1.0
C      1  0.4645540000000  0.5252820000000  0.5529910000000 1.0
C      1  0.4320450000000  0.5488220000000  0.4767070000000 1.0
C      1  0.4756500000000  0.4768480000000  0.4914780000000 1.0
C      1  0.4526280000000  0.4921700000000  0.5025840000000 1.0
C      1  0.5438840000000  0.4637040000000  0.5279250000000 1.0
C      1  0.4768630000000  0.5464490000000  0.4997820000000 1.0
C      1  0.4682150000000  0.4383100000000  0.5413390000000 1.0
C      1  0.5064710000000  0.4350930000000  0.5087460000000 1.0
C      1  0.4308880000000  0.5021880000000  0.4657440000000 1.0
C      1  0.5245870000000  0.4741750000000  0.4810660000000 1.0
C      1  0.5137950000000  0.5122330000000  0.5146960000000 1.0
C      1  0.4359260000000  0.4556650000000  0.4791160000000 1.0
C      1  0.5583490000000  0.5323760000000  0.5066710000000 1.0
C      1  0.5236510000000  0.5663700000000  0.5041350000000 1.0
C      1  0.5063290000000  0.4287780000000  0.4703850000000 1.0
C      1  0.5563550000000  0.5046140000000  0.5541980000000 1.0
C      1  0.4800950000000  0.4307480000000  0.4815430000000 1.0
C      1  0.4886210000000  0.5383540000000  0.5582150000000 1.0
C      1  0.5163230000000  0.5292330000000  0.4392130000000 1.0
C      1  0.5612850000000  0.5476310000000  0.4829010000000 1.0
END
