TITL C-950524-1808-551 -1.32091635806937e-06 125000 -801.422066201174 0 0 128 (C1) n - 1
REM
REM in /home/bkarasulu/work/CARBON/AIRSS/Generating-Clusters/EDIP-Nigel-Params/with-SteepDescent/Only-C1/SD-CG/HFTN-CG
REM
REM
REM
REM
REM
REM ./C.cell (11c1c37f851c82e70ff6c80c92926a4b)
REM
REM compiler GCC version 9.2.1 20190827 (Red Hat 9.2.1-1)
REM options -cpp -mtune=generic -march=x86-64 -g -O0 -fpre-include=/usr/include/finclude/math-vector-fortran.h
REM seed -590013818 681453221 259137692 131670437 14837635 1263553173 81593697 -1510324203 -778385919 900051005 -445205655 1563912530 -505631928 -1621241348 -2105223861 1841479640 -1610451684 -457003183 83584461 -210531087 1951307460 -1244143801 -1991123291 -651775713 -773585252 -1970969499 -584041870 -811530864 -1856878786 1311947309 -1164062683 1640524544 2076768413
REM
CELL 1.54180   50.00000   50.00000   50.00000   90.00000   90.00000   90.00000
LATT -1
SFAC C  
C      1  0.5664110000000  0.4697720000000  0.4779150000000 1.0
C      1  0.5631080000000  0.4708340000000  0.5523580000000 1.0
C      1  0.4681650000000  0.5037810000000  0.6032310000000 1.0
C      1  0.4678040000000  0.4511400000000  0.4387400000000 1.0
C      1  0.4743040000000  0.4674900000000  0.4621520000000 1.0
C      1  0.5612270000000  0.5265410000000  0.5687500000000 1.0
C      1  0.5438970000000  0.5915160000000  0.4941270000000 1.0
C      1  0.5129950000000  0.4159170000000  0.5113640000000 1.0
C      1  0.5580720000000  0.4116850000000  0.4998510000000 1.0
C      1  0.4281270000000  0.4799170000000  0.4305940000000 1.0
C      1  0.5003470000000  0.4813330000000  0.4592520000000 1.0
C      1  0.4845400000000  0.4663330000000  0.4167030000000 1.0
C      1  0.4693190000000  0.5208330000000  0.4714500000000 1.0
C      1  0.4614470000000  0.4061570000000  0.4852660000000 1.0
C      1  0.4604920000000  0.4549130000000  0.5511740000000 1.0
C      1  0.5220720000000  0.4507680000000  0.4850440000000 1.0
C      1  0.4592160000000  0.5763190000000  0.5437120000000 1.0
C      1  0.4481880000000  0.4885100000000  0.5888940000000 1.0
C      1  0.5356500000000  0.4995730000000  0.5333310000000 1.0
C      1  0.5606650000000  0.4579710000000  0.4346150000000 1.0
C      1  0.4439800000000  0.5054290000000  0.5344230000000 1.0
C      1  0.4880730000000  0.4126480000000  0.4706600000000 1.0
C      1  0.5016030000000  0.4184240000000  0.5538810000000 1.0
C      1  0.4550760000000  0.5382950000000  0.5719280000000 1.0
C      1  0.4450180000000  0.5285700000000  0.4276500000000 1.0
C      1  0.5084110000000  0.5657320000000  0.4885910000000 1.0
C      1  0.4531030000000  0.5408110000000  0.4545450000000 1.0
C      1  0.5130910000000  0.4757280000000  0.5841750000000 1.0
C      1  0.4627470000000  0.4174090000000  0.5149210000000 1.0
C      1  0.4135410000000  0.4787590000000  0.4878660000000 1.0
C      1  0.5406350000000  0.5000680000000  0.4222810000000 1.0
C      1  0.5509140000000  0.5795650000000  0.4683930000000 1.0
C      1  0.5291920000000  0.5867140000000  0.4484790000000 1.0
C      1  0.4303130000000  0.5476360000000  0.4745630000000 1.0
C      1  0.5320340000000  0.5465620000000  0.4172410000000 1.0
C      1  0.5856140000000  0.5493810000000  0.4912330000000 1.0
C      1  0.5156050000000  0.4785340000000  0.4852870000000 1.0
C      1  0.5536550000000  0.5800350000000  0.5190940000000 1.0
C      1  0.4594380000000  0.4652270000000  0.4870100000000 1.0
C      1  0.5230720000000  0.5245820000000  0.4640900000000 1.0
C      1  0.4938480000000  0.4874970000000  0.5117160000000 1.0
C      1  0.5747570000000  0.5613100000000  0.4662450000000 1.0
C      1  0.5352580000000  0.4919830000000  0.5938030000000 1.0
C      1  0.5108180000000  0.5101370000000  0.5164220000000 1.0
C      1  0.5538680000000  0.4334530000000  0.4520510000000 1.0
C      1  0.4082520000000  0.4904050000000  0.5145480000000 1.0
C      1  0.5769190000000  0.4768960000000  0.4505140000000 1.0
C      1  0.4474860000000  0.5599470000000  0.4968830000000 1.0
C      1  0.4910300000000  0.4061560000000  0.5289000000000 1.0
C      1  0.5276810000000  0.4331640000000  0.5586490000000 1.0
C      1  0.5180370000000  0.3984250000000  0.4691640000000 1.0
C      1  0.5358480000000  0.5225130000000  0.5540560000000 1.0
C      1  0.5318260000000  0.3983770000000  0.4972220000000 1.0
C      1  0.4772550000000  0.4449040000000  0.5076440000000 1.0
C      1  0.5780850000000  0.5145640000000  0.4585170000000 1.0
C      1  0.4854870000000  0.4486450000000  0.5378560000000 1.0
C      1  0.4266710000000  0.4373250000000  0.4610130000000 1.0
C      1  0.4559030000000  0.4843740000000  0.5590450000000 1.0
C      1  0.4420750000000  0.4369310000000  0.5371530000000 1.0
C      1  0.5372970000000  0.5822840000000  0.5436690000000 1.0
C      1  0.5287430000000  0.5446400000000  0.4841350000000 1.0
C      1  0.4862960000000  0.5638260000000  0.4376290000000 1.0
C      1  0.5826630000000  0.5137280000000  0.5570100000000 1.0
C      1  0.5077200000000  0.4897290000000  0.5581300000000 1.0
C      1  0.4760240000000  0.6002050000000  0.5074160000000 1.0
C      1  0.5048380000000  0.5357220000000  0.5827170000000 1.0
C      1  0.5002100000000  0.4326960000000  0.4916260000000 1.0
C      1  0.5447320000000  0.4909360000000  0.4839140000000 1.0
C      1  0.4374330000000  0.4516290000000  0.4362650000000 1.0
C      1  0.5465530000000  0.5074730000000  0.4587060000000 1.0
C      1  0.5093720000000  0.4315940000000  0.4329910000000 1.0
C      1  0.5806160000000  0.4918390000000  0.5399720000000 1.0
C      1  0.5377440000000  0.4715340000000  0.4209560000000 1.0
C      1  0.5772290000000  0.5419130000000  0.4442180000000 1.0
C      1  0.4963940000000  0.5119650000000  0.4552190000000 1.0
C      1  0.4691620000000  0.5388720000000  0.4986100000000 1.0
C      1  0.5896260000000  0.5198140000000  0.4870280000000 1.0
C      1  0.5073700000000  0.6004000000000  0.4645900000000 1.0
C      1  0.5876530000000  0.4472480000000  0.5130290000000 1.0
C      1  0.4313530000000  0.4542370000000  0.4848830000000 1.0
C      1  0.4243470000000  0.5041760000000  0.5849000000000 1.0
C      1  0.4671000000000  0.5657560000000  0.5706880000000 1.0
C      1  0.4911110000000  0.5554860000000  0.5103530000000 1.0
C      1  0.4169650000000  0.4491640000000  0.5387460000000 1.0
C      1  0.5595810000000  0.5464210000000  0.4228330000000 1.0
C      1  0.5154490000000  0.5658330000000  0.4324280000000 1.0
C      1  0.4309350000000  0.5319370000000  0.5873260000000 1.0
C      1  0.4758260000000  0.4941350000000  0.4140740000000 1.0
C      1  0.4830120000000  0.5811730000000  0.4632940000000 1.0
C      1  0.5537670000000  0.5074200000000  0.5088280000000 1.0
C      1  0.4418720000000  0.5579130000000  0.5280040000000 1.0
C      1  0.4041200000000  0.4905100000000  0.4406080000000 1.0
C      1  0.5762330000000  0.5613360000000  0.5163930000000 1.0
C      1  0.4631210000000  0.5848620000000  0.4869830000000 1.0
C      1  0.5022260000000  0.4711350000000  0.5351880000000 1.0
C      1  0.5652200000000  0.4322600000000  0.5199560000000 1.0
C      1  0.4930620000000  0.5165710000000  0.4245660000000 1.0
C      1  0.5501530000000  0.4454350000000  0.5418910000000 1.0
C      1  0.5470030000000  0.5380660000000  0.5078810000000 1.0
C      1  0.4477170000000  0.5334570000000  0.5436850000000 1.0
C      1  0.4839760000000  0.5803590000000  0.5276150000000 1.0
C      1  0.5906510000000  0.4959990000000  0.5103760000000 1.0
C      1  0.4110530000000  0.4766170000000  0.5394790000000 1.0
C      1  0.4809150000000  0.5017310000000  0.5590910000000 1.0
C      1  0.4974920000000  0.5643370000000  0.5730150000000 1.0
C      1  0.4149010000000  0.5179600000000  0.5126830000000 1.0
C      1  0.5887600000000  0.4698650000000  0.4971160000000 1.0
C      1  0.5312630000000  0.5223630000000  0.5927550000000 1.0
C      1  0.4490050000000  0.4995700000000  0.4244560000000 1.0
C      1  0.5565430000000  0.4804270000000  0.5782960000000 1.0
C      1  0.4743170000000  0.5409320000000  0.4216260000000 1.0
C      1  0.5081760000000  0.5802860000000  0.5489670000000 1.0
C      1  0.4402240000000  0.4137350000000  0.4685770000000 1.0
C      1  0.4123660000000  0.4930870000000  0.5620960000000 1.0
C      1  0.5305450000000  0.4154560000000  0.4458390000000 1.0
C      1  0.5208960000000  0.5195400000000  0.4127830000000 1.0
C      1  0.5116070000000  0.4621680000000  0.4315600000000 1.0
C      1  0.5308970000000  0.5454360000000  0.5344440000000 1.0
C      1  0.5507840000000  0.4430000000000  0.4799220000000 1.0
C      1  0.5220940000000  0.4494870000000  0.5806300000000 1.0
C      1  0.5175970000000  0.6024120000000  0.4923360000000 1.0
C      1  0.4782360000000  0.5203420000000  0.5809820000000 1.0
C      1  0.4110260000000  0.4995380000000  0.4665080000000 1.0
C      1  0.5041820000000  0.5364940000000  0.5263880000000 1.0
C      1  0.4493730000000  0.4945920000000  0.4864770000000 1.0
C      1  0.4827300000000  0.4247500000000  0.4431970000000 1.0
C      1  0.4641960000000  0.5021700000000  0.5112720000000 1.0
C      1  0.4160790000000  0.5236020000000  0.4839500000000 1.0
END
