TITL C-951337-3020-11 -1.43529681341621e-06 125000 -332.916894414803 0 0 54 (C1) n - 1
REM
REM in /home/bkarasulu/work/CARBON/AIRSS/Generating-Clusters/EDIP-Nigel-Params/with-SteepDescent/Only-C1/SD-CG/HFTN-CG
REM
REM
REM
REM
REM
REM ./C.cell (11c1c37f851c82e70ff6c80c92926a4b)
REM
REM compiler GCC version 9.2.1 20190827 (Red Hat 9.2.1-1)
REM options -cpp -mtune=generic -march=x86-64 -g -O0 -fpre-include=/usr/include/finclude/math-vector-fortran.h
REM seed -1360648898 1956912634 888777073 1557460098 440378373 -440460336 -1972242497 -811764559 -741501719 1291701575 -840277246 1562839530 -1594235688 -1839608137 -1351930508 -1973453675 1804138331 921478769 1964295131 -520144804 -1876626566 2071539092 -1454134525 -245814416 -1712946545 1785313075 -1378523671 2007094055 149900744 -1510167382 1404976211 -578417911 -1596900885
REM
CELL 1.54180   50.00000   50.00000   50.00000   90.00000   90.00000   90.00000
LATT -1
SFAC C  
C      1  0.5027350000000  0.5074900000000  0.4682990000000 1.0
C      1  0.4530310000000  0.4790530000000  0.5372610000000 1.0
C      1  0.4736850000000  0.5477920000000  0.4372370000000 1.0
C      1  0.5148230000000  0.5299040000000  0.4504610000000 1.0
C      1  0.4965870000000  0.4720070000000  0.5138900000000 1.0
C      1  0.4977770000000  0.5645910000000  0.5303040000000 1.0
C      1  0.4716750000000  0.5058930000000  0.4607150000000 1.0
C      1  0.4629910000000  0.5414330000000  0.5543110000000 1.0
C      1  0.4642000000000  0.4757850000000  0.4620980000000 1.0
C      1  0.4689000000000  0.5201260000000  0.4339740000000 1.0
C      1  0.5381250000000  0.4935330000000  0.4597400000000 1.0
C      1  0.5419200000000  0.5517690000000  0.5506500000000 1.0
C      1  0.4444690000000  0.4341010000000  0.5229180000000 1.0
C      1  0.4688950000000  0.5596540000000  0.5338670000000 1.0
C      1  0.5522570000000  0.5318330000000  0.5335960000000 1.0
C      1  0.5394430000000  0.4551070000000  0.5171750000000 1.0
C      1  0.4624290000000  0.4944460000000  0.5581090000000 1.0
C      1  0.5615360000000  0.4937410000000  0.4969210000000 1.0
C      1  0.4713050000000  0.5116690000000  0.5049800000000 1.0
C      1  0.5139540000000  0.5477970000000  0.5491200000000 1.0
C      1  0.4964600000000  0.5527360000000  0.4534590000000 1.0
C      1  0.4768540000000  0.5179340000000  0.5601850000000 1.0
C      1  0.5484640000000  0.5380210000000  0.5050650000000 1.0
C      1  0.5426940000000  0.4865130000000  0.5190560000000 1.0
C      1  0.5247610000000  0.5004570000000  0.5600520000000 1.0
C      1  0.5016670000000  0.4186070000000  0.5164100000000 1.0
C      1  0.4553180000000  0.5214990000000  0.4827680000000 1.0
C      1  0.5132270000000  0.4980110000000  0.5171560000000 1.0
C      1  0.4859520000000  0.4323430000000  0.4972230000000 1.0
C      1  0.4675790000000  0.4826970000000  0.5115320000000 1.0
C      1  0.4910890000000  0.5502320000000  0.4834830000000 1.0
C      1  0.5120740000000  0.5138080000000  0.4244780000000 1.0
C      1  0.5151820000000  0.4743530000000  0.5599600000000 1.0
C      1  0.4571290000000  0.4391200000000  0.4982070000000 1.0
C      1  0.5078050000000  0.5676090000000  0.5020420000000 1.0
C      1  0.5353090000000  0.5620660000000  0.4994030000000 1.0
C      1  0.5258860000000  0.4367000000000  0.4736760000000 1.0
C      1  0.5044660000000  0.5191740000000  0.5488420000000 1.0
C      1  0.4996870000000  0.5185230000000  0.4962110000000 1.0
C      1  0.4530360000000  0.4677930000000  0.4891470000000 1.0
C      1  0.5018620000000  0.4510350000000  0.4815900000000 1.0
C      1  0.4529210000000  0.5613850000000  0.5110240000000 1.0
C      1  0.5454750000000  0.4496540000000  0.4886690000000 1.0
C      1  0.4608080000000  0.5507290000000  0.4863580000000 1.0
C      1  0.5041740000000  0.4684720000000  0.4360790000000 1.0
C      1  0.4857290000000  0.5097710000000  0.4142770000000 1.0
C      1  0.5181640000000  0.4371990000000  0.5306780000000 1.0
C      1  0.5560150000000  0.4742610000000  0.4756580000000 1.0
C      1  0.5018460000000  0.4585970000000  0.5411620000000 1.0
C      1  0.4877100000000  0.4592700000000  0.4566880000000 1.0
C      1  0.5491040000000  0.5032020000000  0.5432380000000 1.0
C      1  0.5238290000000  0.4881850000000  0.4339920000000 1.0
C      1  0.4424060000000  0.4537140000000  0.5413890000000 1.0
C      1  0.5545830000000  0.5186080000000  0.4852200000000 1.0
END
