TITL C-951336-9012-304 -2.84784910885837e-06 125000 -577.900816822415 0 0 94 (C1) n - 1
REM
REM in /home/bkarasulu/work/CARBON/AIRSS/Generating-Clusters/EDIP-Nigel-Params/with-SteepDescent/Only-C1/SD-CG/HFTN-CG
REM
REM
REM
REM
REM
REM ./C.cell (11c1c37f851c82e70ff6c80c92926a4b)
REM
REM compiler GCC version 9.2.1 20190827 (Red Hat 9.2.1-1)
REM options -cpp -mtune=generic -march=x86-64 -g -O0 -fpre-include=/usr/include/finclude/math-vector-fortran.h
REM seed 652675737 1410784798 -1652128712 -707727427 1834555120 1537592559 379179491 479033907 -1075716022 600603718 1144866258 -1697444255 -1625216845 -397452127 1844489527 451037269 431181076 -619399818 357686446 -1436075964 -1074782840 977179686 -1312921515 1736686066 -1505327972 487447509 1443630259 1270301534 1191992967 -2131319823 654122334 -1857609384 -1745423472
REM
CELL 1.54180   50.00000   50.00000   50.00000   90.00000   90.00000   90.00000
LATT -1
SFAC C  
C      1  0.4657530000000  0.4250450000000  0.5142780000000 1.0
C      1  0.4955510000000  0.5090500000000  0.5497980000000 1.0
C      1  0.4934950000000  0.4163190000000  0.5000450000000 1.0
C      1  0.5501200000000  0.5357100000000  0.5871580000000 1.0
C      1  0.4389510000000  0.5166240000000  0.4922800000000 1.0
C      1  0.4345380000000  0.4811320000000  0.4423860000000 1.0
C      1  0.4541530000000  0.5316430000000  0.5348660000000 1.0
C      1  0.5009760000000  0.4509470000000  0.5685540000000 1.0
C      1  0.4814310000000  0.4495450000000  0.4815340000000 1.0
C      1  0.5497570000000  0.4568770000000  0.5420060000000 1.0
C      1  0.4540450000000  0.5182700000000  0.4650520000000 1.0
C      1  0.5333570000000  0.5698850000000  0.5184500000000 1.0
C      1  0.5498000000000  0.5262000000000  0.4297910000000 1.0
C      1  0.4404160000000  0.4836890000000  0.5449440000000 1.0
C      1  0.4329740000000  0.4450910000000  0.4778350000000 1.0
C      1  0.4480180000000  0.5680700000000  0.4632550000000 1.0
C      1  0.4950090000000  0.5625610000000  0.5466680000000 1.0
C      1  0.5772850000000  0.4901600000000  0.5244800000000 1.0
C      1  0.4745030000000  0.4489340000000  0.5577540000000 1.0
C      1  0.5584750000000  0.5580640000000  0.5059610000000 1.0
C      1  0.4673720000000  0.4778790000000  0.4810500000000 1.0
C      1  0.4673590000000  0.5452230000000  0.4607030000000 1.0
C      1  0.5192940000000  0.5224280000000  0.4292640000000 1.0
C      1  0.5123340000000  0.4786370000000  0.5680770000000 1.0
C      1  0.5568670000000  0.5455900000000  0.4494520000000 1.0
C      1  0.5633690000000  0.5131530000000  0.5107880000000 1.0
C      1  0.5436240000000  0.4290370000000  0.4908730000000 1.0
C      1  0.4784170000000  0.4925280000000  0.4323960000000 1.0
C      1  0.4379270000000  0.5108130000000  0.4393440000000 1.0
C      1  0.5095000000000  0.4563680000000  0.4963460000000 1.0
C      1  0.5563070000000  0.4764060000000  0.5632060000000 1.0
C      1  0.5390290000000  0.4925340000000  0.4691240000000 1.0
C      1  0.4742520000000  0.5428600000000  0.4309220000000 1.0
C      1  0.4946370000000  0.5872430000000  0.4760320000000 1.0
C      1  0.4369470000000  0.4741640000000  0.4726660000000 1.0
C      1  0.5620920000000  0.5435120000000  0.4773070000000 1.0
C      1  0.5030740000000  0.5476710000000  0.4273250000000 1.0
C      1  0.4901270000000  0.5485530000000  0.4846140000000 1.0
C      1  0.5098870000000  0.5819990000000  0.5033650000000 1.0
C      1  0.5423380000000  0.5537890000000  0.5666200000000 1.0
C      1  0.5721610000000  0.5380800000000  0.5253230000000 1.0
C      1  0.4883630000000  0.5733230000000  0.5207340000000 1.0
C      1  0.4240600000000  0.5595470000000  0.4748390000000 1.0
C      1  0.5177550000000  0.4938310000000  0.5330740000000 1.0
C      1  0.4353810000000  0.5125840000000  0.5505780000000 1.0
C      1  0.4410120000000  0.5530080000000  0.5179500000000 1.0
C      1  0.4744360000000  0.5164250000000  0.5182400000000 1.0
C      1  0.5290210000000  0.4738530000000  0.4499370000000 1.0
C      1  0.5270360000000  0.5193830000000  0.4669550000000 1.0
C      1  0.4357840000000  0.4715370000000  0.5178970000000 1.0
C      1  0.5287850000000  0.4237210000000  0.4652290000000 1.0
C      1  0.5111760000000  0.5672770000000  0.4473120000000 1.0
C      1  0.5649240000000  0.5002080000000  0.4335680000000 1.0
C      1  0.4410090000000  0.5192940000000  0.5780560000000 1.0
C      1  0.4254420000000  0.4901970000000  0.4960240000000 1.0
C      1  0.4621810000000  0.5724490000000  0.5085850000000 1.0
C      1  0.4388120000000  0.4276820000000  0.4566950000000 1.0
C      1  0.5405980000000  0.5104100000000  0.5923220000000 1.0
C      1  0.5003570000000  0.4110090000000  0.4694100000000 1.0
C      1  0.5312300000000  0.5138780000000  0.5149900000000 1.0
C      1  0.5159160000000  0.4516090000000  0.4642590000000 1.0
C      1  0.5694660000000  0.5286010000000  0.5546310000000 1.0
C      1  0.4588960000000  0.4665320000000  0.4311500000000 1.0
C      1  0.5246210000000  0.4765430000000  0.4115840000000 1.0
C      1  0.4662920000000  0.5327300000000  0.5817420000000 1.0
C      1  0.4680120000000  0.4873450000000  0.5848620000000 1.0
C      1  0.4444700000000  0.4443290000000  0.5051810000000 1.0
C      1  0.4643640000000  0.5843820000000  0.4816350000000 1.0
C      1  0.5317280000000  0.4343440000000  0.5408170000000 1.0
C      1  0.5755690000000  0.4669810000000  0.4722400000000 1.0
C      1  0.4566890000000  0.4703750000000  0.5653000000000 1.0
C      1  0.4237840000000  0.5418360000000  0.4967730000000 1.0
C      1  0.5671540000000  0.4939980000000  0.4641920000000 1.0
C      1  0.4611450000000  0.4391020000000  0.4441170000000 1.0
C      1  0.5368280000000  0.4843330000000  0.5832780000000 1.0
C      1  0.5171720000000  0.4288180000000  0.5636470000000 1.0
C      1  0.5243920000000  0.5599620000000  0.5449980000000 1.0
C      1  0.4778880000000  0.4985430000000  0.4623260000000 1.0
C      1  0.5611690000000  0.4534350000000  0.4927210000000 1.0
C      1  0.5233460000000  0.4241030000000  0.5135280000000 1.0
C      1  0.4713950000000  0.5457790000000  0.5557630000000 1.0
C      1  0.4848340000000  0.4243540000000  0.4489640000000 1.0
C      1  0.4621060000000  0.5164980000000  0.4211330000000 1.0
C      1  0.5024160000000  0.4804570000000  0.5118180000000 1.0
C      1  0.5740570000000  0.4980520000000  0.5530040000000 1.0
C      1  0.4676840000000  0.4271510000000  0.5419560000000 1.0
C      1  0.4754220000000  0.4889750000000  0.5086190000000 1.0
C      1  0.5520420000000  0.4779670000000  0.4190540000000 1.0
C      1  0.5088560000000  0.5203280000000  0.4934500000000 1.0
C      1  0.5654110000000  0.4637940000000  0.5193730000000 1.0
C      1  0.4842970000000  0.5099390000000  0.5787510000000 1.0
C      1  0.5196600000000  0.5530680000000  0.4718490000000 1.0
C      1  0.5735520000000  0.5169690000000  0.4828390000000 1.0
C      1  0.5064840000000  0.4968680000000  0.4201540000000 1.0
END
