TITL C-950526-5686-594 5.84667448553532e-06 125000 -944.549618137795 0 0 152 (C1) n - 1
REM
REM in /home/bkarasulu/work/CARBON/AIRSS/Generating-Clusters/EDIP-Nigel-Params/with-SteepDescent/Only-C1/SD-CG/HFTN-CG
REM
REM
REM
REM
REM
REM ./C.cell (11c1c37f851c82e70ff6c80c92926a4b)
REM
REM compiler GCC version 9.2.1 20190827 (Red Hat 9.2.1-1)
REM options -cpp -mtune=generic -march=x86-64 -g -O0 -fpre-include=/usr/include/finclude/math-vector-fortran.h
REM seed 2100714091 -1787083684 -1628468433 -1337006214 -1184889203 373873674 341108725 237137233 -858312999 -71159002 544825725 1063348313 1939031576 -946250868 371530785 -1655940023 -2087026410 -236164009 773918565 -1025301780 306301292 1745106547 -1029345309 -758886414 -1051271447 904715785 -648466414 -1166939654 676201884 -1835421133 1824388881 1452551356 1605595651
REM
CELL 1.54180   50.00000   50.00000   50.00000   90.00000   90.00000   90.00000
LATT -1
SFAC C  
C      1  0.5291570000000  0.5149280000000  0.4111240000000 1.0
C      1  0.5057550000000  0.5484330000000  0.5901320000000 1.0
C      1  0.4959320000000  0.4258740000000  0.4554660000000 1.0
C      1  0.4710720000000  0.5113190000000  0.5120060000000 1.0
C      1  0.4692820000000  0.4873680000000  0.5592550000000 1.0
C      1  0.5593970000000  0.5047710000000  0.4142680000000 1.0
C      1  0.5099580000000  0.5301510000000  0.5502840000000 1.0
C      1  0.4820250000000  0.5801830000000  0.4167600000000 1.0
C      1  0.4414210000000  0.5175670000000  0.4661050000000 1.0
C      1  0.4890990000000  0.5891690000000  0.4605120000000 1.0
C      1  0.4041580000000  0.5217710000000  0.4915200000000 1.0
C      1  0.4931480000000  0.4664980000000  0.5119950000000 1.0
C      1  0.5245560000000  0.5262510000000  0.5976160000000 1.0
C      1  0.4900320000000  0.5536320000000  0.4145580000000 1.0
C      1  0.5393950000000  0.4858960000000  0.4621670000000 1.0
C      1  0.5022920000000  0.4690160000000  0.4841640000000 1.0
C      1  0.4864330000000  0.4583210000000  0.5938950000000 1.0
C      1  0.5422720000000  0.4872510000000  0.5513200000000 1.0
C      1  0.4668740000000  0.4167880000000  0.5307200000000 1.0
C      1  0.5390990000000  0.4237680000000  0.4414500000000 1.0
C      1  0.5149780000000  0.4323650000000  0.5306600000000 1.0
C      1  0.4529070000000  0.4346630000000  0.4303610000000 1.0
C      1  0.4493830000000  0.4151040000000  0.5065050000000 1.0
C      1  0.4845310000000  0.5614510000000  0.4733050000000 1.0
C      1  0.5572660000000  0.4956390000000  0.5778530000000 1.0
C      1  0.4111110000000  0.4835990000000  0.5553880000000 1.0
C      1  0.4271090000000  0.4393810000000  0.4205210000000 1.0
C      1  0.4330520000000  0.4896420000000  0.4808150000000 1.0
C      1  0.5844380000000  0.4900090000000  0.4539890000000 1.0
C      1  0.3992680000000  0.4947830000000  0.5312110000000 1.0
C      1  0.4696940000000  0.4814470000000  0.4376210000000 1.0
C      1  0.6022190000000  0.5161100000000  0.4924160000000 1.0
C      1  0.4970130000000  0.4381230000000  0.4288840000000 1.0
C      1  0.5319320000000  0.5666130000000  0.4374300000000 1.0
C      1  0.4169670000000  0.4554460000000  0.5494920000000 1.0
C      1  0.5457210000000  0.4733410000000  0.5097750000000 1.0
C      1  0.5745090000000  0.5635400000000  0.4921580000000 1.0
C      1  0.5939740000000  0.5430580000000  0.4875390000000 1.0
C      1  0.4674940000000  0.5627080000000  0.4993080000000 1.0
C      1  0.4377990000000  0.5587470000000  0.4957040000000 1.0
C      1  0.4022040000000  0.4909380000000  0.4839910000000 1.0
C      1  0.4458880000000  0.5006100000000  0.5342790000000 1.0
C      1  0.5262090000000  0.4645040000000  0.5647920000000 1.0
C      1  0.5283770000000  0.3911960000000  0.5199080000000 1.0
C      1  0.4486210000000  0.5809700000000  0.5367030000000 1.0
C      1  0.5466870000000  0.4434880000000  0.5710880000000 1.0
C      1  0.5564390000000  0.5787600000000  0.5352620000000 1.0
C      1  0.5809210000000  0.4978550000000  0.4824760000000 1.0
C      1  0.4521380000000  0.4283250000000  0.4600350000000 1.0
C      1  0.5724450000000  0.4449060000000  0.5551580000000 1.0
C      1  0.5179560000000  0.4876430000000  0.4434540000000 1.0
C      1  0.4145040000000  0.4616720000000  0.4617880000000 1.0
C      1  0.4271940000000  0.4377020000000  0.4723890000000 1.0
C      1  0.5232080000000  0.4026420000000  0.4949750000000 1.0
C      1  0.5841770000000  0.4727450000000  0.5510350000000 1.0
C      1  0.4942210000000  0.4944470000000  0.5236740000000 1.0
C      1  0.5523080000000  0.5579610000000  0.5127630000000 1.0
C      1  0.4909420000000  0.4273160000000  0.5121020000000 1.0
C      1  0.4424120000000  0.5459190000000  0.4234960000000 1.0
C      1  0.5610580000000  0.4404960000000  0.4648630000000 1.0
C      1  0.4190230000000  0.4629760000000  0.4329350000000 1.0
C      1  0.4760020000000  0.5346780000000  0.4596350000000 1.0
C      1  0.4862560000000  0.4399330000000  0.5704790000000 1.0
C      1  0.5345690000000  0.4304720000000  0.4872940000000 1.0
C      1  0.5853040000000  0.4277870000000  0.5081640000000 1.0
C      1  0.3966050000000  0.4754790000000  0.5096600000000 1.0
C      1  0.5488580000000  0.4764000000000  0.6009340000000 1.0
C      1  0.5133610000000  0.4838290000000  0.3960520000000 1.0
C      1  0.4247560000000  0.5244260000000  0.4161390000000 1.0
C      1  0.5271410000000  0.4860350000000  0.4886250000000 1.0
C      1  0.5496540000000  0.5242900000000  0.5827800000000 1.0
C      1  0.5755530000000  0.4738390000000  0.5010870000000 1.0
C      1  0.4123240000000  0.4516200000000  0.5196960000000 1.0
C      1  0.4334980000000  0.4422690000000  0.5704400000000 1.0
C      1  0.4945030000000  0.5902410000000  0.5293970000000 1.0
C      1  0.5102080000000  0.4426370000000  0.4753550000000 1.0
C      1  0.4288890000000  0.5623570000000  0.5239870000000 1.0
C      1  0.4807840000000  0.4833740000000  0.4671080000000 1.0
C      1  0.4691930000000  0.5886280000000  0.5155990000000 1.0
C      1  0.5408930000000  0.5369150000000  0.5575150000000 1.0
C      1  0.5223580000000  0.4062410000000  0.5415920000000 1.0
C      1  0.4636580000000  0.4773980000000  0.5876280000000 1.0
C      1  0.4752300000000  0.4556810000000  0.4198620000000 1.0
C      1  0.5188620000000  0.5476330000000  0.4177370000000 1.0
C      1  0.5411340000000  0.5945040000000  0.4776190000000 1.0
C      1  0.5926490000000  0.5532760000000  0.5392280000000 1.0
C      1  0.4302440000000  0.5602400000000  0.4462430000000 1.0
C      1  0.5938040000000  0.4802510000000  0.5244060000000 1.0
C      1  0.5619140000000  0.4709490000000  0.4493480000000 1.0
C      1  0.4954630000000  0.3974800000000  0.4823190000000 1.0
C      1  0.4651550000000  0.4103990000000  0.4811990000000 1.0
C      1  0.5646730000000  0.5791640000000  0.4695120000000 1.0
C      1  0.5592710000000  0.5617270000000  0.4462770000000 1.0
C      1  0.4340480000000  0.5295420000000  0.5643120000000 1.0
C      1  0.5581750000000  0.5178720000000  0.4863600000000 1.0
C      1  0.4368920000000  0.4658320000000  0.5878940000000 1.0
C      1  0.4398080000000  0.4943010000000  0.4008090000000 1.0
C      1  0.5810290000000  0.4468690000000  0.4882660000000 1.0
C      1  0.4605750000000  0.4351610000000  0.5557970000000 1.0
C      1  0.5416050000000  0.5670560000000  0.5593000000000 1.0
C      1  0.4406610000000  0.4794080000000  0.5094280000000 1.0
C      1  0.4577010000000  0.5456850000000  0.5734250000000 1.0
C      1  0.5276100000000  0.4711520000000  0.4190940000000 1.0
C      1  0.5859760000000  0.4914430000000  0.5725910000000 1.0
C      1  0.5625940000000  0.4519370000000  0.5925530000000 1.0
C      1  0.4239190000000  0.5407330000000  0.4756860000000 1.0
C      1  0.5242650000000  0.4414300000000  0.4220320000000 1.0
C      1  0.5847410000000  0.5791350000000  0.5405670000000 1.0
C      1  0.6030590000000  0.5088250000000  0.5214500000000 1.0
C      1  0.4854960000000  0.4733620000000  0.3926570000000 1.0
C      1  0.4681430000000  0.4981160000000  0.3936260000000 1.0
C      1  0.4385640000000  0.4844720000000  0.4294420000000 1.0
C      1  0.5411450000000  0.6005900000000  0.5069550000000 1.0
C      1  0.5203430000000  0.5894980000000  0.4543890000000 1.0
C      1  0.4777000000000  0.5064650000000  0.4206520000000 1.0
C      1  0.5576010000000  0.5273840000000  0.5174030000000 1.0
C      1  0.4779440000000  0.5388770000000  0.5936240000000 1.0
C      1  0.5050680000000  0.4506210000000  0.5512260000000 1.0
C      1  0.4712770000000  0.5351770000000  0.4287520000000 1.0
C      1  0.5570110000000  0.4752800000000  0.4189380000000 1.0
C      1  0.5672560000000  0.5349810000000  0.4536520000000 1.0
C      1  0.5400650000000  0.4435260000000  0.5147600000000 1.0
C      1  0.5146680000000  0.5149060000000  0.4914480000000 1.0
C      1  0.5157450000000  0.6032490000000  0.5173720000000 1.0
C      1  0.4648300000000  0.4561530000000  0.5116210000000 1.0
C      1  0.5217390000000  0.5637880000000  0.5070730000000 1.0
C      1  0.4801790000000  0.5134290000000  0.6060400000000 1.0
C      1  0.4599620000000  0.4623140000000  0.5418300000000 1.0
C      1  0.5653750000000  0.4325440000000  0.5272860000000 1.0
C      1  0.4293060000000  0.5004400000000  0.5716410000000 1.0
C      1  0.5351440000000  0.5091030000000  0.5304730000000 1.0
C      1  0.4830650000000  0.5105660000000  0.4797230000000 1.0
C      1  0.5176510000000  0.4056780000000  0.4515010000000 1.0
C      1  0.5051360000000  0.5039550000000  0.5930560000000 1.0
C      1  0.4703400000000  0.5928310000000  0.4387550000000 1.0
C      1  0.4270110000000  0.5082930000000  0.4409800000000 1.0
C      1  0.5150260000000  0.4743350000000  0.5943890000000 1.0
C      1  0.4637750000000  0.5713910000000  0.5604180000000 1.0
C      1  0.4448550000000  0.5839510000000  0.4467030000000 1.0
C      1  0.4084990000000  0.5195290000000  0.5207240000000 1.0
C      1  0.4772520000000  0.5400980000000  0.5163260000000 1.0
C      1  0.5057440000000  0.5398110000000  0.5203850000000 1.0
C      1  0.4996550000000  0.4985970000000  0.5537920000000 1.0
C      1  0.4227020000000  0.5375530000000  0.5380920000000 1.0
C      1  0.5134640000000  0.5182450000000  0.4429470000000 1.0
C      1  0.5776370000000  0.5138570000000  0.4365980000000 1.0
C      1  0.4281800000000  0.4345130000000  0.5008430000000 1.0
C      1  0.5266690000000  0.5310750000000  0.4687510000000 1.0
C      1  0.5833720000000  0.5272460000000  0.5339350000000 1.0
C      1  0.5134690000000  0.5690900000000  0.5706030000000 1.0
C      1  0.5156110000000  0.5586450000000  0.4777280000000 1.0
C      1  0.4912490000000  0.5821420000000  0.5569920000000 1.0
END
