TITL C-950531-5884-367 1.6912985081677e-06 125000 -1032.14893981837 0 0 165 (C1) n - 1
REM
REM in /home/bkarasulu/work/CARBON/AIRSS/Generating-Clusters/EDIP-Nigel-Params/with-SteepDescent/Only-C1/SD-CG/HFTN-CG
REM
REM
REM
REM
REM
REM ./C.cell (11c1c37f851c82e70ff6c80c92926a4b)
REM
REM compiler GCC version 9.2.1 20190827 (Red Hat 9.2.1-1)
REM options -cpp -mtune=generic -march=x86-64 -g -O0 -fpre-include=/usr/include/finclude/math-vector-fortran.h
REM seed -172930993 454287404 -1554004658 974739850 1079120557 281898279 1097114648 1925062228 825815498 1947630951 1689375265 396052054 -783147520 -2109004140 -1940408818 -281313254 1750733051 -2130907476 -908256864 579166478 -1964180456 -1677822382 603924334 93186779 768351942 -1393731852 -1733216114 1410377300 109293588 -168391257 -1433852487 1040479749 -383096610
REM
CELL 1.54180   50.00000   50.00000   50.00000   90.00000   90.00000   90.00000
LATT -1
SFAC C  
C      1  0.5160130000000  0.4527270000000  0.4869670000000 1.0
C      1  0.5029500000000  0.5622400000000  0.4247940000000 1.0
C      1  0.5242770000000  0.4285390000000  0.4455810000000 1.0
C      1  0.6046080000000  0.5336900000000  0.5082740000000 1.0
C      1  0.5113150000000  0.4367940000000  0.5907870000000 1.0
C      1  0.4948410000000  0.4517130000000  0.4012850000000 1.0
C      1  0.5317930000000  0.4757970000000  0.5846690000000 1.0
C      1  0.5480680000000  0.4940820000000  0.5019600000000 1.0
C      1  0.5773280000000  0.4365020000000  0.4857630000000 1.0
C      1  0.5144610000000  0.5367460000000  0.5929190000000 1.0
C      1  0.4832190000000  0.5247660000000  0.5636360000000 1.0
C      1  0.6034000000000  0.5117280000000  0.4890860000000 1.0
C      1  0.4000130000000  0.5437310000000  0.5141890000000 1.0
C      1  0.5384510000000  0.4484250000000  0.5884650000000 1.0
C      1  0.4988570000000  0.5822510000000  0.4741770000000 1.0
C      1  0.4860270000000  0.4944600000000  0.4193270000000 1.0
C      1  0.4169120000000  0.4495370000000  0.5004310000000 1.0
C      1  0.5535170000000  0.5281000000000  0.4517060000000 1.0
C      1  0.4211670000000  0.4998190000000  0.4210170000000 1.0
C      1  0.4758030000000  0.5971410000000  0.5439590000000 1.0
C      1  0.4883020000000  0.4549220000000  0.5785290000000 1.0
C      1  0.4611200000000  0.5565540000000  0.4028810000000 1.0
C      1  0.4979350000000  0.5305880000000  0.4899270000000 1.0
C      1  0.5402490000000  0.5219970000000  0.5165200000000 1.0
C      1  0.4161090000000  0.5416180000000  0.5394410000000 1.0
C      1  0.5294970000000  0.4894590000000  0.4012690000000 1.0
C      1  0.5534020000000  0.5779140000000  0.4762060000000 1.0
C      1  0.4141960000000  0.5152850000000  0.5553660000000 1.0
C      1  0.4935330000000  0.3973350000000  0.4614330000000 1.0
C      1  0.5088430000000  0.5108290000000  0.4062810000000 1.0
C      1  0.4463210000000  0.4236350000000  0.5244270000000 1.0
C      1  0.4724830000000  0.4812950000000  0.5103170000000 1.0
C      1  0.4540800000000  0.5965170000000  0.4967100000000 1.0
C      1  0.4692770000000  0.5388820000000  0.5869420000000 1.0
C      1  0.4571430000000  0.4227970000000  0.4459690000000 1.0
C      1  0.5136490000000  0.5979960000000  0.4955360000000 1.0
C      1  0.4566600000000  0.5303110000000  0.5259850000000 1.0
C      1  0.3904640000000  0.5188130000000  0.5027300000000 1.0
C      1  0.4705540000000  0.5920020000000  0.4704640000000 1.0
C      1  0.4566920000000  0.5425780000000  0.4675280000000 1.0
C      1  0.5801190000000  0.5649480000000  0.4775760000000 1.0
C      1  0.5682020000000  0.4926850000000  0.5585490000000 1.0
C      1  0.4840840000000  0.4823160000000  0.6204740000000 1.0
C      1  0.4362360000000  0.5149390000000  0.4007650000000 1.0
C      1  0.4768430000000  0.3874840000000  0.5491330000000 1.0
C      1  0.5630660000000  0.5245290000000  0.4003360000000 1.0
C      1  0.5789930000000  0.5702200000000  0.5262330000000 1.0
C      1  0.4958240000000  0.4816710000000  0.4455880000000 1.0
C      1  0.5827070000000  0.5503960000000  0.5474750000000 1.0
C      1  0.5793070000000  0.4622890000000  0.5565510000000 1.0
C      1  0.5518050000000  0.4402180000000  0.5620190000000 1.0
C      1  0.6039080000000  0.5244710000000  0.4620220000000 1.0
C      1  0.4188410000000  0.5560000000000  0.4952000000000 1.0
C      1  0.5449230000000  0.5829330000000  0.4467680000000 1.0
C      1  0.4669320000000  0.4368680000000  0.4232240000000 1.0
C      1  0.4738560000000  0.5327680000000  0.4446210000000 1.0
C      1  0.4580940000000  0.5803910000000  0.4458680000000 1.0
C      1  0.4600500000000  0.5124380000000  0.5478440000000 1.0
C      1  0.5373590000000  0.4096100000000  0.4877380000000 1.0
C      1  0.4539080000000  0.4098410000000  0.4969230000000 1.0
C      1  0.5866190000000  0.5555810000000  0.5032510000000 1.0
C      1  0.5378390000000  0.4589950000000  0.5423000000000 1.0
C      1  0.5340710000000  0.5279700000000  0.5448350000000 1.0
C      1  0.4743040000000  0.5661560000000  0.5802810000000 1.0
C      1  0.5717000000000  0.4420410000000  0.5127760000000 1.0
C      1  0.5180700000000  0.5391990000000  0.4132170000000 1.0
C      1  0.4109240000000  0.4907710000000  0.5395420000000 1.0
C      1  0.4379610000000  0.5423160000000  0.4089270000000 1.0
C      1  0.4868970000000  0.4470810000000  0.4791880000000 1.0
C      1  0.4119020000000  0.5199120000000  0.4410930000000 1.0
C      1  0.5459530000000  0.5772490000000  0.5553540000000 1.0
C      1  0.4735290000000  0.4522410000000  0.5053710000000 1.0
C      1  0.4528040000000  0.4603130000000  0.4130590000000 1.0
C      1  0.4974320000000  0.3770130000000  0.4795820000000 1.0
C      1  0.5089060000000  0.4917220000000  0.6247170000000 1.0
C      1  0.5867250000000  0.5604980000000  0.4317220000000 1.0
C      1  0.5051170000000  0.5644120000000  0.5816320000000 1.0
C      1  0.4875780000000  0.4424410000000  0.5300070000000 1.0
C      1  0.4684780000000  0.4250420000000  0.5432640000000 1.0
C      1  0.5148790000000  0.5791440000000  0.4465090000000 1.0
C      1  0.4396260000000  0.4596140000000  0.5723090000000 1.0
C      1  0.4398020000000  0.5723660000000  0.5111610000000 1.0
C      1  0.5070500000000  0.5423440000000  0.5496740000000 1.0
C      1  0.5778150000000  0.5046560000000  0.5327470000000 1.0
C      1  0.5595460000000  0.5669090000000  0.4254250000000 1.0
C      1  0.4569200000000  0.4907590000000  0.4872200000000 1.0
C      1  0.5610620000000  0.5195070000000  0.5786400000000 1.0
C      1  0.5484820000000  0.4602050000000  0.5154980000000 1.0
C      1  0.5737750000000  0.4798830000000  0.4218330000000 1.0
C      1  0.4343700000000  0.5075120000000  0.4957380000000 1.0
C      1  0.5558770000000  0.5435470000000  0.5607220000000 1.0
C      1  0.4390570000000  0.4783840000000  0.4329340000000 1.0
C      1  0.5221400000000  0.4604080000000  0.4060520000000 1.0
C      1  0.4769860000000  0.3896350000000  0.5203480000000 1.0
C      1  0.4660650000000  0.5548990000000  0.5150890000000 1.0
C      1  0.5272440000000  0.5433440000000  0.4557120000000 1.0
C      1  0.4745790000000  0.4188630000000  0.4700400000000 1.0
C      1  0.5378440000000  0.3986910000000  0.5351470000000 1.0
C      1  0.4589030000000  0.4847420000000  0.5364580000000 1.0
C      1  0.4610280000000  0.5742990000000  0.5547470000000 1.0
C      1  0.5436440000000  0.4991920000000  0.4535260000000 1.0
C      1  0.4630200000000  0.4378950000000  0.5721580000000 1.0
C      1  0.4647040000000  0.4136080000000  0.5887840000000 1.0
C      1  0.5253850000000  0.3982370000000  0.5105140000000 1.0
C      1  0.5368540000000  0.5187320000000  0.5958380000000 1.0
C      1  0.4992210000000  0.5043800000000  0.5778630000000 1.0
C      1  0.5001600000000  0.5596170000000  0.5256200000000 1.0
C      1  0.5968990000000  0.4870550000000  0.4391040000000 1.0
C      1  0.4087830000000  0.4967260000000  0.5096940000000 1.0
C      1  0.4325970000000  0.5682260000000  0.4512110000000 1.0
C      1  0.5069120000000  0.4905930000000  0.5455980000000 1.0
C      1  0.4008240000000  0.5091510000000  0.4669180000000 1.0
C      1  0.4295420000000  0.5322710000000  0.4790450000000 1.0
C      1  0.4248310000000  0.4631330000000  0.4556410000000 1.0
C      1  0.4337910000000  0.5689200000000  0.5425310000000 1.0
C      1  0.5430470000000  0.5944890000000  0.5001530000000 1.0
C      1  0.5134290000000  0.4028660000000  0.4426120000000 1.0
C      1  0.5746830000000  0.4516190000000  0.4619930000000 1.0
C      1  0.4758700000000  0.4695300000000  0.4627880000000 1.0
C      1  0.4293540000000  0.4246420000000  0.4528970000000 1.0
C      1  0.5898660000000  0.4861630000000  0.5141250000000 1.0
C      1  0.4741240000000  0.5592210000000  0.4286660000000 1.0
C      1  0.4999480000000  0.4935260000000  0.5135370000000 1.0
C      1  0.5354950000000  0.4341230000000  0.4727940000000 1.0
C      1  0.4622600000000  0.5104670000000  0.4276010000000 1.0
C      1  0.5208830000000  0.5428200000000  0.5038900000000 1.0
C      1  0.5611630000000  0.4578820000000  0.4360160000000 1.0
C      1  0.5881010000000  0.4775390000000  0.4659840000000 1.0
C      1  0.4269830000000  0.4453790000000  0.5269910000000 1.0
C      1  0.4794540000000  0.4823420000000  0.5919740000000 1.0
C      1  0.5039450000000  0.5248690000000  0.4621330000000 1.0
C      1  0.4332170000000  0.4697280000000  0.5440950000000 1.0
C      1  0.5310050000000  0.4931670000000  0.6076680000000 1.0
C      1  0.4486310000000  0.4844830000000  0.5856080000000 1.0
C      1  0.5963110000000  0.5268110000000  0.5357480000000 1.0
C      1  0.4703940000000  0.6111270000000  0.5177180000000 1.0
C      1  0.4853990000000  0.3993610000000  0.5744350000000 1.0
C      1  0.5823660000000  0.5445790000000  0.4561340000000 1.0
C      1  0.4262970000000  0.5449290000000  0.4352700000000 1.0
C      1  0.4946540000000  0.4628310000000  0.5503150000000 1.0
C      1  0.5193620000000  0.4839030000000  0.4917400000000 1.0
C      1  0.4410390000000  0.4497950000000  0.4819920000000 1.0
C      1  0.5534620000000  0.5838630000000  0.5271500000000 1.0
C      1  0.5012560000000  0.3825440000000  0.5064610000000 1.0
C      1  0.5188720000000  0.5833030000000  0.5619900000000 1.0
C      1  0.5118820000000  0.4130790000000  0.5741020000000 1.0
C      1  0.5466000000000  0.5443560000000  0.4114360000000 1.0
C      1  0.4983290000000  0.6168210000000  0.5105510000000 1.0
C      1  0.5373750000000  0.4851620000000  0.5562470000000 1.0
C      1  0.4759870000000  0.4734110000000  0.4003300000000 1.0
C      1  0.5151820000000  0.4968400000000  0.4626480000000 1.0
C      1  0.3992570000000  0.4723750000000  0.4954090000000 1.0
C      1  0.5374260000000  0.4126350000000  0.5588680000000 1.0
C      1  0.5650500000000  0.4989330000000  0.4754640000000 1.0
C      1  0.5340020000000  0.5558760000000  0.4804280000000 1.0
C      1  0.5577770000000  0.4971750000000  0.4037640000000 1.0
C      1  0.6121080000000  0.5105130000000  0.4392470000000 1.0
C      1  0.5037240000000  0.5886330000000  0.5367350000000 1.0
C      1  0.4012360000000  0.4789170000000  0.4669570000000 1.0
C      1  0.4778780000000  0.5519410000000  0.4875110000000 1.0
C      1  0.4390760000000  0.5105970000000  0.5711860000000 1.0
C      1  0.5382800000000  0.4440990000000  0.4248310000000 1.0
C      1  0.5906730000000  0.4596350000000  0.5281890000000 1.0
C      1  0.4295320000000  0.4127560000000  0.4795450000000 1.0
C      1  0.4421410000000  0.5328200000000  0.5895400000000 1.0
END
