TITL C-950530-3293-18 2.33955270329805e-06 125000 -354.026517045013 0 0 58 (C1) n - 1
REM
REM in /home/bkarasulu/work/CARBON/AIRSS/Generating-Clusters/EDIP-Nigel-Params/with-SteepDescent/Only-C1/SD-CG/HFTN-CG
REM
REM
REM
REM
REM
REM ./C.cell (11c1c37f851c82e70ff6c80c92926a4b)
REM
REM compiler GCC version 9.2.1 20190827 (Red Hat 9.2.1-1)
REM options -cpp -mtune=generic -march=x86-64 -g -O0 -fpre-include=/usr/include/finclude/math-vector-fortran.h
REM seed -1529125130 673813932 -702164921 -1683719814 -1483406498 1373351356 1403903906 1728406088 1035036552 435109751 1368288412 2040784815 440995582 290403032 -447892529 1524458971 2005758812 -1750704796 -1990536538 98951061 -1099376118 -990232588 1025436566 1571048862 -490622010 1005040357 -723591105 -1691524740 -1828444312 -1676697130 -912675226 -441608556 920584142
REM
CELL 1.54180   50.00000   50.00000   50.00000   90.00000   90.00000   90.00000
LATT -1
SFAC C  
C      1  0.4889100000000  0.5826500000000  0.5196030000000 1.0
C      1  0.4889570000000  0.4489380000000  0.4521390000000 1.0
C      1  0.4370040000000  0.4587970000000  0.5258960000000 1.0
C      1  0.5031600000000  0.4798640000000  0.5490170000000 1.0
C      1  0.4526980000000  0.5540960000000  0.5025890000000 1.0
C      1  0.4725760000000  0.5425880000000  0.5447450000000 1.0
C      1  0.4823060000000  0.4995620000000  0.5109620000000 1.0
C      1  0.4861240000000  0.4723550000000  0.4970220000000 1.0
C      1  0.5190180000000  0.5805500000000  0.4824330000000 1.0
C      1  0.4375760000000  0.4660800000000  0.4766540000000 1.0
C      1  0.5462500000000  0.4598460000000  0.5331530000000 1.0
C      1  0.5371210000000  0.4484230000000  0.4446880000000 1.0
C      1  0.4802180000000  0.5014410000000  0.5722690000000 1.0
C      1  0.4670570000000  0.5206610000000  0.4700890000000 1.0
C      1  0.5073350000000  0.4554030000000  0.5058980000000 1.0
C      1  0.4666730000000  0.4784400000000  0.5607980000000 1.0
C      1  0.5027080000000  0.5022220000000  0.4304180000000 1.0
C      1  0.5340750000000  0.5351640000000  0.4796520000000 1.0
C      1  0.5152750000000  0.5819000000000  0.5101210000000 1.0
C      1  0.5214450000000  0.4362670000000  0.4882450000000 1.0
C      1  0.4327680000000  0.5104930000000  0.5000600000000 1.0
C      1  0.5374040000000  0.4870560000000  0.5052070000000 1.0
C      1  0.5716470000000  0.4631410000000  0.4928120000000 1.0
C      1  0.5117400000000  0.4908990000000  0.4570300000000 1.0
C      1  0.5514010000000  0.5092750000000  0.5462170000000 1.0
C      1  0.5592680000000  0.4376680000000  0.5190880000000 1.0
C      1  0.5033930000000  0.5051540000000  0.5331150000000 1.0
C      1  0.4608920000000  0.4910290000000  0.4596180000000 1.0
C      1  0.5780950000000  0.4815140000000  0.5150690000000 1.0
C      1  0.4526400000000  0.5039070000000  0.5223960000000 1.0
C      1  0.5372290000000  0.4751310000000  0.4545990000000 1.0
C      1  0.5494240000000  0.4314040000000  0.4937430000000 1.0
C      1  0.4507720000000  0.5262070000000  0.5403840000000 1.0
C      1  0.4441580000000  0.5333280000000  0.4854380000000 1.0
C      1  0.4264490000000  0.4556430000000  0.5007390000000 1.0
C      1  0.5166180000000  0.4593170000000  0.5328030000000 1.0
C      1  0.5306990000000  0.5613860000000  0.5243540000000 1.0
C      1  0.4234040000000  0.4896720000000  0.4825370000000 1.0
C      1  0.4564220000000  0.4911340000000  0.4309960000000 1.0
C      1  0.4935160000000  0.5231990000000  0.5556180000000 1.0
C      1  0.5329000000000  0.5113480000000  0.5235340000000 1.0
C      1  0.4874520000000  0.4559220000000  0.4247810000000 1.0
C      1  0.5153220000000  0.4368060000000  0.4591110000000 1.0
C      1  0.5259630000000  0.5575660000000  0.5518330000000 1.0
C      1  0.4935690000000  0.5285550000000  0.4311370000000 1.0
C      1  0.4866590000000  0.4748010000000  0.4671100000000 1.0
C      1  0.4729020000000  0.5597520000000  0.5212400000000 1.0
C      1  0.4751700000000  0.5377570000000  0.4483820000000 1.0
C      1  0.5262090000000  0.5592310000000  0.4676230000000 1.0
C      1  0.5648840000000  0.4836160000000  0.5405970000000 1.0
C      1  0.5172370000000  0.5093430000000  0.4812840000000 1.0
C      1  0.5185870000000  0.5353790000000  0.5670030000000 1.0
C      1  0.5394650000000  0.5167480000000  0.5706000000000 1.0
C      1  0.4895340000000  0.5179330000000  0.4897050000000 1.0
C      1  0.4815980000000  0.4834260000000  0.4210480000000 1.0
C      1  0.5373950000000  0.5372460000000  0.5090160000000 1.0
C      1  0.4473550000000  0.4804490000000  0.5394090000000 1.0
C      1  0.5533770000000  0.4823190000000  0.4783740000000 1.0
END
