TITL C-951340-9809-575 1.84244605558861e-07 125000 -420.332726066904 0 0 68 (C1) n - 1
REM
REM in /home/bkarasulu/work/CARBON/AIRSS/Generating-Clusters/EDIP-Nigel-Params/with-SteepDescent/Only-C1/SD-CG/HFTN-CG
REM
REM
REM
REM
REM
REM ./C.cell (11c1c37f851c82e70ff6c80c92926a4b)
REM
REM compiler GCC version 9.2.1 20190827 (Red Hat 9.2.1-1)
REM options -cpp -mtune=generic -march=x86-64 -g -O0 -fpre-include=/usr/include/finclude/math-vector-fortran.h
REM seed -2122827779 -1029890668 -2030711912 799012457 -398419636 793166251 -255522159 1117286816 -1139459054 -1204538632 1641939925 232563582 663666468 1124789216 1464275352 -1775120724 62955927 290704392 1946161627 -612313452 -254263454 1787747700 -1298120515 -1919906555 1041666253 -650671883 -819991624 274093434 1149405185 -696597212 936268226 -284845206 532381685
REM
CELL 1.54180   50.00000   50.00000   50.00000   90.00000   90.00000   90.00000
LATT -1
SFAC C  
C      1  0.5472520000000  0.4527870000000  0.4926390000000 1.0
C      1  0.5715180000000  0.4971160000000  0.4661310000000 1.0
C      1  0.5319780000000  0.5546790000000  0.5474380000000 1.0
C      1  0.5500730000000  0.5614530000000  0.4989020000000 1.0
C      1  0.4585400000000  0.5179990000000  0.4357650000000 1.0
C      1  0.4213720000000  0.4971800000000  0.4881860000000 1.0
C      1  0.4820520000000  0.5076160000000  0.5112780000000 1.0
C      1  0.5489280000000  0.5307510000000  0.5459520000000 1.0
C      1  0.4880690000000  0.5222610000000  0.4471670000000 1.0
C      1  0.5079130000000  0.5634360000000  0.4781560000000 1.0
C      1  0.5252000000000  0.4439800000000  0.5360100000000 1.0
C      1  0.4355420000000  0.4924990000000  0.5439100000000 1.0
C      1  0.5558630000000  0.4735600000000  0.5124870000000 1.0
C      1  0.5351130000000  0.4957350000000  0.4307010000000 1.0
C      1  0.4327080000000  0.5263570000000  0.4512920000000 1.0
C      1  0.4463980000000  0.5311650000000  0.5221500000000 1.0
C      1  0.4907470000000  0.5054810000000  0.5777160000000 1.0
C      1  0.4605900000000  0.5553790000000  0.4831640000000 1.0
C      1  0.4780010000000  0.4279490000000  0.5060250000000 1.0
C      1  0.4675890000000  0.5171390000000  0.5663280000000 1.0
C      1  0.4983970000000  0.4319750000000  0.4666220000000 1.0
C      1  0.5029850000000  0.4400530000000  0.4947280000000 1.0
C      1  0.5732970000000  0.5315960000000  0.5314410000000 1.0
C      1  0.4953210000000  0.5432730000000  0.5458590000000 1.0
C      1  0.4989750000000  0.5223950000000  0.4930060000000 1.0
C      1  0.4853720000000  0.5635260000000  0.5255110000000 1.0
C      1  0.5532260000000  0.4815820000000  0.4508300000000 1.0
C      1  0.5250270000000  0.5217540000000  0.4397470000000 1.0
C      1  0.5425730000000  0.5019830000000  0.5094650000000 1.0
C      1  0.4977730000000  0.4550560000000  0.5442150000000 1.0
C      1  0.4408620000000  0.4735570000000  0.5231440000000 1.0
C      1  0.5203030000000  0.4428450000000  0.4510720000000 1.0
C      1  0.5328790000000  0.5698290000000  0.5200390000000 1.0
C      1  0.5238970000000  0.5084360000000  0.4857580000000 1.0
C      1  0.5128290000000  0.4827570000000  0.4750000000000 1.0
C      1  0.4461960000000  0.5174570000000  0.5481960000000 1.0
C      1  0.5290260000000  0.4342270000000  0.5075180000000 1.0
C      1  0.5104520000000  0.5501950000000  0.5713560000000 1.0
C      1  0.4992610000000  0.5136940000000  0.5362640000000 1.0
C      1  0.4186890000000  0.4740330000000  0.5042770000000 1.0
C      1  0.5349230000000  0.4637050000000  0.4669240000000 1.0
C      1  0.4596160000000  0.4626060000000  0.4768220000000 1.0
C      1  0.4690030000000  0.4730270000000  0.4506290000000 1.0
C      1  0.4946590000000  0.4890220000000  0.4507620000000 1.0
C      1  0.5312470000000  0.5088230000000  0.5366460000000 1.0
C      1  0.4455480000000  0.4479720000000  0.5360070000000 1.0
C      1  0.4597490000000  0.5561870000000  0.5130950000000 1.0
C      1  0.4289660000000  0.5227110000000  0.4999850000000 1.0
C      1  0.5066920000000  0.5741060000000  0.5072990000000 1.0
C      1  0.4211090000000  0.4995150000000  0.4588400000000 1.0
C      1  0.4618830000000  0.4332220000000  0.4801870000000 1.0
C      1  0.5087120000000  0.5259450000000  0.5859440000000 1.0
C      1  0.4730810000000  0.4440780000000  0.5302240000000 1.0
C      1  0.4988970000000  0.4691630000000  0.4967680000000 1.0
C      1  0.5833390000000  0.5017280000000  0.4915660000000 1.0
C      1  0.5154940000000  0.4513830000000  0.4250510000000 1.0
C      1  0.5658980000000  0.5207490000000  0.5062440000000 1.0
C      1  0.4871180000000  0.5416610000000  0.4737490000000 1.0
C      1  0.5365330000000  0.5551710000000  0.4742510000000 1.0
C      1  0.5468160000000  0.4639640000000  0.5404420000000 1.0
C      1  0.5109380000000  0.4791490000000  0.4269770000000 1.0
C      1  0.5340260000000  0.4859260000000  0.5556320000000 1.0
C      1  0.4497030000000  0.4889270000000  0.4364410000000 1.0
C      1  0.5037930000000  0.4823530000000  0.5596600000000 1.0
C      1  0.4358100000000  0.5403970000000  0.4774990000000 1.0
C      1  0.5844000000000  0.4788050000000  0.5085710000000 1.0
C      1  0.5380620000000  0.5262650000000  0.4651660000000 1.0
C      1  0.4712020000000  0.4786950000000  0.5031710000000 1.0
END
