TITL C-950534-5965-207 3.42066765042013e-06 125000 -631.704167343162 0 0 102 (C1) n - 1
REM
REM in /home/bkarasulu/work/CARBON/AIRSS/Generating-Clusters/EDIP-Nigel-Params/with-SteepDescent/Only-C1/SD-CG/HFTN-CG
REM
REM
REM
REM
REM
REM ./C.cell (11c1c37f851c82e70ff6c80c92926a4b)
REM
REM compiler GCC version 9.2.1 20190827 (Red Hat 9.2.1-1)
REM options -cpp -mtune=generic -march=x86-64 -g -O0 -fpre-include=/usr/include/finclude/math-vector-fortran.h
REM seed -969580264 -686459379 -994500545 -1619842058 -1537333886 -2064680564 -381066716 713709391 1501981096 -2101787766 -1942070533 2134076968 -7993615 -1443372870 -1668912158 989622741 -1285045857 77539457 1259253652 2428186 1183544950 -55057687 -1145643076 304411833 -1158980480 -851042637 -975934240 9744927 274585030 -1097026672 1210462101 453264169 1678478963
REM
CELL 1.54180   50.00000   50.00000   50.00000   90.00000   90.00000   90.00000
LATT -1
SFAC C  
C      1  0.5255600000000  0.4212630000000  0.4579780000000 1.0
C      1  0.5443060000000  0.4909100000000  0.4322680000000 1.0
C      1  0.5447520000000  0.4281820000000  0.5058000000000 1.0
C      1  0.4162990000000  0.4817470000000  0.4777800000000 1.0
C      1  0.4341110000000  0.5294340000000  0.4686320000000 1.0
C      1  0.5280770000000  0.4988790000000  0.4112710000000 1.0
C      1  0.5168850000000  0.4278410000000  0.5438010000000 1.0
C      1  0.5591040000000  0.4440150000000  0.5268480000000 1.0
C      1  0.5578610000000  0.4915150000000  0.5523960000000 1.0
C      1  0.5646190000000  0.5422240000000  0.4822460000000 1.0
C      1  0.5641660000000  0.5084300000000  0.4451210000000 1.0
C      1  0.4287850000000  0.5072620000000  0.4885600000000 1.0
C      1  0.5460590000000  0.4619740000000  0.4384130000000 1.0
C      1  0.5306910000000  0.4695880000000  0.5763480000000 1.0
C      1  0.5013810000000  0.4696710000000  0.4670950000000 1.0
C      1  0.5223880000000  0.5703800000000  0.4513550000000 1.0
C      1  0.4647910000000  0.4241900000000  0.5070030000000 1.0
C      1  0.4960650000000  0.4528450000000  0.4419720000000 1.0
C      1  0.4539830000000  0.4413210000000  0.4614400000000 1.0
C      1  0.4774520000000  0.4956810000000  0.5431930000000 1.0
C      1  0.4979980000000  0.4144670000000  0.4696410000000 1.0
C      1  0.5834070000000  0.4957700000000  0.4609620000000 1.0
C      1  0.5783780000000  0.5352970000000  0.5129550000000 1.0
C      1  0.5012640000000  0.4997960000000  0.4724540000000 1.0
C      1  0.4706400000000  0.5415300000000  0.4740580000000 1.0
C      1  0.5061830000000  0.5110770000000  0.5882220000000 1.0
C      1  0.4475100000000  0.5453740000000  0.5308980000000 1.0
C      1  0.5411190000000  0.5226820000000  0.4873310000000 1.0
C      1  0.5542910000000  0.5160190000000  0.5684530000000 1.0
C      1  0.4969220000000  0.5347510000000  0.5737040000000 1.0
C      1  0.4193250000000  0.5026530000000  0.5343440000000 1.0
C      1  0.5306250000000  0.5812760000000  0.4769170000000 1.0
C      1  0.4139810000000  0.5197760000000  0.5112490000000 1.0
C      1  0.4943800000000  0.4259420000000  0.4975120000000 1.0
C      1  0.4774870000000  0.5737070000000  0.5559910000000 1.0
C      1  0.4889490000000  0.4884140000000  0.5950400000000 1.0
C      1  0.5516010000000  0.4932920000000  0.4986260000000 1.0
C      1  0.5263590000000  0.5397530000000  0.5108220000000 1.0
C      1  0.4277700000000  0.4839020000000  0.4488940000000 1.0
C      1  0.4295950000000  0.5144650000000  0.4420090000000 1.0
C      1  0.4557810000000  0.5508810000000  0.4254270000000 1.0
C      1  0.4801270000000  0.4882850000000  0.4106020000000 1.0
C      1  0.5437450000000  0.4343760000000  0.4771660000000 1.0
C      1  0.4592340000000  0.4267000000000  0.5341600000000 1.0
C      1  0.5061710000000  0.5862150000000  0.4937830000000 1.0
C      1  0.5037200000000  0.4990330000000  0.5033060000000 1.0
C      1  0.4732020000000  0.4646220000000  0.4250560000000 1.0
C      1  0.5199690000000  0.4982990000000  0.5482440000000 1.0
C      1  0.5919060000000  0.4632390000000  0.4950600000000 1.0
C      1  0.4947640000000  0.4567500000000  0.4934380000000 1.0
C      1  0.5532060000000  0.5690130000000  0.4907660000000 1.0
C      1  0.4244070000000  0.5478030000000  0.5130290000000 1.0
C      1  0.4936130000000  0.5713470000000  0.4511740000000 1.0
C      1  0.4603230000000  0.4452310000000  0.5550390000000 1.0
C      1  0.4509750000000  0.4656150000000  0.4450200000000 1.0
C      1  0.5490000000000  0.5702910000000  0.5188560000000 1.0
C      1  0.4822730000000  0.5842420000000  0.4752630000000 1.0
C      1  0.4689390000000  0.5275270000000  0.5241310000000 1.0
C      1  0.4825740000000  0.5429220000000  0.5035800000000 1.0
C      1  0.4797200000000  0.4291040000000  0.4514160000000 1.0
C      1  0.4400000000000  0.4662070000000  0.5537970000000 1.0
C      1  0.4333440000000  0.5569970000000  0.4850770000000 1.0
C      1  0.4581880000000  0.4999360000000  0.4915730000000 1.0
C      1  0.5341770000000  0.5001460000000  0.5864380000000 1.0
C      1  0.5703800000000  0.4920620000000  0.5248280000000 1.0
C      1  0.4828430000000  0.5521480000000  0.4332090000000 1.0
C      1  0.5578530000000  0.4556900000000  0.4640960000000 1.0
C      1  0.5622150000000  0.5499490000000  0.5332650000000 1.0
C      1  0.5716080000000  0.4769800000000  0.4791000000000 1.0
C      1  0.5233160000000  0.5172530000000  0.4600340000000 1.0
C      1  0.5349050000000  0.5471810000000  0.4381900000000 1.0
C      1  0.5805600000000  0.4641280000000  0.5207160000000 1.0
C      1  0.5427700000000  0.4425470000000  0.5530050000000 1.0
C      1  0.5237130000000  0.4415100000000  0.4339980000000 1.0
C      1  0.4505510000000  0.5233940000000  0.4234620000000 1.0
C      1  0.5607980000000  0.5372560000000  0.4503400000000 1.0
C      1  0.5028990000000  0.5696410000000  0.5436340000000 1.0
C      1  0.5192260000000  0.4166300000000  0.5160890000000 1.0
C      1  0.5256500000000  0.4775270000000  0.5042430000000 1.0
C      1  0.4480250000000  0.4417800000000  0.4900690000000 1.0
C      1  0.5249990000000  0.4712710000000  0.5329790000000 1.0
C      1  0.4851390000000  0.4627490000000  0.5562560000000 1.0
C      1  0.5010200000000  0.4647510000000  0.5820740000000 1.0
C      1  0.5057160000000  0.4894260000000  0.3999860000000 1.0
C      1  0.5016270000000  0.5281320000000  0.4310280000000 1.0
C      1  0.4750350000000  0.5086230000000  0.4313590000000 1.0
C      1  0.5909390000000  0.5120010000000  0.5219300000000 1.0
C      1  0.5426250000000  0.5363530000000  0.5511090000000 1.0
C      1  0.4523880000000  0.4919660000000  0.5640000000000 1.0
C      1  0.5180420000000  0.5504780000000  0.5609580000000 1.0
C      1  0.4738400000000  0.5101530000000  0.4671720000000 1.0
C      1  0.5040260000000  0.5625270000000  0.5133630000000 1.0
C      1  0.4270750000000  0.4615070000000  0.4993790000000 1.0
C      1  0.4276700000000  0.4743070000000  0.5276650000000 1.0
C      1  0.5029370000000  0.4524370000000  0.5362100000000 1.0
C      1  0.4335140000000  0.5142180000000  0.5591920000000 1.0
C      1  0.4433980000000  0.5409990000000  0.5686010000000 1.0
C      1  0.4715830000000  0.5506190000000  0.5717950000000 1.0
C      1  0.5116790000000  0.5176040000000  0.5255290000000 1.0
C      1  0.4767320000000  0.4856160000000  0.5115780000000 1.0
C      1  0.4613730000000  0.4911640000000  0.5912360000000 1.0
C      1  0.4568510000000  0.5753440000000  0.4873200000000 1.0
END
