TITL C-951343-2256-759 2.76225715005095e-06 125000 -552.762107997907 0 0 90 (C1) n - 1
REM
REM in /home/bkarasulu/work/CARBON/AIRSS/Generating-Clusters/EDIP-Nigel-Params/with-SteepDescent/Only-C1/SD-CG/HFTN-CG
REM
REM
REM
REM
REM
REM ./C.cell (11c1c37f851c82e70ff6c80c92926a4b)
REM
REM compiler GCC version 9.2.1 20190827 (Red Hat 9.2.1-1)
REM options -cpp -mtune=generic -march=x86-64 -g -O0 -fpre-include=/usr/include/finclude/math-vector-fortran.h
REM seed 2082494514 1284735720 2014782716 -630650460 -881278186 -1370699716 -1246580643 -1307235165 358895856 1139025585 -356134495 -845492306 -1351363882 2127962178 -292737993 -1649185313 1132879238 -830031422 1776399133 -1296608722 -2091983264 -1673607252 -749530115 -1857426616 659876901 1884294346 -1910186594 6436502 1362339253 480983176 -567767795 -1624737451 120082207
REM
CELL 1.54180   50.00000   50.00000   50.00000   90.00000   90.00000   90.00000
LATT -1
SFAC C  
C      1  0.5617700000000  0.4585300000000  0.4608940000000 1.0
C      1  0.4958130000000  0.4235470000000  0.5525590000000 1.0
C      1  0.4498310000000  0.5500440000000  0.5565930000000 1.0
C      1  0.5795190000000  0.5168050000000  0.4954260000000 1.0
C      1  0.5483380000000  0.4446350000000  0.5532190000000 1.0
C      1  0.4752650000000  0.4647780000000  0.5670420000000 1.0
C      1  0.4638520000000  0.5791750000000  0.4756880000000 1.0
C      1  0.4599970000000  0.5699920000000  0.5037550000000 1.0
C      1  0.5039940000000  0.4824640000000  0.5195290000000 1.0
C      1  0.5328360000000  0.4234570000000  0.4685450000000 1.0
C      1  0.4932250000000  0.4835360000000  0.4211730000000 1.0
C      1  0.4837980000000  0.5348460000000  0.4442800000000 1.0
C      1  0.5499470000000  0.5432490000000  0.4532420000000 1.0
C      1  0.5192140000000  0.4417050000000  0.4511910000000 1.0
C      1  0.5411510000000  0.4944580000000  0.4355560000000 1.0
C      1  0.5828600000000  0.4769610000000  0.4703740000000 1.0
C      1  0.4921040000000  0.5577250000000  0.5378910000000 1.0
C      1  0.5154280000000  0.4118380000000  0.5343900000000 1.0
C      1  0.5153090000000  0.4956140000000  0.5946930000000 1.0
C      1  0.5367510000000  0.4803520000000  0.5835750000000 1.0
C      1  0.4645840000000  0.5053720000000  0.4800930000000 1.0
C      1  0.4910650000000  0.5919370000000  0.4717780000000 1.0
C      1  0.5580910000000  0.5588800000000  0.4772780000000 1.0
C      1  0.5295240000000  0.5307060000000  0.4970230000000 1.0
C      1  0.5781960000000  0.5058700000000  0.4678360000000 1.0
C      1  0.4818140000000  0.5504170000000  0.5103010000000 1.0
C      1  0.4093360000000  0.5004880000000  0.4956990000000 1.0
C      1  0.5329990000000  0.4914760000000  0.5250030000000 1.0
C      1  0.4340280000000  0.5404240000000  0.5355620000000 1.0
C      1  0.4098960000000  0.5167250000000  0.4502310000000 1.0
C      1  0.5157900000000  0.5034810000000  0.4259940000000 1.0
C      1  0.4278210000000  0.5122090000000  0.5387770000000 1.0
C      1  0.5100730000000  0.4896230000000  0.4679860000000 1.0
C      1  0.5054490000000  0.5530290000000  0.4905560000000 1.0
C      1  0.4493210000000  0.4772880000000  0.5111080000000 1.0
C      1  0.5603050000000  0.4553250000000  0.5304740000000 1.0
C      1  0.4672190000000  0.4763730000000  0.4887340000000 1.0
C      1  0.5696630000000  0.4834910000000  0.5348970000000 1.0
C      1  0.4412390000000  0.4999850000000  0.5603680000000 1.0
C      1  0.4380940000000  0.5341030000000  0.4821090000000 1.0
C      1  0.5496950000000  0.4846480000000  0.4985180000000 1.0
C      1  0.4500300000000  0.4679810000000  0.4378370000000 1.0
C      1  0.4374300000000  0.5511880000000  0.5074360000000 1.0
C      1  0.5884110000000  0.4947790000000  0.5148820000000 1.0
C      1  0.5132290000000  0.5154680000000  0.5742030000000 1.0
C      1  0.4456300000000  0.5627710000000  0.4585590000000 1.0
C      1  0.4770750000000  0.5439680000000  0.5588090000000 1.0
C      1  0.5564070000000  0.4367860000000  0.4799080000000 1.0
C      1  0.4593080000000  0.4313560000000  0.5174840000000 1.0
C      1  0.5897120000000  0.4726230000000  0.4972710000000 1.0
C      1  0.4651810000000  0.4199330000000  0.4922140000000 1.0
C      1  0.4924390000000  0.5095040000000  0.5277250000000 1.0
C      1  0.4722760000000  0.5020200000000  0.4167550000000 1.0
C      1  0.5358300000000  0.4674300000000  0.4486300000000 1.0
C      1  0.5451750000000  0.4530720000000  0.5027640000000 1.0
C      1  0.5561610000000  0.5321740000000  0.5500010000000 1.0
C      1  0.4366770000000  0.5170120000000  0.4411560000000 1.0
C      1  0.5220700000000  0.5224880000000  0.5245240000000 1.0
C      1  0.5421320000000  0.5712080000000  0.5276540000000 1.0
C      1  0.4121290000000  0.5213500000000  0.4776810000000 1.0
C      1  0.5032280000000  0.4256150000000  0.5140530000000 1.0
C      1  0.4763880000000  0.4244200000000  0.4680400000000 1.0
C      1  0.5101190000000  0.5832110000000  0.4935280000000 1.0
C      1  0.5383310000000  0.5814260000000  0.4999610000000 1.0
C      1  0.5150150000000  0.4445360000000  0.4950370000000 1.0
C      1  0.5085650000000  0.5329330000000  0.4244730000000 1.0
C      1  0.5277520000000  0.5520560000000  0.4371230000000 1.0
C      1  0.4872800000000  0.5150270000000  0.5582070000000 1.0
C      1  0.4979010000000  0.4721140000000  0.4919720000000 1.0
C      1  0.4303390000000  0.4532810000000  0.5479570000000 1.0
C      1  0.4676110000000  0.4936960000000  0.5674100000000 1.0
C      1  0.4664680000000  0.4228160000000  0.5452150000000 1.0
C      1  0.5626050000000  0.5504570000000  0.5290890000000 1.0
C      1  0.4390090000000  0.4522640000000  0.5207940000000 1.0
C      1  0.5205000000000  0.5570090000000  0.5415240000000 1.0
C      1  0.5337630000000  0.5052550000000  0.4795950000000 1.0
C      1  0.4475620000000  0.4942220000000  0.4270980000000 1.0
C      1  0.5519360000000  0.5131490000000  0.4565990000000 1.0
C      1  0.4538770000000  0.4445580000000  0.5617390000000 1.0
C      1  0.4340940000000  0.5031330000000  0.5113120000000 1.0
C      1  0.4539010000000  0.5411600000000  0.4414170000000 1.0
C      1  0.4836480000000  0.5057990000000  0.4557940000000 1.0
C      1  0.5405580000000  0.5125320000000  0.5628800000000 1.0
C      1  0.4698040000000  0.5209620000000  0.5085770000000 1.0
C      1  0.4983310000000  0.5559910000000  0.4607000000000 1.0
C      1  0.4783550000000  0.4649200000000  0.4397540000000 1.0
C      1  0.4904800000000  0.4415270000000  0.4510020000000 1.0
C      1  0.5595140000000  0.5398740000000  0.5006290000000 1.0
C      1  0.5291920000000  0.4568010000000  0.5693030000000 1.0
C      1  0.5013630000000  0.4505890000000  0.5637850000000 1.0
END
