TITL C-950530-3293-567 -4.3510486505084e-06 125000 -721.201678544666 0 0 118 (C1) n - 1
REM
REM in /home/bkarasulu/work/CARBON/AIRSS/Generating-Clusters/EDIP-Nigel-Params/with-SteepDescent/Only-C1/SD-CG/HFTN-CG
REM
REM
REM
REM
REM
REM ./C.cell (11c1c37f851c82e70ff6c80c92926a4b)
REM
REM compiler GCC version 9.2.1 20190827 (Red Hat 9.2.1-1)
REM options -cpp -mtune=generic -march=x86-64 -g -O0 -fpre-include=/usr/include/finclude/math-vector-fortran.h
REM seed 1572952717 -1928989366 911293027 -689305394 650528157 -1775066447 -1874003435 2013684788 901599248 1890258195 530247796 -1846752338 -792448374 1784345769 -58283726 1326708554 -1000699648 -1593966167 1727562945 -1999691054 1001007975 1844284615 1332763085 467112095 857419050 -67879723 1346996775 1876652112 1551279764 1246427948 -1694084549 -351231196 224192557
REM
CELL 1.54180   50.00000   50.00000   50.00000   90.00000   90.00000   90.00000
LATT -1
SFAC C  
C      1  0.5206200000000  0.4866200000000  0.4671800000000 1.0
C      1  0.5004100000000  0.5473320000000  0.4962260000000 1.0
C      1  0.4223610000000  0.4892730000000  0.4682660000000 1.0
C      1  0.4811330000000  0.5508590000000  0.5780390000000 1.0
C      1  0.5519950000000  0.4878670000000  0.4985570000000 1.0
C      1  0.4561290000000  0.4989030000000  0.5032270000000 1.0
C      1  0.4534340000000  0.5187890000000  0.5291210000000 1.0
C      1  0.5847500000000  0.5062740000000  0.5300520000000 1.0
C      1  0.4603620000000  0.5087320000000  0.4517510000000 1.0
C      1  0.4933120000000  0.4122250000000  0.5234560000000 1.0
C      1  0.4859880000000  0.5212730000000  0.5707050000000 1.0
C      1  0.4833870000000  0.5379090000000  0.4029540000000 1.0
C      1  0.4545960000000  0.5539170000000  0.4402370000000 1.0
C      1  0.5134490000000  0.4713060000000  0.4423250000000 1.0
C      1  0.5466460000000  0.5253140000000  0.4902740000000 1.0
C      1  0.4771770000000  0.4680700000000  0.4986040000000 1.0
C      1  0.5393200000000  0.5025200000000  0.4260200000000 1.0
C      1  0.4439270000000  0.4086930000000  0.5349260000000 1.0
C      1  0.5440410000000  0.4726690000000  0.5711250000000 1.0
C      1  0.4670250000000  0.4671660000000  0.4160530000000 1.0
C      1  0.4102820000000  0.5358220000000  0.4752020000000 1.0
C      1  0.5438830000000  0.5887340000000  0.5177050000000 1.0
C      1  0.4354050000000  0.5405290000000  0.4875340000000 1.0
C      1  0.5565290000000  0.5375010000000  0.5197520000000 1.0
C      1  0.4642700000000  0.4499600000000  0.5219470000000 1.0
C      1  0.4917610000000  0.5275760000000  0.4760930000000 1.0
C      1  0.4084880000000  0.4999030000000  0.5158250000000 1.0
C      1  0.5147380000000  0.4920480000000  0.4109270000000 1.0
C      1  0.5697090000000  0.4807320000000  0.5566410000000 1.0
C      1  0.5061130000000  0.5753710000000  0.4911540000000 1.0
C      1  0.4657080000000  0.4497230000000  0.5747690000000 1.0
C      1  0.5357620000000  0.5808200000000  0.5645630000000 1.0
C      1  0.4167260000000  0.4993380000000  0.5429610000000 1.0
C      1  0.5301220000000  0.5604000000000  0.5844300000000 1.0
C      1  0.5334030000000  0.4489120000000  0.4379430000000 1.0
C      1  0.5263750000000  0.4373460000000  0.5448440000000 1.0
C      1  0.5382510000000  0.5528970000000  0.4741860000000 1.0
C      1  0.5273940000000  0.4672210000000  0.5471460000000 1.0
C      1  0.5127630000000  0.5332370000000  0.5173190000000 1.0
C      1  0.4160870000000  0.4317550000000  0.5026470000000 1.0
C      1  0.4898520000000  0.4941960000000  0.5314990000000 1.0
C      1  0.5534890000000  0.5118920000000  0.5397450000000 1.0
C      1  0.4440640000000  0.5680160000000  0.4872300000000 1.0
C      1  0.4560680000000  0.5621680000000  0.5353340000000 1.0
C      1  0.4647540000000  0.4192230000000  0.5172060000000 1.0
C      1  0.4513470000000  0.4756670000000  0.5728620000000 1.0
C      1  0.4812420000000  0.4499190000000  0.5491440000000 1.0
C      1  0.4572290000000  0.4120110000000  0.4899060000000 1.0
C      1  0.5031650000000  0.5013820000000  0.4848630000000 1.0
C      1  0.4779200000000  0.5685580000000  0.5541160000000 1.0
C      1  0.5316380000000  0.4656870000000  0.4841590000000 1.0
C      1  0.5448670000000  0.4244340000000  0.5069780000000 1.0
C      1  0.4232520000000  0.4279300000000  0.5309120000000 1.0
C      1  0.4850820000000  0.4914150000000  0.4154350000000 1.0
C      1  0.4755150000000  0.4167340000000  0.4690330000000 1.0
C      1  0.4163190000000  0.5167420000000  0.4556160000000 1.0
C      1  0.4711990000000  0.4981780000000  0.5858000000000 1.0
C      1  0.5762530000000  0.4924900000000  0.4628820000000 1.0
C      1  0.4663700000000  0.4598090000000  0.4690530000000 1.0
C      1  0.4791770000000  0.5180890000000  0.5419790000000 1.0
C      1  0.5123500000000  0.4271940000000  0.5038570000000 1.0
C      1  0.5203920000000  0.5466670000000  0.5421900000000 1.0
C      1  0.4409570000000  0.4715870000000  0.4264690000000 1.0
C      1  0.5805610000000  0.4585430000000  0.5384530000000 1.0
C      1  0.5053060000000  0.4198160000000  0.4754090000000 1.0
C      1  0.4535450000000  0.5771310000000  0.5119420000000 1.0
C      1  0.4259660000000  0.5235130000000  0.5557260000000 1.0
C      1  0.5444650000000  0.5305600000000  0.4296520000000 1.0
C      1  0.4475690000000  0.4807230000000  0.4536900000000 1.0
C      1  0.5234660000000  0.4896680000000  0.5855380000000 1.0
C      1  0.5951880000000  0.4656080000000  0.5155960000000 1.0
C      1  0.5314200000000  0.4325620000000  0.4630420000000 1.0
C      1  0.5791880000000  0.5680690000000  0.4805660000000 1.0
C      1  0.5507550000000  0.5705480000000  0.5396030000000 1.0
C      1  0.4322440000000  0.4757600000000  0.5495410000000 1.0
C      1  0.5629000000000  0.4868540000000  0.4367900000000 1.0
C      1  0.5378100000000  0.5345160000000  0.5738740000000 1.0
C      1  0.4694780000000  0.5131820000000  0.4036330000000 1.0
C      1  0.4559480000000  0.4280050000000  0.4487140000000 1.0
C      1  0.4319960000000  0.5481040000000  0.5428520000000 1.0
C      1  0.4407230000000  0.5260900000000  0.4379360000000 1.0
C      1  0.4903290000000  0.5279010000000  0.4396570000000 1.0
C      1  0.4847040000000  0.4518040000000  0.5960230000000 1.0
C      1  0.5109850000000  0.5040860000000  0.5140590000000 1.0
C      1  0.5158960000000  0.5561560000000  0.4523170000000 1.0
C      1  0.4999280000000  0.4265110000000  0.5477030000000 1.0
C      1  0.4617080000000  0.5681510000000  0.4648190000000 1.0
C      1  0.5901530000000  0.5401730000000  0.4893610000000 1.0
C      1  0.5824580000000  0.4884980000000  0.5060560000000 1.0
C      1  0.4943460000000  0.4791030000000  0.5909350000000 1.0
C      1  0.5167440000000  0.5149950000000  0.5726560000000 1.0
C      1  0.5068410000000  0.5751810000000  0.5435280000000 1.0
C      1  0.5685470000000  0.5645220000000  0.4538030000000 1.0
C      1  0.4419140000000  0.5164090000000  0.4104890000000 1.0
C      1  0.4329250000000  0.4232690000000  0.4813140000000 1.0
C      1  0.4599600000000  0.5204700000000  0.4811590000000 1.0
C      1  0.4984750000000  0.4748220000000  0.5524870000000 1.0
C      1  0.5711610000000  0.4317050000000  0.5342100000000 1.0
C      1  0.5366020000000  0.4913080000000  0.5244500000000 1.0
C      1  0.5718650000000  0.5214440000000  0.4715540000000 1.0
C      1  0.4278170000000  0.4887450000000  0.4981670000000 1.0
C      1  0.5140620000000  0.5895670000000  0.5166780000000 1.0
C      1  0.5569120000000  0.4305570000000  0.4794330000000 1.0
C      1  0.5077290000000  0.4578580000000  0.5025980000000 1.0
C      1  0.4810650000000  0.5890080000000  0.4652480000000 1.0
C      1  0.5060030000000  0.5837380000000  0.4533860000000 1.0
C      1  0.5556210000000  0.5816420000000  0.4926350000000 1.0
C      1  0.5676200000000  0.5371330000000  0.4460010000000 1.0
C      1  0.5031410000000  0.5603400000000  0.5927160000000 1.0
C      1  0.5871670000000  0.5360940000000  0.5187170000000 1.0
C      1  0.4348510000000  0.4563060000000  0.5260240000000 1.0
C      1  0.4913210000000  0.4540150000000  0.4510640000000 1.0
C      1  0.4758010000000  0.4422090000000  0.4292200000000 1.0
C      1  0.5701830000000  0.4549780000000  0.4682240000000 1.0
C      1  0.4749200000000  0.5579710000000  0.4207480000000 1.0
C      1  0.5487140000000  0.4200520000000  0.5454090000000 1.0
C      1  0.5612440000000  0.4580130000000  0.4399780000000 1.0
C      1  0.5254280000000  0.5504910000000  0.4256620000000 1.0
END
