TITL C-950533-5798-678 1.17288422046634e-06 125000 -856.819109790653 0 0 138 (C1) n - 1
REM
REM in /home/bkarasulu/work/CARBON/AIRSS/Generating-Clusters/EDIP-Nigel-Params/with-SteepDescent/Only-C1/SD-CG/HFTN-CG
REM
REM
REM
REM
REM
REM ./C.cell (11c1c37f851c82e70ff6c80c92926a4b)
REM
REM compiler GCC version 9.2.1 20190827 (Red Hat 9.2.1-1)
REM options -cpp -mtune=generic -march=x86-64 -g -O0 -fpre-include=/usr/include/finclude/math-vector-fortran.h
REM seed -886385152 1901957229 -477875960 2103276362 1572354303 -772678851 1787370581 1747620917 -1231992484 373459925 1484346399 2119929038 -1785150783 -1848981396 -201669028 -872395564 1771249042 -359136707 301118424 1526191324 -839043149 -1649406621 -1919538969 -1300688093 1158320182 -665591678 1479495870 932212502 1330295591 -738425461 1712517182 1401797814 -739449085
REM
CELL 1.54180   50.00000   50.00000   50.00000   90.00000   90.00000   90.00000
LATT -1
SFAC C  
C      1  0.4866700000000  0.5344950000000  0.5358760000000 1.0
C      1  0.4248230000000  0.5162890000000  0.5738780000000 1.0
C      1  0.5476130000000  0.5424520000000  0.5301070000000 1.0
C      1  0.5732020000000  0.4433120000000  0.5065130000000 1.0
C      1  0.4961360000000  0.5028460000000  0.4447420000000 1.0
C      1  0.5090480000000  0.5553620000000  0.4471270000000 1.0
C      1  0.5628940000000  0.4745640000000  0.5838250000000 1.0
C      1  0.4085510000000  0.4572720000000  0.5080620000000 1.0
C      1  0.5413250000000  0.5389400000000  0.4817190000000 1.0
C      1  0.5083310000000  0.5190510000000  0.5211280000000 1.0
C      1  0.5176210000000  0.5417140000000  0.4013220000000 1.0
C      1  0.5368970000000  0.5674020000000  0.4415840000000 1.0
C      1  0.5366860000000  0.4203820000000  0.4834440000000 1.0
C      1  0.5306410000000  0.5175800000000  0.5410990000000 1.0
C      1  0.4433670000000  0.5904690000000  0.4824440000000 1.0
C      1  0.4250790000000  0.5654030000000  0.5188640000000 1.0
C      1  0.4321120000000  0.4374040000000  0.4695670000000 1.0
C      1  0.4097700000000  0.5216920000000  0.4976410000000 1.0
C      1  0.5368670000000  0.4873770000000  0.5524140000000 1.0
C      1  0.4601980000000  0.4503290000000  0.4253490000000 1.0
C      1  0.5061190000000  0.4290970000000  0.5684010000000 1.0
C      1  0.5531360000000  0.4255230000000  0.4591500000000 1.0
C      1  0.5474420000000  0.5139730000000  0.4185420000000 1.0
C      1  0.4179530000000  0.4323190000000  0.5186930000000 1.0
C      1  0.4765560000000  0.4318170000000  0.5707160000000 1.0
C      1  0.5115050000000  0.4460030000000  0.5289420000000 1.0
C      1  0.5127440000000  0.5898530000000  0.4849510000000 1.0
C      1  0.4960340000000  0.5566000000000  0.4752300000000 1.0
C      1  0.4444660000000  0.4713810000000  0.5758210000000 1.0
C      1  0.4179060000000  0.5502290000000  0.4942240000000 1.0
C      1  0.5529290000000  0.4988420000000  0.5025810000000 1.0
C      1  0.4686910000000  0.4609960000000  0.4598130000000 1.0
C      1  0.5141390000000  0.4073210000000  0.5236330000000 1.0
C      1  0.4247820000000  0.4881440000000  0.4736000000000 1.0
C      1  0.5201020000000  0.4668080000000  0.5091730000000 1.0
C      1  0.5185290000000  0.5242330000000  0.4419560000000 1.0
C      1  0.4683890000000  0.5403420000000  0.4702770000000 1.0
C      1  0.4981340000000  0.4888160000000  0.5165050000000 1.0
C      1  0.4957480000000  0.5211000000000  0.5813060000000 1.0
C      1  0.4745540000000  0.5032920000000  0.5694000000000 1.0
C      1  0.4585200000000  0.5079650000000  0.5089060000000 1.0
C      1  0.5532070000000  0.4324960000000  0.5508960000000 1.0
C      1  0.4526310000000  0.4887770000000  0.4596370000000 1.0
C      1  0.5098430000000  0.4637000000000  0.4132990000000 1.0
C      1  0.4474940000000  0.4999270000000  0.5854790000000 1.0
C      1  0.4855950000000  0.4807100000000  0.5451920000000 1.0
C      1  0.5732140000000  0.4496970000000  0.5357260000000 1.0
C      1  0.5685520000000  0.4962980000000  0.4306940000000 1.0
C      1  0.5049070000000  0.4886250000000  0.3971760000000 1.0
C      1  0.5436470000000  0.4796400000000  0.5223120000000 1.0
C      1  0.5801730000000  0.5005720000000  0.4579680000000 1.0
C      1  0.4843940000000  0.5001830000000  0.4169150000000 1.0
C      1  0.5227080000000  0.5075730000000  0.5832100000000 1.0
C      1  0.5263800000000  0.5653790000000  0.5229060000000 1.0
C      1  0.5931370000000  0.4768000000000  0.4725140000000 1.0
C      1  0.5788240000000  0.4876020000000  0.5658920000000 1.0
C      1  0.4656930000000  0.5134460000000  0.5388960000000 1.0
C      1  0.4893720000000  0.4455750000000  0.4239350000000 1.0
C      1  0.4144960000000  0.4604810000000  0.4788700000000 1.0
C      1  0.4695230000000  0.5262230000000  0.4119390000000 1.0
C      1  0.5701190000000  0.5146140000000  0.5609290000000 1.0
C      1  0.4235840000000  0.5233330000000  0.5456870000000 1.0
C      1  0.4139360000000  0.4789770000000  0.5281130000000 1.0
C      1  0.4429190000000  0.5880900000000  0.5122420000000 1.0
C      1  0.5407650000000  0.4938680000000  0.4770340000000 1.0
C      1  0.5578490000000  0.5669410000000  0.4621270000000 1.0
C      1  0.5027900000000  0.4302290000000  0.4447450000000 1.0
C      1  0.4702970000000  0.4583080000000  0.5802800000000 1.0
C      1  0.4311810000000  0.5507270000000  0.5432150000000 1.0
C      1  0.5197300000000  0.5208390000000  0.3816360000000 1.0
C      1  0.4387730000000  0.5380740000000  0.5868590000000 1.0
C      1  0.4406130000000  0.4420360000000  0.5345130000000 1.0
C      1  0.4883600000000  0.3992300000000  0.4806030000000 1.0
C      1  0.5728790000000  0.4534080000000  0.4769270000000 1.0
C      1  0.4732740000000  0.5114940000000  0.4625080000000 1.0
C      1  0.5174480000000  0.5633290000000  0.5698630000000 1.0
C      1  0.5134170000000  0.5802140000000  0.5464580000000 1.0
C      1  0.5396880000000  0.5180650000000  0.4617860000000 1.0
C      1  0.5422200000000  0.5513790000000  0.5747070000000 1.0
C      1  0.4684450000000  0.5741170000000  0.5681600000000 1.0
C      1  0.5871390000000  0.5350350000000  0.4992640000000 1.0
C      1  0.5882210000000  0.5320940000000  0.5451950000000 1.0
C      1  0.4100780000000  0.5083750000000  0.5245640000000 1.0
C      1  0.4675530000000  0.6023780000000  0.4741930000000 1.0
C      1  0.4285060000000  0.5086510000000  0.4363980000000 1.0
C      1  0.5553720000000  0.4210270000000  0.5057010000000 1.0
C      1  0.5317870000000  0.4326510000000  0.4408940000000 1.0
C      1  0.4422840000000  0.4311150000000  0.4401670000000 1.0
C      1  0.4602760000000  0.4093490000000  0.4429500000000 1.0
C      1  0.4361650000000  0.5629060000000  0.4721340000000 1.0
C      1  0.5346410000000  0.4356630000000  0.5746790000000 1.0
C      1  0.3941460000000  0.5114340000000  0.4760560000000 1.0
C      1  0.4591560000000  0.4395970000000  0.4827630000000 1.0
C      1  0.4313440000000  0.4661600000000  0.5496440000000 1.0
C      1  0.5494690000000  0.5249420000000  0.5801560000000 1.0
C      1  0.5608900000000  0.5775230000000  0.4897230000000 1.0
C      1  0.4897420000000  0.5487550000000  0.4075120000000 1.0
C      1  0.5147150000000  0.4023830000000  0.4940650000000 1.0
C      1  0.5830550000000  0.5654330000000  0.5077470000000 1.0
C      1  0.4752350000000  0.4850620000000  0.4973210000000 1.0
C      1  0.4933400000000  0.5457440000000  0.5651640000000 1.0
C      1  0.5604440000000  0.4689970000000  0.4285100000000 1.0
C      1  0.4576110000000  0.4201130000000  0.5495230000000 1.0
C      1  0.4416120000000  0.5582370000000  0.4421430000000 1.0
C      1  0.5105400000000  0.4657660000000  0.5550590000000 1.0
C      1  0.4030070000000  0.5092130000000  0.4492450000000 1.0
C      1  0.5460100000000  0.4672720000000  0.4648770000000 1.0
C      1  0.5414170000000  0.5515430000000  0.4168460000000 1.0
C      1  0.4762390000000  0.4147330000000  0.5247840000000 1.0
C      1  0.5390130000000  0.4617420000000  0.5886370000000 1.0
C      1  0.4830960000000  0.4430960000000  0.5219390000000 1.0
C      1  0.4889970000000  0.5688060000000  0.4279600000000 1.0
C      1  0.5142680000000  0.5409890000000  0.4950610000000 1.0
C      1  0.5349910000000  0.5846360000000  0.5024630000000 1.0
C      1  0.5975570000000  0.5205760000000  0.4740210000000 1.0
C      1  0.5422270000000  0.4149330000000  0.5304950000000 1.0
C      1  0.4622410000000  0.4580550000000  0.5066420000000 1.0
C      1  0.5576660000000  0.5282080000000  0.5040290000000 1.0
C      1  0.4861160000000  0.5950830000000  0.4938630000000 1.0
C      1  0.4959840000000  0.4739310000000  0.4663000000000 1.0
C      1  0.4726330000000  0.5814030000000  0.5173890000000 1.0
C      1  0.4596320000000  0.5360360000000  0.4978730000000 1.0
C      1  0.4836350000000  0.5868640000000  0.5453440000000 1.0
C      1  0.5357720000000  0.4554170000000  0.4238460000000 1.0
C      1  0.4427370000000  0.5602060000000  0.5682230000000 1.0
C      1  0.4624840000000  0.5750260000000  0.4342190000000 1.0
C      1  0.5889070000000  0.4704460000000  0.5464410000000 1.0
C      1  0.4472540000000  0.5308100000000  0.4324580000000 1.0
C      1  0.5346780000000  0.5010790000000  0.3951290000000 1.0
C      1  0.5198180000000  0.4552180000000  0.4774210000000 1.0
C      1  0.5177350000000  0.4802550000000  0.5957830000000 1.0
C      1  0.5745460000000  0.5574380000000  0.5366300000000 1.0
C      1  0.4764820000000  0.5522200000000  0.5149680000000 1.0
C      1  0.6008610000000  0.5201830000000  0.5210540000000 1.0
C      1  0.6079450000000  0.4964870000000  0.4916620000000 1.0
C      1  0.4660940000000  0.4111550000000  0.4962200000000 1.0
C      1  0.4868530000000  0.4072080000000  0.4522520000000 1.0
C      1  0.4915000000000  0.4703870000000  0.5940280000000 1.0
END
