TITL C-951333-8791-132 -1.88402396194044e-06 125000 -1140.01918955607 0 0 182 (C1) n - 1
REM
REM in /home/bkarasulu/work/CARBON/AIRSS/Generating-Clusters/EDIP-Nigel-Params/with-SteepDescent/Only-C1/SD-CG/HFTN-CG
REM
REM
REM
REM
REM
REM ./C.cell (11c1c37f851c82e70ff6c80c92926a4b)
REM
REM compiler GCC version 9.2.1 20190827 (Red Hat 9.2.1-1)
REM options -cpp -mtune=generic -march=x86-64 -g -O0 -fpre-include=/usr/include/finclude/math-vector-fortran.h
REM seed -3087607 423328723 2068298878 -1434974952 1061627861 2080884457 -1550904284 -267841207 -900388946 1390531822 968547218 -2030448921 1016350549 -829880736 -1714526832 1222663249 1467924117 1561069093 74085745 -1510014346 1752488141 2088748705 -692741563 611904897 1237284621 -1414064975 -2358762 -667367647 1023338639 1647505090 1931295452 -1941107518 -929341269
REM
CELL 1.54180   50.00000   50.00000   50.00000   90.00000   90.00000   90.00000
LATT -1
SFAC C  
C      1  0.4981550000000  0.4444080000000  0.5928810000000 1.0
C      1  0.3915160000000  0.4877190000000  0.4411820000000 1.0
C      1  0.4417360000000  0.4994440000000  0.5962000000000 1.0
C      1  0.5725890000000  0.5458490000000  0.4425630000000 1.0
C      1  0.5599320000000  0.4053180000000  0.4881470000000 1.0
C      1  0.4797290000000  0.5366480000000  0.4539510000000 1.0
C      1  0.5057400000000  0.4788940000000  0.5626440000000 1.0
C      1  0.5013490000000  0.5131100000000  0.5344150000000 1.0
C      1  0.4594700000000  0.4574150000000  0.5638760000000 1.0
C      1  0.5048330000000  0.4935860000000  0.4453800000000 1.0
C      1  0.4068600000000  0.5565540000000  0.4333620000000 1.0
C      1  0.4951290000000  0.5089060000000  0.4909560000000 1.0
C      1  0.4349720000000  0.5209920000000  0.4772330000000 1.0
C      1  0.5615420000000  0.5755190000000  0.5786430000000 1.0
C      1  0.5988120000000  0.5601980000000  0.5593170000000 1.0
C      1  0.3901980000000  0.4802690000000  0.4962540000000 1.0
C      1  0.5023430000000  0.5175980000000  0.4641760000000 1.0
C      1  0.5563220000000  0.4656680000000  0.5163900000000 1.0
C      1  0.4698180000000  0.4573450000000  0.5922690000000 1.0
C      1  0.4551470000000  0.5173310000000  0.3862130000000 1.0
C      1  0.5158140000000  0.5617100000000  0.4753710000000 1.0
C      1  0.4936750000000  0.5238570000000  0.5813890000000 1.0
C      1  0.5602640000000  0.4390120000000  0.4412780000000 1.0
C      1  0.4562240000000  0.5405460000000  0.5174460000000 1.0
C      1  0.5505170000000  0.5259630000000  0.4407110000000 1.0
C      1  0.5293780000000  0.5341100000000  0.4666960000000 1.0
C      1  0.5714080000000  0.4485650000000  0.4669450000000 1.0
C      1  0.5456330000000  0.3959480000000  0.4636280000000 1.0
C      1  0.5218440000000  0.5482710000000  0.6136660000000 1.0
C      1  0.4570380000000  0.5955350000000  0.4923260000000 1.0
C      1  0.5220850000000  0.6009810000000  0.4541270000000 1.0
C      1  0.4994800000000  0.6120050000000  0.5530260000000 1.0
C      1  0.4985680000000  0.4410480000000  0.5322720000000 1.0
C      1  0.5424030000000  0.5055750000000  0.6043410000000 1.0
C      1  0.4752930000000  0.6012250000000  0.4695370000000 1.0
C      1  0.4392440000000  0.4237570000000  0.5145890000000 1.0
C      1  0.4664830000000  0.4859310000000  0.6025410000000 1.0
C      1  0.4512800000000  0.4374080000000  0.4049960000000 1.0
C      1  0.4424430000000  0.4113400000000  0.4667110000000 1.0
C      1  0.5901430000000  0.5415000000000  0.4671670000000 1.0
C      1  0.3880010000000  0.5207680000000  0.5141710000000 1.0
C      1  0.5105100000000  0.5702990000000  0.5716780000000 1.0
C      1  0.5181310000000  0.4885690000000  0.6044530000000 1.0
C      1  0.5259430000000  0.4442850000000  0.4857970000000 1.0
C      1  0.4694220000000  0.5533350000000  0.4957220000000 1.0
C      1  0.4435370000000  0.4940490000000  0.4693460000000 1.0
C      1  0.5314780000000  0.5785200000000  0.4376250000000 1.0
C      1  0.4682940000000  0.3987780000000  0.4746940000000 1.0
C      1  0.4905660000000  0.4959560000000  0.3972550000000 1.0
C      1  0.4360910000000  0.4762310000000  0.5588150000000 1.0
C      1  0.4179930000000  0.5218940000000  0.5045300000000 1.0
C      1  0.4163680000000  0.5751020000000  0.4529130000000 1.0
C      1  0.6073000000000  0.4288410000000  0.5261330000000 1.0
C      1  0.4891850000000  0.4119830000000  0.5548210000000 1.0
C      1  0.4700380000000  0.5932740000000  0.4419220000000 1.0
C      1  0.5457780000000  0.5410260000000  0.5440630000000 1.0
C      1  0.5620660000000  0.5470470000000  0.5850910000000 1.0
C      1  0.4550220000000  0.4872630000000  0.3844170000000 1.0
C      1  0.4994450000000  0.5432200000000  0.5295270000000 1.0
C      1  0.4171400000000  0.5201630000000  0.5561160000000 1.0
C      1  0.4863210000000  0.5829420000000  0.4197880000000 1.0
C      1  0.4729010000000  0.4574850000000  0.4813840000000 1.0
C      1  0.5404350000000  0.4895150000000  0.4801850000000 1.0
C      1  0.3929800000000  0.5059400000000  0.5398580000000 1.0
C      1  0.5607680000000  0.5730620000000  0.4423510000000 1.0
C      1  0.5029480000000  0.6040250000000  0.4758520000000 1.0
C      1  0.5124190000000  0.5692690000000  0.4159310000000 1.0
C      1  0.4267390000000  0.5480590000000  0.5167890000000 1.0
C      1  0.5050650000000  0.5493060000000  0.5916740000000 1.0
C      1  0.5852450000000  0.5649370000000  0.5122880000000 1.0
C      1  0.6050490000000  0.4323790000000  0.4981810000000 1.0
C      1  0.4358440000000  0.4871280000000  0.4419270000000 1.0
C      1  0.4299110000000  0.5903820000000  0.4854580000000 1.0
C      1  0.4637910000000  0.5783400000000  0.5482710000000 1.0
C      1  0.5346660000000  0.4088630000000  0.4171810000000 1.0
C      1  0.5687370000000  0.5837760000000  0.4686330000000 1.0
C      1  0.5671680000000  0.4683240000000  0.5590570000000 1.0
C      1  0.5665860000000  0.4963150000000  0.5682710000000 1.0
C      1  0.5833890000000  0.5841890000000  0.5627600000000 1.0
C      1  0.5659610000000  0.4935080000000  0.5971830000000 1.0
C      1  0.5426370000000  0.5103060000000  0.5504000000000 1.0
C      1  0.4419060000000  0.4286960000000  0.4418680000000 1.0
C      1  0.5259120000000  0.5861140000000  0.5296270000000 1.0
C      1  0.4401640000000  0.5029260000000  0.5464940000000 1.0
C      1  0.4800370000000  0.4936690000000  0.5296390000000 1.0
C      1  0.5631450000000  0.4982040000000  0.4431940000000 1.0
C      1  0.4478440000000  0.5323730000000  0.4114260000000 1.0
C      1  0.6067530000000  0.4611800000000  0.4915400000000 1.0
C      1  0.4999090000000  0.3898760000000  0.4451360000000 1.0
C      1  0.5394860000000  0.4186290000000  0.4445670000000 1.0
C      1  0.4906740000000  0.4197110000000  0.4682360000000 1.0
C      1  0.4613810000000  0.4067890000000  0.5508830000000 1.0
C      1  0.5298450000000  0.6064340000000  0.5533970000000 1.0
C      1  0.3804850000000  0.4794500000000  0.4673880000000 1.0
C      1  0.4912650000000  0.4114080000000  0.4252510000000 1.0
C      1  0.4844310000000  0.4664570000000  0.5453360000000 1.0
C      1  0.4758070000000  0.4556080000000  0.4493660000000 1.0
C      1  0.5876410000000  0.4941070000000  0.4591190000000 1.0
C      1  0.5382760000000  0.4905730000000  0.5246410000000 1.0
C      1  0.4648920000000  0.5972400000000  0.5214540000000 1.0
C      1  0.4176890000000  0.5318040000000  0.4215040000000 1.0
C      1  0.5356290000000  0.5249370000000  0.4137330000000 1.0
C      1  0.5121790000000  0.5405330000000  0.4059360000000 1.0
C      1  0.4984580000000  0.5521830000000  0.4996670000000 1.0
C      1  0.5301980000000  0.4116000000000  0.5725340000000 1.0
C      1  0.5204380000000  0.5586630000000  0.5443240000000 1.0
C      1  0.4063340000000  0.4648880000000  0.4312750000000 1.0
C      1  0.5813910000000  0.4247960000000  0.4815540000000 1.0
C      1  0.4726230000000  0.3905680000000  0.5033760000000 1.0
C      1  0.5445640000000  0.5333100000000  0.4936080000000 1.0
C      1  0.5323660000000  0.4423940000000  0.5365960000000 1.0
C      1  0.4188520000000  0.5490240000000  0.5456400000000 1.0
C      1  0.5111430000000  0.3969160000000  0.4996460000000 1.0
C      1  0.4143950000000  0.5688090000000  0.4968070000000 1.0
C      1  0.4922580000000  0.5253470000000  0.3892860000000 1.0
C      1  0.4718960000000  0.5487670000000  0.5417370000000 1.0
C      1  0.5057190000000  0.4611630000000  0.4431100000000 1.0
C      1  0.5492840000000  0.5809760000000  0.5124820000000 1.0
C      1  0.4201840000000  0.4476810000000  0.4498050000000 1.0
C      1  0.5590040000000  0.4835670000000  0.4184220000000 1.0
C      1  0.5500110000000  0.4616810000000  0.4857160000000 1.0
C      1  0.5554720000000  0.5504250000000  0.5163080000000 1.0
C      1  0.4534160000000  0.4007300000000  0.5228790000000 1.0
C      1  0.5890130000000  0.5378070000000  0.5766570000000 1.0
C      1  0.4675720000000  0.5224270000000  0.4314170000000 1.0
C      1  0.5873800000000  0.5129170000000  0.4820900000000 1.0
C      1  0.4440780000000  0.4721280000000  0.4894460000000 1.0
C      1  0.5159770000000  0.4897060000000  0.4995590000000 1.0
C      1  0.4914010000000  0.5031660000000  0.6040910000000 1.0
C      1  0.5489380000000  0.4565360000000  0.4207730000000 1.0
C      1  0.4817210000000  0.4286660000000  0.5042490000000 1.0
C      1  0.4461270000000  0.5438980000000  0.5819350000000 1.0
C      1  0.5166110000000  0.4359290000000  0.4588540000000 1.0
C      1  0.4279860000000  0.4252570000000  0.4884620000000 1.0
C      1  0.5950210000000  0.4663230000000  0.4647400000000 1.0
C      1  0.4454770000000  0.4306270000000  0.5581730000000 1.0
C      1  0.5909740000000  0.5124100000000  0.5609790000000 1.0
C      1  0.4928030000000  0.5644820000000  0.4531700000000 1.0
C      1  0.5101060000000  0.6089180000000  0.5033920000000 1.0
C      1  0.4586800000000  0.4653920000000  0.4037670000000 1.0
C      1  0.4901960000000  0.6116240000000  0.5244670000000 1.0
C      1  0.5444990000000  0.5344630000000  0.6051830000000 1.0
C      1  0.4132370000000  0.5092820000000  0.4407630000000 1.0
C      1  0.4643180000000  0.4138040000000  0.4149350000000 1.0
C      1  0.5189280000000  0.4546800000000  0.4147800000000 1.0
C      1  0.4203930000000  0.4524970000000  0.4795830000000 1.0
C      1  0.5352110000000  0.4182570000000  0.5008180000000 1.0
C      1  0.6026660000000  0.4547440000000  0.5363630000000 1.0
C      1  0.5390230000000  0.4977860000000  0.4020100000000 1.0
C      1  0.6020030000000  0.5490150000000  0.5315460000000 1.0
C      1  0.4823070000000  0.4975990000000  0.4260920000000 1.0
C      1  0.4263190000000  0.5216840000000  0.5866370000000 1.0
C      1  0.3730440000000  0.5042370000000  0.4958830000000 1.0
C      1  0.5237310000000  0.3930100000000  0.5276880000000 1.0
C      1  0.4363580000000  0.4993450000000  0.5159440000000 1.0
C      1  0.4677710000000  0.5309990000000  0.5663200000000 1.0
C      1  0.4022290000000  0.5589970000000  0.4719750000000 1.0
C      1  0.5125030000000  0.5075250000000  0.5604390000000 1.0
C      1  0.5183330000000  0.3856950000000  0.4695270000000 1.0
C      1  0.4365840000000  0.5657050000000  0.5631340000000 1.0
C      1  0.5033020000000  0.4625140000000  0.4953580000000 1.0
C      1  0.5977440000000  0.5024720000000  0.5106210000000 1.0
C      1  0.5125210000000  0.4246500000000  0.4097100000000 1.0
C      1  0.4626560000000  0.4756630000000  0.4304870000000 1.0
C      1  0.4581780000000  0.5401400000000  0.4729950000000 1.0
C      1  0.5158320000000  0.4796890000000  0.3957730000000 1.0
C      1  0.4259950000000  0.4357630000000  0.5368180000000 1.0
C      1  0.4666100000000  0.5051610000000  0.5053880000000 1.0
C      1  0.5348560000000  0.5888330000000  0.5772890000000 1.0
C      1  0.5421920000000  0.5855890000000  0.4835400000000 1.0
C      1  0.5364210000000  0.4134370000000  0.5446130000000 1.0
C      1  0.4862580000000  0.5885470000000  0.5663750000000 1.0
C      1  0.5185540000000  0.4649010000000  0.5842180000000 1.0
C      1  0.4208600000000  0.4641150000000  0.5370590000000 1.0
C      1  0.5588380000000  0.5096060000000  0.4907070000000 1.0
C      1  0.5938710000000  0.5208340000000  0.5329810000000 1.0
C      1  0.5031080000000  0.4174360000000  0.5794420000000 1.0
C      1  0.5418830000000  0.4532850000000  0.5640100000000 1.0
C      1  0.5901750000000  0.5668580000000  0.4822790000000 1.0
C      1  0.5901460000000  0.4726020000000  0.5150650000000 1.0
C      1  0.5916480000000  0.4551980000000  0.5616950000000 1.0
C      1  0.3981950000000  0.4792610000000  0.5259060000000 1.0
END
