TITL C-950522-5749-119 -9.25908620936813e-07 125000 -1105.76892626169 0 0 177 (C1) n - 1
REM
REM in /home/bkarasulu/work/CARBON/AIRSS/Generating-Clusters/EDIP-Nigel-Params/with-SteepDescent/Only-C1/SD-CG/HFTN-CG
REM
REM
REM
REM
REM
REM ./C.cell (11c1c37f851c82e70ff6c80c92926a4b)
REM
REM compiler GCC version 9.2.1 20190827 (Red Hat 9.2.1-1)
REM options -cpp -mtune=generic -march=x86-64 -g -O0 -fpre-include=/usr/include/finclude/math-vector-fortran.h
REM seed -1810772028 722275964 -352499161 -1328445273 356150120 -1503824071 929888194 -1576344424 -1973549926 386752707 -1357374077 473145714 154647813 81580120 -1093740308 2015320082 -742864097 1318694575 -1427350130 766074431 -1804371398 561506358 -455226404 494986943 -1799990620 1251397751 -983750468 -778032904 -1920034876 -201842861 1289240544 -225696125 -71172220
REM
CELL 1.54180   50.00000   50.00000   50.00000   90.00000   90.00000   90.00000
LATT -1
SFAC C  
C      1  0.5139670000000  0.4847340000000  0.5899010000000 1.0
C      1  0.5853070000000  0.5027230000000  0.5466120000000 1.0
C      1  0.5773530000000  0.5503860000000  0.5378320000000 1.0
C      1  0.5572950000000  0.5729040000000  0.5341050000000 1.0
C      1  0.6088430000000  0.4658540000000  0.5255840000000 1.0
C      1  0.5348850000000  0.4491580000000  0.5388920000000 1.0
C      1  0.5533810000000  0.4506410000000  0.4180890000000 1.0
C      1  0.5756660000000  0.4136600000000  0.5217100000000 1.0
C      1  0.5286580000000  0.4350090000000  0.4881440000000 1.0
C      1  0.5052860000000  0.5015960000000  0.3923260000000 1.0
C      1  0.4964400000000  0.6215810000000  0.4612240000000 1.0
C      1  0.5808960000000  0.4484060000000  0.4595500000000 1.0
C      1  0.5641110000000  0.5890380000000  0.5075120000000 1.0
C      1  0.4512030000000  0.5358290000000  0.4821340000000 1.0
C      1  0.5583450000000  0.4853840000000  0.5866840000000 1.0
C      1  0.5697930000000  0.4778030000000  0.5447250000000 1.0
C      1  0.5989110000000  0.4641070000000  0.4765800000000 1.0
C      1  0.5322720000000  0.4565160000000  0.4615720000000 1.0
C      1  0.5902400000000  0.4561090000000  0.5476630000000 1.0
C      1  0.4030120000000  0.5552250000000  0.4830530000000 1.0
C      1  0.5070830000000  0.5444920000000  0.4878440000000 1.0
C      1  0.4690280000000  0.4606550000000  0.4057040000000 1.0
C      1  0.5957030000000  0.5349930000000  0.4586800000000 1.0
C      1  0.4286210000000  0.6003150000000  0.4989070000000 1.0
C      1  0.6118770000000  0.5364870000000  0.4841140000000 1.0
C      1  0.4304300000000  0.4679840000000  0.4926850000000 1.0
C      1  0.4935530000000  0.4291180000000  0.4797030000000 1.0
C      1  0.5867460000000  0.4277570000000  0.4988690000000 1.0
C      1  0.4528670000000  0.5928280000000  0.5424490000000 1.0
C      1  0.4830040000000  0.5218250000000  0.5860450000000 1.0
C      1  0.4646940000000  0.5645220000000  0.4852440000000 1.0
C      1  0.4193490000000  0.4976260000000  0.5467930000000 1.0
C      1  0.5117740000000  0.4052980000000  0.4472510000000 1.0
C      1  0.4557040000000  0.5278100000000  0.5789070000000 1.0
C      1  0.6050580000000  0.5611490000000  0.4988740000000 1.0
C      1  0.4204200000000  0.5674570000000  0.4622420000000 1.0
C      1  0.4469520000000  0.4674990000000  0.4668420000000 1.0
C      1  0.6021260000000  0.5562390000000  0.5261950000000 1.0
C      1  0.4606550000000  0.5887040000000  0.4677450000000 1.0
C      1  0.6035980000000  0.4923010000000  0.4742240000000 1.0
C      1  0.5513140000000  0.3993180000000  0.5126880000000 1.0
C      1  0.4451680000000  0.4788770000000  0.5818970000000 1.0
C      1  0.5404630000000  0.4767090000000  0.5353660000000 1.0
C      1  0.4381560000000  0.5139950000000  0.4338140000000 1.0
C      1  0.4802970000000  0.6083180000000  0.5063150000000 1.0
C      1  0.4827710000000  0.5890790000000  0.5412950000000 1.0
C      1  0.5573690000000  0.5610310000000  0.4401750000000 1.0
C      1  0.5486660000000  0.4341920000000  0.5598270000000 1.0
C      1  0.5304620000000  0.5633890000000  0.5239800000000 1.0
C      1  0.4609820000000  0.5444710000000  0.5341780000000 1.0
C      1  0.4257530000000  0.5243200000000  0.4613550000000 1.0
C      1  0.5131840000000  0.5710670000000  0.4156320000000 1.0
C      1  0.5333700000000  0.4361350000000  0.4362040000000 1.0
C      1  0.3934960000000  0.5062520000000  0.4953910000000 1.0
C      1  0.4955270000000  0.5160530000000  0.4942750000000 1.0
C      1  0.4848040000000  0.4180490000000  0.4535950000000 1.0
C      1  0.5042390000000  0.5431510000000  0.5806810000000 1.0
C      1  0.4341470000000  0.4564400000000  0.5670290000000 1.0
C      1  0.5813830000000  0.5742510000000  0.4863010000000 1.0
C      1  0.4876610000000  0.4576860000000  0.4805500000000 1.0
C      1  0.5395850000000  0.5004900000000  0.4257080000000 1.0
C      1  0.4553830000000  0.4424210000000  0.5510390000000 1.0
C      1  0.5151940000000  0.4747620000000  0.3958190000000 1.0
C      1  0.4736720000000  0.5164820000000  0.4727080000000 1.0
C      1  0.4364170000000  0.5039560000000  0.5209390000000 1.0
C      1  0.6101170000000  0.4961550000000  0.5269530000000 1.0
C      1  0.5133520000000  0.5188290000000  0.5380570000000 1.0
C      1  0.5323310000000  0.5316270000000  0.5899680000000 1.0
C      1  0.4764080000000  0.6117810000000  0.4776130000000 1.0
C      1  0.4751550000000  0.4935560000000  0.5387560000000 1.0
C      1  0.4811240000000  0.3910490000000  0.5396800000000 1.0
C      1  0.5819690000000  0.5033220000000  0.5786210000000 1.0
C      1  0.4860150000000  0.4472720000000  0.5554800000000 1.0
C      1  0.4042380000000  0.4439880000000  0.4487990000000 1.0
C      1  0.4477610000000  0.4175270000000  0.4995160000000 1.0
C      1  0.4123370000000  0.5560790000000  0.5109410000000 1.0
C      1  0.4489670000000  0.5374000000000  0.4192190000000 1.0
C      1  0.4952170000000  0.5904540000000  0.5678420000000 1.0
C      1  0.6033160000000  0.5102690000000  0.4983050000000 1.0
C      1  0.4993020000000  0.5754520000000  0.4422100000000 1.0
C      1  0.5337030000000  0.5463610000000  0.4990330000000 1.0
C      1  0.4589600000000  0.4051180000000  0.4540510000000 1.0
C      1  0.5542940000000  0.5312090000000  0.4832340000000 1.0
C      1  0.4315630000000  0.5931070000000  0.4715790000000 1.0
C      1  0.5769370000000  0.4600690000000  0.4329160000000 1.0
C      1  0.4125300000000  0.4427460000000  0.5231170000000 1.0
C      1  0.4654500000000  0.4787310000000  0.5164320000000 1.0
C      1  0.5090690000000  0.4316460000000  0.4192200000000 1.0
C      1  0.4141490000000  0.5591430000000  0.5398480000000 1.0
C      1  0.4500700000000  0.4128250000000  0.5469600000000 1.0
C      1  0.5134160000000  0.4407070000000  0.5889620000000 1.0
C      1  0.4856660000000  0.4489950000000  0.5944450000000 1.0
C      1  0.4777480000000  0.5078450000000  0.3939680000000 1.0
C      1  0.3987230000000  0.5400410000000  0.5529720000000 1.0
C      1  0.5368080000000  0.5269770000000  0.4102850000000 1.0
C      1  0.4429090000000  0.5650700000000  0.5491490000000 1.0
C      1  0.5175210000000  0.4955310000000  0.4849470000000 1.0
C      1  0.3808930000000  0.5110550000000  0.5197560000000 1.0
C      1  0.4061930000000  0.4508260000000  0.4925260000000 1.0
C      1  0.4548220000000  0.5572400000000  0.5760990000000 1.0
C      1  0.5457350000000  0.4096810000000  0.4844820000000 1.0
C      1  0.4630390000000  0.4881870000000  0.4082210000000 1.0
C      1  0.4376440000000  0.4080430000000  0.4734090000000 1.0
C      1  0.5430490000000  0.4524420000000  0.5848540000000 1.0
C      1  0.4456680000000  0.5608200000000  0.4361800000000 1.0
C      1  0.4652760000000  0.4900230000000  0.4598130000000 1.0
C      1  0.5498170000000  0.5859240000000  0.5607620000000 1.0
C      1  0.5213150000000  0.4936060000000  0.5526630000000 1.0
C      1  0.5358800000000  0.5026620000000  0.5928360000000 1.0
C      1  0.4864030000000  0.5608350000000  0.5305560000000 1.0
C      1  0.3940470000000  0.5137460000000  0.5448720000000 1.0
C      1  0.5150260000000  0.5922530000000  0.5133800000000 1.0
C      1  0.5796160000000  0.5287940000000  0.5902110000000 1.0
C      1  0.5575060000000  0.5456440000000  0.5914690000000 1.0
C      1  0.5638140000000  0.4841550000000  0.4942390000000 1.0
C      1  0.4976070000000  0.4550180000000  0.4079070000000 1.0
C      1  0.5329310000000  0.4085260000000  0.5590810000000 1.0
C      1  0.5022650000000  0.5081370000000  0.4305230000000 1.0
C      1  0.5231040000000  0.5924290000000  0.5655350000000 1.0
C      1  0.4100580000000  0.4900440000000  0.4568380000000 1.0
C      1  0.5597190000000  0.5716490000000  0.5822550000000 1.0
C      1  0.5904180000000  0.4572020000000  0.5032900000000 1.0
C      1  0.4839030000000  0.4045580000000  0.5644800000000 1.0
C      1  0.4482450000000  0.4422130000000  0.4487640000000 1.0
C      1  0.4779350000000  0.4162680000000  0.5040780000000 1.0
C      1  0.5734560000000  0.4219290000000  0.4725710000000 1.0
C      1  0.4428350000000  0.5323900000000  0.5124800000000 1.0
C      1  0.4211300000000  0.4949430000000  0.4991390000000 1.0
C      1  0.5385450000000  0.5098440000000  0.4674950000000 1.0
C      1  0.5356990000000  0.5981050000000  0.4690830000000 1.0
C      1  0.5059160000000  0.5497690000000  0.4580220000000 1.0
C      1  0.5061490000000  0.4732450000000  0.4648840000000 1.0
C      1  0.3960700000000  0.5280460000000  0.4741910000000 1.0
C      1  0.4360580000000  0.5052960000000  0.5725080000000 1.0
C      1  0.5592110000000  0.5436550000000  0.4170160000000 1.0
C      1  0.5123390000000  0.5999920000000  0.4543280000000 1.0
C      1  0.5117860000000  0.5468890000000  0.5466960000000 1.0
C      1  0.4889920000000  0.4961960000000  0.5971380000000 1.0
C      1  0.4918980000000  0.4396760000000  0.5237060000000 1.0
C      1  0.4491890000000  0.4544810000000  0.5236360000000 1.0
C      1  0.4711190000000  0.4741010000000  0.5948240000000 1.0
C      1  0.4209560000000  0.4879760000000  0.4299200000000 1.0
C      1  0.4305420000000  0.4152130000000  0.5234790000000 1.0
C      1  0.3757270000000  0.4860980000000  0.4870480000000 1.0
C      1  0.4841290000000  0.5673370000000  0.5829840000000 1.0
C      1  0.4891000000000  0.4648160000000  0.5078540000000 1.0
C      1  0.5764880000000  0.4903040000000  0.4313520000000 1.0
C      1  0.5043620000000  0.3868030000000  0.5225800000000 1.0
C      1  0.5092080000000  0.4150970000000  0.5743660000000 1.0
C      1  0.4902850000000  0.5655520000000  0.5004410000000 1.0
C      1  0.5105290000000  0.5425930000000  0.4075270000000 1.0
C      1  0.5686180000000  0.5226380000000  0.5318590000000 1.0
C      1  0.4864130000000  0.4835360000000  0.4388120000000 1.0
C      1  0.5412060000000  0.5775770000000  0.4210490000000 1.0
C      1  0.4204810000000  0.4571990000000  0.4257770000000 1.0
C      1  0.5421390000000  0.4763100000000  0.4067370000000 1.0
C      1  0.5715570000000  0.5516010000000  0.4661590000000 1.0
C      1  0.4873270000000  0.5167530000000  0.5254080000000 1.0
C      1  0.5388830000000  0.6003800000000  0.4966100000000 1.0
C      1  0.5914250000000  0.5059230000000  0.4522670000000 1.0
C      1  0.4484110000000  0.4437190000000  0.4179320000000 1.0
C      1  0.4739520000000  0.5343830000000  0.4038770000000 1.0
C      1  0.4932400000000  0.4785150000000  0.5573350000000 1.0
C      1  0.4891840000000  0.5283590000000  0.4491360000000 1.0
C      1  0.5272270000000  0.4044740000000  0.5295960000000 1.0
C      1  0.4680860000000  0.5800370000000  0.4399380000000 1.0
C      1  0.5220470000000  0.3937530000000  0.4733080000000 1.0
C      1  0.4508640000000  0.6056570000000  0.5160390000000 1.0
C      1  0.4145100000000  0.4203460000000  0.4615580000000 1.0
C      1  0.5369140000000  0.4824260000000  0.5061600000000 1.0
C      1  0.5545870000000  0.4834050000000  0.4627750000000 1.0
C      1  0.5207510000000  0.4329240000000  0.5199770000000 1.0
C      1  0.3925610000000  0.4678310000000  0.4689770000000 1.0
C      1  0.4143430000000  0.4659110000000  0.5472390000000 1.0
C      1  0.5763620000000  0.4293480000000  0.5481440000000 1.0
C      1  0.5725300000000  0.5137430000000  0.5023640000000 1.0
C      1  0.5010450000000  0.3874250000000  0.4935720000000 1.0
END
