TITL C-951347-9520-587 -2.27495705190889e-06 125000 -848.961497212966 0 0 138 (C1) n - 1
REM
REM in /home/bkarasulu/work/CARBON/AIRSS/Generating-Clusters/EDIP-Nigel-Params/with-SteepDescent/Only-C1/SD-CG/HFTN-CG
REM
REM
REM
REM
REM
REM ./C.cell (11c1c37f851c82e70ff6c80c92926a4b)
REM
REM compiler GCC version 9.2.1 20190827 (Red Hat 9.2.1-1)
REM options -cpp -mtune=generic -march=x86-64 -g -O0 -fpre-include=/usr/include/finclude/math-vector-fortran.h
REM seed 259033004 -1649586418 292895399 -1010324949 -437893386 1439908331 422695345 1037101582 -379007519 -635479542 -695713612 367275562 -782002063 368771867 -883746880 1705133124 -592358112 857256691 -303214017 1764967681 -1155502288 964404056 -1316460447 1853697946 -1020779316 -1448680520 468562323 -551371530 4355840 -1642687872 354414227 362451407 409369974
REM
CELL 1.54180   50.00000   50.00000   50.00000   90.00000   90.00000   90.00000
LATT -1
SFAC C  
C      1  0.4554310000000  0.4976770000000  0.5795140000000 1.0
C      1  0.5135250000000  0.6124520000000  0.4923070000000 1.0
C      1  0.5480570000000  0.4456120000000  0.5773420000000 1.0
C      1  0.4837730000000  0.4173400000000  0.5467030000000 1.0
C      1  0.4794000000000  0.4104920000000  0.5172280000000 1.0
C      1  0.4407670000000  0.5088620000000  0.4194440000000 1.0
C      1  0.5040660000000  0.5643260000000  0.4969260000000 1.0
C      1  0.5022020000000  0.4805220000000  0.5821670000000 1.0
C      1  0.4936090000000  0.5469440000000  0.5190310000000 1.0
C      1  0.4149930000000  0.4431200000000  0.5515440000000 1.0
C      1  0.4685190000000  0.5989310000000  0.4847820000000 1.0
C      1  0.4244010000000  0.4707130000000  0.5467880000000 1.0
C      1  0.4936250000000  0.5928560000000  0.4941810000000 1.0
C      1  0.4291300000000  0.4243750000000  0.4977160000000 1.0
C      1  0.4191600000000  0.4499520000000  0.4850090000000 1.0
C      1  0.4835380000000  0.5367610000000  0.3951000000000 1.0
C      1  0.5031240000000  0.5430960000000  0.4730890000000 1.0
C      1  0.4424870000000  0.5801410000000  0.5285670000000 1.0
C      1  0.5242310000000  0.4127790000000  0.4683790000000 1.0
C      1  0.4929050000000  0.4531080000000  0.5779370000000 1.0
C      1  0.5916920000000  0.5166740000000  0.4766150000000 1.0
C      1  0.5453380000000  0.5399280000000  0.5054030000000 1.0
C      1  0.4279610000000  0.4723780000000  0.5156070000000 1.0
C      1  0.5275010000000  0.4458130000000  0.4101050000000 1.0
C      1  0.4650680000000  0.4942620000000  0.4125210000000 1.0
C      1  0.4540890000000  0.4734670000000  0.5585530000000 1.0
C      1  0.5041010000000  0.4603730000000  0.5307960000000 1.0
C      1  0.5069000000000  0.5518730000000  0.5971520000000 1.0
C      1  0.5137470000000  0.4438550000000  0.5060790000000 1.0
C      1  0.4303690000000  0.4884060000000  0.4394690000000 1.0
C      1  0.5447720000000  0.4452170000000  0.5002090000000 1.0
C      1  0.5072280000000  0.4141870000000  0.5090180000000 1.0
C      1  0.6003860000000  0.4687200000000  0.4601070000000 1.0
C      1  0.5340390000000  0.5805920000000  0.5322350000000 1.0
C      1  0.3995090000000  0.5067400000000  0.4944900000000 1.0
C      1  0.5675160000000  0.4341580000000  0.4637120000000 1.0
C      1  0.3954380000000  0.5280840000000  0.5147960000000 1.0
C      1  0.5410230000000  0.6074000000000  0.4893340000000 1.0
C      1  0.4822030000000  0.4986400000000  0.5907700000000 1.0
C      1  0.5796420000000  0.5876190000000  0.5104300000000 1.0
C      1  0.4164780000000  0.5145830000000  0.4728010000000 1.0
C      1  0.5353840000000  0.4948790000000  0.4512090000000 1.0
C      1  0.5561210000000  0.4792670000000  0.4954380000000 1.0
C      1  0.5509090000000  0.4722190000000  0.5700510000000 1.0
C      1  0.5253580000000  0.4009210000000  0.5259180000000 1.0
C      1  0.3999320000000  0.4891100000000  0.5464050000000 1.0
C      1  0.4484840000000  0.4297400000000  0.4493980000000 1.0
C      1  0.4695650000000  0.4517980000000  0.4908940000000 1.0
C      1  0.5911480000000  0.5194240000000  0.5265610000000 1.0
C      1  0.4986480000000  0.4548070000000  0.4822850000000 1.0
C      1  0.4205250000000  0.5422210000000  0.4688030000000 1.0
C      1  0.5748290000000  0.5389760000000  0.4988200000000 1.0
C      1  0.5456390000000  0.5882260000000  0.4678510000000 1.0
C      1  0.4617490000000  0.5823630000000  0.5473100000000 1.0
C      1  0.4749940000000  0.5017520000000  0.5244770000000 1.0
C      1  0.4883690000000  0.4988440000000  0.4590060000000 1.0
C      1  0.5316550000000  0.4281160000000  0.5632890000000 1.0
C      1  0.4892890000000  0.4032210000000  0.4560620000000 1.0
C      1  0.4899880000000  0.4124690000000  0.4283570000000 1.0
C      1  0.4066450000000  0.5537700000000  0.5069700000000 1.0
C      1  0.5282410000000  0.5597000000000  0.5531000000000 1.0
C      1  0.5679950000000  0.5690660000000  0.4673880000000 1.0
C      1  0.5305240000000  0.5923380000000  0.4448440000000 1.0
C      1  0.5030980000000  0.4835880000000  0.4795100000000 1.0
C      1  0.5152990000000  0.5371940000000  0.5374780000000 1.0
C      1  0.4186230000000  0.4166690000000  0.5231710000000 1.0
C      1  0.5447440000000  0.4143640000000  0.5412180000000 1.0
C      1  0.5073070000000  0.4391220000000  0.4299240000000 1.0
C      1  0.6003050000000  0.5043510000000  0.5029960000000 1.0
C      1  0.5295210000000  0.4900320000000  0.5779080000000 1.0
C      1  0.4749810000000  0.5740920000000  0.4289960000000 1.0
C      1  0.5972780000000  0.4547650000000  0.5112350000000 1.0
C      1  0.3821400000000  0.4776660000000  0.5270440000000 1.0
C      1  0.4525510000000  0.4759260000000  0.4967710000000 1.0
C      1  0.5034400000000  0.5538910000000  0.4453700000000 1.0
C      1  0.4470980000000  0.5361110000000  0.5138540000000 1.0
C      1  0.5067600000000  0.5806400000000  0.4363370000000 1.0
C      1  0.5334320000000  0.5673470000000  0.5044090000000 1.0
C      1  0.4815170000000  0.4558090000000  0.4266470000000 1.0
C      1  0.4354780000000  0.5531680000000  0.4477020000000 1.0
C      1  0.4741110000000  0.5268110000000  0.5072900000000 1.0
C      1  0.4587080000000  0.4246980000000  0.5597140000000 1.0
C      1  0.4474780000000  0.5254410000000  0.5715740000000 1.0
C      1  0.5483370000000  0.4589700000000  0.4239710000000 1.0
C      1  0.5285190000000  0.5228910000000  0.4882980000000 1.0
C      1  0.4598840000000  0.4237630000000  0.4952080000000 1.0
C      1  0.4053630000000  0.5180880000000  0.5414550000000 1.0
C      1  0.5795520000000  0.5062880000000  0.5501500000000 1.0
C      1  0.5114350000000  0.5064090000000  0.4419750000000 1.0
C      1  0.4664980000000  0.5509400000000  0.4118840000000 1.0
C      1  0.5481060000000  0.4889940000000  0.4244830000000 1.0
C      1  0.5126520000000  0.5090730000000  0.5497220000000 1.0
C      1  0.4827900000000  0.5068480000000  0.5527300000000 1.0
C      1  0.5929670000000  0.4448030000000  0.4741260000000 1.0
C      1  0.5541740000000  0.5501490000000  0.5648220000000 1.0
C      1  0.5133560000000  0.5026230000000  0.4135050000000 1.0
C      1  0.5045940000000  0.4388310000000  0.5548950000000 1.0
C      1  0.4381820000000  0.4959940000000  0.4672240000000 1.0
C      1  0.5058910000000  0.5680620000000  0.5728220000000 1.0
C      1  0.5198270000000  0.4884730000000  0.5274730000000 1.0
C      1  0.5864110000000  0.4781760000000  0.4973660000000 1.0
C      1  0.5307600000000  0.5386340000000  0.6027890000000 1.0
C      1  0.3998830000000  0.4781280000000  0.5036620000000 1.0
C      1  0.5813200000000  0.4515970000000  0.5352300000000 1.0
C      1  0.4379500000000  0.4567800000000  0.4608970000000 1.0
C      1  0.4480370000000  0.5359790000000  0.4281960000000 1.0
C      1  0.5467240000000  0.4523020000000  0.4526250000000 1.0
C      1  0.5126260000000  0.5005050000000  0.5011550000000 1.0
C      1  0.4312730000000  0.5296260000000  0.5481600000000 1.0
C      1  0.4793990000000  0.5243540000000  0.4758910000000 1.0
C      1  0.5500380000000  0.5079250000000  0.4731500000000 1.0
C      1  0.5481440000000  0.4851650000000  0.5231850000000 1.0
C      1  0.4492930000000  0.5976630000000  0.4662550000000 1.0
C      1  0.5188050000000  0.4403560000000  0.4578400000000 1.0
C      1  0.5780630000000  0.5285910000000  0.4238360000000 1.0
C      1  0.4639770000000  0.4120630000000  0.4677700000000 1.0
C      1  0.4340030000000  0.5609980000000  0.5100030000000 1.0
C      1  0.4642960000000  0.5473330000000  0.5826330000000 1.0
C      1  0.5669750000000  0.4784160000000  0.5451160000000 1.0
C      1  0.4367120000000  0.4283280000000  0.5414120000000 1.0
C      1  0.4771150000000  0.5659130000000  0.5641030000000 1.0
C      1  0.4730910000000  0.4721650000000  0.5298190000000 1.0
C      1  0.5604330000000  0.4330670000000  0.5236230000000 1.0
C      1  0.5538220000000  0.5987410000000  0.5152020000000 1.0
C      1  0.4641330000000  0.4311180000000  0.4245510000000 1.0
C      1  0.5525410000000  0.5244010000000  0.5934510000000 1.0
C      1  0.5619020000000  0.5412100000000  0.4565520000000 1.0
C      1  0.5882380000000  0.4943520000000  0.4560850000000 1.0
C      1  0.4882750000000  0.5094570000000  0.4004770000000 1.0
C      1  0.5773230000000  0.5002430000000  0.4287690000000 1.0
C      1  0.5550820000000  0.5431250000000  0.4284960000000 1.0
C      1  0.4535940000000  0.5755960000000  0.4500920000000 1.0
C      1  0.5581350000000  0.5214150000000  0.5649530000000 1.0
C      1  0.4818190000000  0.5409080000000  0.6040630000000 1.0
C      1  0.5498140000000  0.4199880000000  0.4824790000000 1.0
C      1  0.5840170000000  0.5670080000000  0.4921370000000 1.0
C      1  0.4636480000000  0.4496060000000  0.5751130000000 1.0
C      1  0.4684050000000  0.4796280000000  0.4405810000000 1.0
END
