TITL C-951336-9012-341 -1.75983285543592e-07 125000 -792.613150527693 0 0 129 (C1) n - 1
REM
REM in /home/bkarasulu/work/CARBON/AIRSS/Generating-Clusters/EDIP-Nigel-Params/with-SteepDescent/Only-C1/SD-CG/HFTN-CG
REM
REM
REM
REM
REM
REM ./C.cell (11c1c37f851c82e70ff6c80c92926a4b)
REM
REM compiler GCC version 9.2.1 20190827 (Red Hat 9.2.1-1)
REM options -cpp -mtune=generic -march=x86-64 -g -O0 -fpre-include=/usr/include/finclude/math-vector-fortran.h
REM seed 1169552063 -425390931 2044243244 -889378778 1304406050 257868316 1271823573 -1586519886 1065993138 -1694468822 -104900638 -1774982375 -1046130007 -1578311032 561069004 -1468229337 -1394844958 -1186302560 -723311612 -1940088858 1864565674 1219242116 -341251220 1788411912 -1041230369 1555505717 1523823507 1919709441 1483261684 -2065874970 -568354641 1923109506 979745172
REM
CELL 1.54180   50.00000   50.00000   50.00000   90.00000   90.00000   90.00000
LATT -1
SFAC C  
C      1  0.4487500000000  0.5207450000000  0.5140070000000 1.0
C      1  0.5513070000000  0.5182320000000  0.4077470000000 1.0
C      1  0.4849170000000  0.4747970000000  0.4522340000000 1.0
C      1  0.5198770000000  0.5429550000000  0.5236850000000 1.0
C      1  0.5538790000000  0.5469540000000  0.4505360000000 1.0
C      1  0.4623020000000  0.4226770000000  0.5392030000000 1.0
C      1  0.4644660000000  0.4640750000000  0.4112840000000 1.0
C      1  0.5470930000000  0.5288610000000  0.5179880000000 1.0
C      1  0.4764530000000  0.5403240000000  0.4331830000000 1.0
C      1  0.5143390000000  0.5781970000000  0.4695140000000 1.0
C      1  0.5051650000000  0.4965250000000  0.5231750000000 1.0
C      1  0.5471560000000  0.5178800000000  0.5871200000000 1.0
C      1  0.4855630000000  0.4753200000000  0.5201820000000 1.0
C      1  0.5776950000000  0.4291630000000  0.5387510000000 1.0
C      1  0.5188830000000  0.4607030000000  0.5451620000000 1.0
C      1  0.5539060000000  0.4315870000000  0.5222590000000 1.0
C      1  0.5275490000000  0.4774730000000  0.4241640000000 1.0
C      1  0.5175180000000  0.5413670000000  0.5989520000000 1.0
C      1  0.4407220000000  0.5377320000000  0.6022070000000 1.0
C      1  0.4246900000000  0.4990060000000  0.5560180000000 1.0
C      1  0.4067840000000  0.4652820000000  0.4637760000000 1.0
C      1  0.5718740000000  0.4554790000000  0.4260430000000 1.0
C      1  0.4613200000000  0.4815770000000  0.5374430000000 1.0
C      1  0.4318770000000  0.4431710000000  0.5090570000000 1.0
C      1  0.4776850000000  0.4299710000000  0.5627860000000 1.0
C      1  0.4650800000000  0.4869890000000  0.4733340000000 1.0
C      1  0.5376800000000  0.4628330000000  0.5704950000000 1.0
C      1  0.4695280000000  0.5299190000000  0.5317010000000 1.0
C      1  0.4449460000000  0.4618050000000  0.5512130000000 1.0
C      1  0.5600730000000  0.5594970000000  0.4767600000000 1.0
C      1  0.4796960000000  0.4444470000000  0.4511300000000 1.0
C      1  0.5831430000000  0.5155890000000  0.5363920000000 1.0
C      1  0.5563160000000  0.4910150000000  0.4201130000000 1.0
C      1  0.5106900000000  0.4476930000000  0.4887320000000 1.0
C      1  0.4516400000000  0.5210490000000  0.6199210000000 1.0
C      1  0.4869410000000  0.4992410000000  0.5694140000000 1.0
C      1  0.4673530000000  0.5148390000000  0.4168130000000 1.0
C      1  0.5274060000000  0.4782270000000  0.5920360000000 1.0
C      1  0.4546310000000  0.5656110000000  0.5642000000000 1.0
C      1  0.5514820000000  0.4356190000000  0.4246190000000 1.0
C      1  0.4000330000000  0.4951160000000  0.5075430000000 1.0
C      1  0.4095170000000  0.5675960000000  0.5298170000000 1.0
C      1  0.5744220000000  0.5526660000000  0.5039000000000 1.0
C      1  0.4224930000000  0.5644770000000  0.4805710000000 1.0
C      1  0.4376480000000  0.4384650000000  0.5371640000000 1.0
C      1  0.5475920000000  0.5488270000000  0.5917260000000 1.0
C      1  0.4842120000000  0.4931690000000  0.5964420000000 1.0
C      1  0.5117790000000  0.4937650000000  0.5524700000000 1.0
C      1  0.4126150000000  0.5397890000000  0.5310740000000 1.0
C      1  0.5292570000000  0.4235400000000  0.4524340000000 1.0
C      1  0.5045450000000  0.4274500000000  0.5699310000000 1.0
C      1  0.4392650000000  0.4736520000000  0.4256490000000 1.0
C      1  0.5016790000000  0.5411960000000  0.4880220000000 1.0
C      1  0.5223420000000  0.5571830000000  0.4129510000000 1.0
C      1  0.5896240000000  0.5059080000000  0.4903700000000 1.0
C      1  0.4012880000000  0.5250930000000  0.5068130000000 1.0
C      1  0.5591640000000  0.4243520000000  0.4929860000000 1.0
C      1  0.4646860000000  0.5601380000000  0.5360460000000 1.0
C      1  0.4541720000000  0.5756120000000  0.5126530000000 1.0
C      1  0.5362000000000  0.5151750000000  0.3845950000000 1.0
C      1  0.5366960000000  0.5138950000000  0.5586400000000 1.0
C      1  0.4812660000000  0.4879810000000  0.4203660000000 1.0
C      1  0.5485820000000  0.4791650000000  0.5004000000000 1.0
C      1  0.5323640000000  0.4645690000000  0.4778360000000 1.0
C      1  0.5726960000000  0.4956140000000  0.4459480000000 1.0
C      1  0.5459840000000  0.5115700000000  0.4934710000000 1.0
C      1  0.5094060000000  0.5809840000000  0.4412330000000 1.0
C      1  0.5403630000000  0.5797750000000  0.4829400000000 1.0
C      1  0.5076400000000  0.5842060000000  0.5167790000000 1.0
C      1  0.5843120000000  0.4558910000000  0.5440100000000 1.0
C      1  0.4530950000000  0.4421600000000  0.4644270000000 1.0
C      1  0.4255940000000  0.5755450000000  0.5082000000000 1.0
C      1  0.4461560000000  0.5335560000000  0.4886320000000 1.0
C      1  0.5620600000000  0.5016740000000  0.5486020000000 1.0
C      1  0.5746840000000  0.5141120000000  0.4677390000000 1.0
C      1  0.5568840000000  0.5658590000000  0.5269740000000 1.0
C      1  0.4416230000000  0.5414790000000  0.5746580000000 1.0
C      1  0.5275990000000  0.4487660000000  0.4160750000000 1.0
C      1  0.5122920000000  0.5112800000000  0.4570070000000 1.0
C      1  0.5844660000000  0.4313650000000  0.4814920000000 1.0
C      1  0.5266300000000  0.5043280000000  0.6026990000000 1.0
C      1  0.5290580000000  0.5283280000000  0.4739720000000 1.0
C      1  0.4097730000000  0.4855780000000  0.5345430000000 1.0
C      1  0.5123940000000  0.5029290000000  0.3826320000000 1.0
C      1  0.4623620000000  0.5082500000000  0.5548350000000 1.0
C      1  0.4971930000000  0.4482850000000  0.5150710000000 1.0
C      1  0.5072490000000  0.4892900000000  0.4064280000000 1.0
C      1  0.5941270000000  0.4696070000000  0.5221110000000 1.0
C      1  0.4959930000000  0.5241830000000  0.5166940000000 1.0
C      1  0.4351150000000  0.5238000000000  0.4478530000000 1.0
C      1  0.4147080000000  0.5339270000000  0.4801840000000 1.0
C      1  0.5442380000000  0.4606040000000  0.5265440000000 1.0
C      1  0.4153830000000  0.4842780000000  0.4827300000000 1.0
C      1  0.5491680000000  0.4406420000000  0.4673740000000 1.0
C      1  0.5365340000000  0.5822170000000  0.5120400000000 1.0
C      1  0.4225280000000  0.5275410000000  0.5566030000000 1.0
C      1  0.4429450000000  0.4921010000000  0.5168540000000 1.0
C      1  0.4484060000000  0.5703450000000  0.4650000000000 1.0
C      1  0.5903180000000  0.5264440000000  0.5112920000000 1.0
C      1  0.4527090000000  0.4333890000000  0.4927710000000 1.0
C      1  0.5086810000000  0.4179270000000  0.5444230000000 1.0
C      1  0.4865130000000  0.5281140000000  0.4600020000000 1.0
C      1  0.4424750000000  0.4755020000000  0.4916370000000 1.0
C      1  0.4314220000000  0.4582160000000  0.4508550000000 1.0
C      1  0.4492420000000  0.5512630000000  0.4414980000000 1.0
C      1  0.4865060000000  0.4003450000000  0.5036290000000 1.0
C      1  0.4943650000000  0.5835400000000  0.4898760000000 1.0
C      1  0.5415450000000  0.5397830000000  0.4249230000000 1.0
C      1  0.5813810000000  0.4779860000000  0.4978190000000 1.0
C      1  0.5480820000000  0.5604110000000  0.5636390000000 1.0
C      1  0.5884880000000  0.4590720000000  0.4758230000000 1.0
C      1  0.5029950000000  0.4286620000000  0.4668970000000 1.0
C      1  0.4400700000000  0.5050610000000  0.4242450000000 1.0
C      1  0.4602710000000  0.5154810000000  0.4683080000000 1.0
C      1  0.5019820000000  0.5472360000000  0.5733370000000 1.0
C      1  0.5034400000000  0.4351890000000  0.4123500000000 1.0
C      1  0.4775210000000  0.4391490000000  0.4219210000000 1.0
C      1  0.4971810000000  0.5853260000000  0.5435490000000 1.0
C      1  0.4685190000000  0.5703520000000  0.4878230000000 1.0
C      1  0.4698190000000  0.5016910000000  0.6174040000000 1.0
C      1  0.5336460000000  0.4150080000000  0.5332850000000 1.0
C      1  0.5638450000000  0.4733720000000  0.5577030000000 1.0
C      1  0.4938400000000  0.4040030000000  0.4780070000000 1.0
C      1  0.5251370000000  0.5430390000000  0.5539070000000 1.0
C      1  0.5159010000000  0.4818560000000  0.4537850000000 1.0
C      1  0.4955860000000  0.5629110000000  0.4227800000000 1.0
C      1  0.5786050000000  0.4684210000000  0.4504100000000 1.0
C      1  0.4862930000000  0.5723460000000  0.5677640000000 1.0
C      1  0.4751490000000  0.4256340000000  0.5122340000000 1.0
END
