TITL C-951342-2639-323 2.44045639367563e-06 125000 -1000.36536361096 0 0 159 (C1) n - 1
REM
REM in /home/bkarasulu/work/CARBON/AIRSS/Generating-Clusters/EDIP-Nigel-Params/with-SteepDescent/Only-C1/SD-CG/HFTN-CG
REM
REM
REM
REM
REM
REM ./C.cell (11c1c37f851c82e70ff6c80c92926a4b)
REM
REM compiler GCC version 9.2.1 20190827 (Red Hat 9.2.1-1)
REM options -cpp -mtune=generic -march=x86-64 -g -O0 -fpre-include=/usr/include/finclude/math-vector-fortran.h
REM seed 830252958 1122164193 -928362261 850612854 1472348678 1834817721 -1602407889 1001968895 535239779 1290677031 850306737 -2012788218 973870271 -1527750157 -1036625298 -120750273 1943190584 1945139768 -968509498 -1902239654 1498183818 1451757605 -479847031 -2091338980 -735347592 -1364434682 -47667763 -336314400 293559915 -1924580410 -1902910956 1278496840 734966443
REM
CELL 1.54180   50.00000   50.00000   50.00000   90.00000   90.00000   90.00000
LATT -1
SFAC C  
C      1  0.4314140000000  0.5287000000000  0.5390950000000 1.0
C      1  0.4541180000000  0.5732690000000  0.5222910000000 1.0
C      1  0.5937220000000  0.4824620000000  0.4660930000000 1.0
C      1  0.5976060000000  0.4646740000000  0.4884740000000 1.0
C      1  0.5002130000000  0.5979820000000  0.5304110000000 1.0
C      1  0.5111790000000  0.5426580000000  0.3917010000000 1.0
C      1  0.4278550000000  0.5585060000000  0.5148690000000 1.0
C      1  0.5358180000000  0.4766630000000  0.5810410000000 1.0
C      1  0.4942560000000  0.5864700000000  0.5012560000000 1.0
C      1  0.3824290000000  0.4651240000000  0.5020620000000 1.0
C      1  0.6004030000000  0.4922040000000  0.5602880000000 1.0
C      1  0.5108300000000  0.5472190000000  0.6098530000000 1.0
C      1  0.5675060000000  0.5114160000000  0.4262330000000 1.0
C      1  0.4117610000000  0.4296460000000  0.4603400000000 1.0
C      1  0.5536610000000  0.5269760000000  0.4075200000000 1.0
C      1  0.4501760000000  0.5667450000000  0.5744990000000 1.0
C      1  0.4064870000000  0.5043660000000  0.4913350000000 1.0
C      1  0.4666550000000  0.5217080000000  0.4038640000000 1.0
C      1  0.4750700000000  0.4996610000000  0.6111420000000 1.0
C      1  0.4923460000000  0.4921140000000  0.5441890000000 1.0
C      1  0.4585570000000  0.5477280000000  0.4152240000000 1.0
C      1  0.5200360000000  0.5804260000000  0.5719110000000 1.0
C      1  0.5394110000000  0.5710100000000  0.4160450000000 1.0
C      1  0.5164080000000  0.4011970000000  0.5487620000000 1.0
C      1  0.4232330000000  0.4522550000000  0.5524440000000 1.0
C      1  0.5018970000000  0.4731740000000  0.3999810000000 1.0
C      1  0.5518970000000  0.5500180000000  0.4693850000000 1.0
C      1  0.5310640000000  0.4802220000000  0.4785860000000 1.0
C      1  0.4349500000000  0.4442560000000  0.5782560000000 1.0
C      1  0.4149410000000  0.4185130000000  0.4857540000000 1.0
C      1  0.5060920000000  0.4273160000000  0.5526320000000 1.0
C      1  0.4830580000000  0.5178450000000  0.5349090000000 1.0
C      1  0.4374830000000  0.5354130000000  0.4965390000000 1.0
C      1  0.4185440000000  0.5255290000000  0.4745440000000 1.0
C      1  0.5943530000000  0.5197760000000  0.4946160000000 1.0
C      1  0.4656970000000  0.4730280000000  0.6024830000000 1.0
C      1  0.4697990000000  0.5929290000000  0.4817770000000 1.0
C      1  0.5059680000000  0.5469210000000  0.4669190000000 1.0
C      1  0.4111360000000  0.4205560000000  0.5123430000000 1.0
C      1  0.4587010000000  0.4381880000000  0.5288150000000 1.0
C      1  0.5605380000000  0.5012340000000  0.4884070000000 1.0
C      1  0.4179400000000  0.5268940000000  0.5664380000000 1.0
C      1  0.4615160000000  0.5254570000000  0.6042470000000 1.0
C      1  0.4875550000000  0.4623890000000  0.4607260000000 1.0
C      1  0.5842490000000  0.4408960000000  0.4486630000000 1.0
C      1  0.4765240000000  0.4675670000000  0.4161940000000 1.0
C      1  0.5779230000000  0.4277110000000  0.5200990000000 1.0
C      1  0.5723970000000  0.5529630000000  0.5190750000000 1.0
C      1  0.4840700000000  0.4635710000000  0.4895770000000 1.0
C      1  0.5127780000000  0.4451110000000  0.5272240000000 1.0
C      1  0.4476440000000  0.5011050000000  0.3991960000000 1.0
C      1  0.4699670000000  0.4791030000000  0.5593070000000 1.0
C      1  0.4157510000000  0.5758660000000  0.4687130000000 1.0
C      1  0.5788120000000  0.5544460000000  0.4561190000000 1.0
C      1  0.4288330000000  0.4617630000000  0.4253290000000 1.0
C      1  0.5149330000000  0.5256720000000  0.4834340000000 1.0
C      1  0.5003190000000  0.5396740000000  0.5256090000000 1.0
C      1  0.4709820000000  0.4215280000000  0.5106130000000 1.0
C      1  0.4491320000000  0.4741180000000  0.4070120000000 1.0
C      1  0.5090340000000  0.4423160000000  0.4561700000000 1.0
C      1  0.5475260000000  0.4355310000000  0.4915340000000 1.0
C      1  0.5520900000000  0.5214190000000  0.5607430000000 1.0
C      1  0.5103080000000  0.5005800000000  0.4062930000000 1.0
C      1  0.4944490000000  0.4357300000000  0.5013770000000 1.0
C      1  0.4814230000000  0.5580790000000  0.5098130000000 1.0
C      1  0.5215040000000  0.5206050000000  0.6159450000000 1.0
C      1  0.4787740000000  0.5596160000000  0.4344470000000 1.0
C      1  0.5979030000000  0.5106060000000  0.4668840000000 1.0
C      1  0.5475620000000  0.5554690000000  0.5010650000000 1.0
C      1  0.4199750000000  0.5825300000000  0.4954790000000 1.0
C      1  0.4616150000000  0.4296440000000  0.4455770000000 1.0
C      1  0.4580610000000  0.4080140000000  0.4895470000000 1.0
C      1  0.4803910000000  0.4850840000000  0.4418120000000 1.0
C      1  0.5458240000000  0.4923650000000  0.5604460000000 1.0
C      1  0.4594030000000  0.5245520000000  0.5504690000000 1.0
C      1  0.4549230000000  0.5834310000000  0.5500040000000 1.0
C      1  0.4058870000000  0.4784320000000  0.4325430000000 1.0
C      1  0.5222940000000  0.4527170000000  0.4099440000000 1.0
C      1  0.4941220000000  0.5203170000000  0.3917090000000 1.0
C      1  0.4639040000000  0.5674060000000  0.4641890000000 1.0
C      1  0.4635480000000  0.5051340000000  0.4807210000000 1.0
C      1  0.4120970000000  0.4317550000000  0.5367730000000 1.0
C      1  0.4236640000000  0.5049010000000  0.5179820000000 1.0
C      1  0.5869810000000  0.4463720000000  0.5586720000000 1.0
C      1  0.5695410000000  0.5258890000000  0.5357360000000 1.0
C      1  0.4730110000000  0.4108490000000  0.4656530000000 1.0
C      1  0.5055990000000  0.4829470000000  0.4969180000000 1.0
C      1  0.5969460000000  0.5128330000000  0.5410870000000 1.0
C      1  0.5634190000000  0.4137490000000  0.5400570000000 1.0
C      1  0.5371980000000  0.4053870000000  0.5300100000000 1.0
C      1  0.4890350000000  0.4608950000000  0.5875300000000 1.0
C      1  0.4590630000000  0.4293540000000  0.5741630000000 1.0
C      1  0.4387310000000  0.4688610000000  0.5932580000000 1.0
C      1  0.5480150000000  0.5180300000000  0.4650420000000 1.0
C      1  0.5960010000000  0.5635670000000  0.4761950000000 1.0
C      1  0.4488700000000  0.4626880000000  0.5399770000000 1.0
C      1  0.4797940000000  0.5991310000000  0.5525900000000 1.0
C      1  0.5036840000000  0.4997300000000  0.6064640000000 1.0
C      1  0.5495920000000  0.5095030000000  0.5162490000000 1.0
C      1  0.5486300000000  0.4569770000000  0.4233820000000 1.0
C      1  0.5253740000000  0.5683010000000  0.4628530000000 1.0
C      1  0.3936250000000  0.4793660000000  0.4826650000000 1.0
C      1  0.5206940000000  0.5869830000000  0.4859600000000 1.0
C      1  0.3864460000000  0.4403590000000  0.4543480000000 1.0
C      1  0.5504870000000  0.5366840000000  0.5861010000000 1.0
C      1  0.5443390000000  0.5939800000000  0.5007110000000 1.0
C      1  0.5985720000000  0.4746340000000  0.5161160000000 1.0
C      1  0.5491150000000  0.5898150000000  0.5286590000000 1.0
C      1  0.4552530000000  0.5039040000000  0.5723470000000 1.0
C      1  0.4818230000000  0.5478310000000  0.6042880000000 1.0
C      1  0.5892140000000  0.4691600000000  0.4409360000000 1.0
C      1  0.5266720000000  0.5333330000000  0.5097480000000 1.0
C      1  0.5445900000000  0.4476770000000  0.5200210000000 1.0
C      1  0.5116680000000  0.4772340000000  0.5267920000000 1.0
C      1  0.4252380000000  0.4993850000000  0.5747160000000 1.0
C      1  0.5411360000000  0.4843880000000  0.5321610000000 1.0
C      1  0.4663490000000  0.5435890000000  0.4859090000000 1.0
C      1  0.4728860000000  0.5720610000000  0.5915350000000 1.0
C      1  0.5281370000000  0.4974010000000  0.4524660000000 1.0
C      1  0.4303730000000  0.5200130000000  0.4470120000000 1.0
C      1  0.5487930000000  0.5189960000000  0.6084230000000 1.0
C      1  0.5582920000000  0.4321630000000  0.4380490000000 1.0
C      1  0.5009650000000  0.4197400000000  0.4741160000000 1.0
C      1  0.6053200000000  0.5027450000000  0.5157700000000 1.0
C      1  0.5890660000000  0.4393690000000  0.4776270000000 1.0
C      1  0.3904100000000  0.4683060000000  0.4555150000000 1.0
C      1  0.4340620000000  0.5437650000000  0.5840090000000 1.0
C      1  0.4106260000000  0.5057320000000  0.4319800000000 1.0
C      1  0.5442160000000  0.4120370000000  0.4539210000000 1.0
C      1  0.5138340000000  0.4743530000000  0.5973690000000 1.0
C      1  0.5218930000000  0.5807520000000  0.4352220000000 1.0
C      1  0.4927500000000  0.5081000000000  0.4894420000000 1.0
C      1  0.5685230000000  0.4807070000000  0.4232070000000 1.0
C      1  0.4566730000000  0.5024330000000  0.4520310000000 1.0
C      1  0.4476000000000  0.5958890000000  0.5018010000000 1.0
C      1  0.5255730000000  0.4021680000000  0.4738190000000 1.0
C      1  0.4967810000000  0.5359030000000  0.4420370000000 1.0
C      1  0.4337750000000  0.4383880000000  0.4430960000000 1.0
C      1  0.5073420000000  0.4333680000000  0.4267200000000 1.0
C      1  0.4346260000000  0.5469990000000  0.4326880000000 1.0
C      1  0.5348010000000  0.4523970000000  0.4696550000000 1.0
C      1  0.5281370000000  0.5565500000000  0.5879430000000 1.0
C      1  0.5980090000000  0.4685470000000  0.5452940000000 1.0
C      1  0.5358970000000  0.3996150000000  0.5010330000000 1.0
C      1  0.4423760000000  0.4813170000000  0.5176820000000 1.0
C      1  0.5038310000000  0.5052580000000  0.4362360000000 1.0
C      1  0.4577110000000  0.4786810000000  0.4936810000000 1.0
C      1  0.5372880000000  0.5483380000000  0.4002780000000 1.0
C      1  0.4872540000000  0.4332040000000  0.5759620000000 1.0
C      1  0.5244410000000  0.5869670000000  0.5433340000000 1.0
C      1  0.5816620000000  0.4175520000000  0.4938930000000 1.0
C      1  0.5861330000000  0.5266990000000  0.4449130000000 1.0
C      1  0.4925440000000  0.5900330000000  0.5779140000000 1.0
C      1  0.4953310000000  0.5817480000000  0.4258540000000 1.0
C      1  0.5731190000000  0.5767960000000  0.5357600000000 1.0
C      1  0.4784310000000  0.4383190000000  0.4231610000000 1.0
C      1  0.5688070000000  0.4266420000000  0.5644650000000 1.0
C      1  0.5952800000000  0.5490450000000  0.4999730000000 1.0
C      1  0.4368540000000  0.5693580000000  0.4518700000000 1.0
END
