TITL C-950525-1983-404 -2.15865653573364e-06 125000 -414.290707885033 0 0 67 (C1) n - 1
REM
REM in /home/bkarasulu/work/CARBON/AIRSS/Generating-Clusters/EDIP-Nigel-Params/with-SteepDescent/Only-C1/SD-CG/HFTN-CG
REM
REM
REM
REM
REM
REM ./C.cell (11c1c37f851c82e70ff6c80c92926a4b)
REM
REM compiler GCC version 9.2.1 20190827 (Red Hat 9.2.1-1)
REM options -cpp -mtune=generic -march=x86-64 -g -O0 -fpre-include=/usr/include/finclude/math-vector-fortran.h
REM seed -1141460639 2122716953 -711974445 -195029141 989257405 511858165 -1668290768 -374131780 1675194048 -719348887 -1340671352 1433474597 703400248 -1078371706 -1300019068 970939852 -410536223 -1165977650 -673377921 2136196844 -943527563 -511369874 -830762985 -39528694 -2866225 -1650614706 -1785173807 1595704905 1405000640 1381580833 1622377387 -2134663754 -1742375953
REM
CELL 1.54180   50.00000   50.00000   50.00000   90.00000   90.00000   90.00000
LATT -1
SFAC C  
C      1  0.5630170000000  0.4587730000000  0.4626540000000 1.0
C      1  0.4769120000000  0.4553830000000  0.5378240000000 1.0
C      1  0.4394140000000  0.4676510000000  0.5111960000000 1.0
C      1  0.4342530000000  0.5247410000000  0.5408380000000 1.0
C      1  0.5183880000000  0.5052690000000  0.4949160000000 1.0
C      1  0.4824750000000  0.4453630000000  0.4744960000000 1.0
C      1  0.4364400000000  0.5152530000000  0.5130080000000 1.0
C      1  0.5099080000000  0.4569550000000  0.4390190000000 1.0
C      1  0.4889660000000  0.4977390000000  0.5068120000000 1.0
C      1  0.5425410000000  0.4987500000000  0.4446070000000 1.0
C      1  0.4161890000000  0.4928780000000  0.4785320000000 1.0
C      1  0.5162870000000  0.4847360000000  0.4503010000000 1.0
C      1  0.4660300000000  0.4455990000000  0.4492400000000 1.0
C      1  0.5245340000000  0.5667540000000  0.5101340000000 1.0
C      1  0.4416270000000  0.4446050000000  0.4921860000000 1.0
C      1  0.4778240000000  0.4715540000000  0.4329480000000 1.0
C      1  0.5187330000000  0.4799750000000  0.4791160000000 1.0
C      1  0.4512550000000  0.4878620000000  0.5587190000000 1.0
C      1  0.4402970000000  0.4740790000000  0.4425280000000 1.0
C      1  0.5127130000000  0.5267140000000  0.5837470000000 1.0
C      1  0.5835290000000  0.5209400000000  0.4900530000000 1.0
C      1  0.4893150000000  0.4733050000000  0.4849880000000 1.0
C      1  0.5142010000000  0.4373250000000  0.5114120000000 1.0
C      1  0.4957600000000  0.5594220000000  0.5529530000000 1.0
C      1  0.4622330000000  0.5048990000000  0.4696160000000 1.0
C      1  0.5840330000000  0.5011020000000  0.4701390000000 1.0
C      1  0.4844900000000  0.4356610000000  0.5173320000000 1.0
C      1  0.5260450000000  0.5301160000000  0.4798390000000 1.0
C      1  0.5705030000000  0.4845880000000  0.5193360000000 1.0
C      1  0.5509670000000  0.5295580000000  0.5227890000000 1.0
C      1  0.4952040000000  0.5482410000000  0.5787270000000 1.0
C      1  0.5659460000000  0.4854990000000  0.4557060000000 1.0
C      1  0.5433370000000  0.4593340000000  0.4839810000000 1.0
C      1  0.4743420000000  0.5612560000000  0.5081700000000 1.0
C      1  0.4629870000000  0.4251920000000  0.4996890000000 1.0
C      1  0.5552630000000  0.4622450000000  0.5118490000000 1.0
C      1  0.5400970000000  0.5276430000000  0.4518310000000 1.0
C      1  0.5697180000000  0.5454880000000  0.4810060000000 1.0
C      1  0.4562800000000  0.5487010000000  0.4911020000000 1.0
C      1  0.5651050000000  0.5426560000000  0.4532780000000 1.0
C      1  0.4915410000000  0.4819390000000  0.5359710000000 1.0
C      1  0.4992940000000  0.5662630000000  0.4940960000000 1.0
C      1  0.4376920000000  0.4478260000000  0.4613580000000 1.0
C      1  0.4363740000000  0.4970570000000  0.4596200000000 1.0
C      1  0.5270970000000  0.4341950000000  0.4839400000000 1.0
C      1  0.5737090000000  0.5123140000000  0.5167440000000 1.0
C      1  0.4794600000000  0.4991070000000  0.5572320000000 1.0
C      1  0.4483980000000  0.5481520000000  0.5469410000000 1.0
C      1  0.5444360000000  0.5460440000000  0.4985450000000 1.0
C      1  0.4221680000000  0.4904570000000  0.5057570000000 1.0
C      1  0.5431510000000  0.5426520000000  0.5479190000000 1.0
C      1  0.4288350000000  0.5052420000000  0.5603260000000 1.0
C      1  0.5221700000000  0.5401810000000  0.4320710000000 1.0
C      1  0.4491170000000  0.4644060000000  0.5390970000000 1.0
C      1  0.5385290000000  0.5305180000000  0.5728880000000 1.0
C      1  0.4719690000000  0.5589800000000  0.5368730000000 1.0
C      1  0.5020620000000  0.4999540000000  0.5771300000000 1.0
C      1  0.5074570000000  0.4352100000000  0.4611520000000 1.0
C      1  0.4869040000000  0.5252250000000  0.4308270000000 1.0
C      1  0.5217670000000  0.5608610000000  0.5392180000000 1.0
C      1  0.5236940000000  0.4824410000000  0.5705610000000 1.0
C      1  0.4619860000000  0.5202530000000  0.4964070000000 1.0
C      1  0.5197820000000  0.4772120000000  0.5433530000000 1.0
C      1  0.5013170000000  0.5450560000000  0.4738300000000 1.0
C      1  0.4842390000000  0.5009140000000  0.4478910000000 1.0
C      1  0.4974100000000  0.5491950000000  0.4447580000000 1.0
C      1  0.5322860000000  0.4545380000000  0.5288760000000 1.0
END
