TITL C-951345-2650-24 2.14419316322023e-05 125000 -153.073442089024 0 0 27 (C1) n - 1
REM
REM in /home/bkarasulu/work/CARBON/AIRSS/Generating-Clusters/EDIP-Nigel-Params/with-SteepDescent/Only-C1/SD-CG/HFTN-CG
REM
REM
REM
REM
REM
REM ./C.cell (11c1c37f851c82e70ff6c80c92926a4b)
REM
REM compiler GCC version 9.2.1 20190827 (Red Hat 9.2.1-1)
REM options -cpp -mtune=generic -march=x86-64 -g -O0 -fpre-include=/usr/include/finclude/math-vector-fortran.h
REM seed 1703174685 1114440404 777256607 -450324490 381470523 2133776093 -2132089640 -2140015556 111186864 1335013006 -1722071687 -1659472660 724466679 103604658 1386978904 1874363248 1527254134 -1593256358 1669153037 2138471659 646990088 724395261 -1785455445 -300675482 -245708418 -104684913 -1473613449 -2100444279 13115746 -629434809 -621810162 820640037 1041969666
REM
CELL 1.54180   50.00000   50.00000   50.00000   90.00000   90.00000   90.00000
LATT -1
SFAC C  
C      1  0.4647810000000  0.4978350000000  0.5247030000000 1.0
C      1  0.4325300000000  0.4804000000000  0.4972190000000 1.0
C      1  0.5142960000000  0.4660710000000  0.5388400000000 1.0
C      1  0.5368950000000  0.5087730000000  0.5413080000000 1.0
C      1  0.4786340000000  0.5733270000000  0.5306560000000 1.0
C      1  0.5140460000000  0.4584300000000  0.4512390000000 1.0
C      1  0.4602550000000  0.4846890000000  0.4997080000000 1.0
C      1  0.4906600000000  0.4961750000000  0.5368630000000 1.0
C      1  0.5152200000000  0.5234440000000  0.4861690000000 1.0
C      1  0.5264930000000  0.4750480000000  0.4724860000000 1.0
C      1  0.4934400000000  0.4669220000000  0.4347120000000 1.0
C      1  0.5076940000000  0.5358410000000  0.5130510000000 1.0
C      1  0.5619380000000  0.5130250000000  0.4662240000000 1.0
C      1  0.4829760000000  0.5511760000000  0.5134660000000 1.0
C      1  0.4410840000000  0.4954780000000  0.5398330000000 1.0
C      1  0.4808310000000  0.5779100000000  0.5041750000000 1.0
C      1  0.4789170000000  0.4865730000000  0.4778260000000 1.0
C      1  0.5327730000000  0.4530710000000  0.5210370000000 1.0
C      1  0.5344870000000  0.4583310000000  0.4941390000000 1.0
C      1  0.5495500000000  0.4893190000000  0.4620140000000 1.0
C      1  0.4776680000000  0.4663280000000  0.4575340000000 1.0
C      1  0.5106540000000  0.5171030000000  0.5357530000000 1.0
C      1  0.4221130000000  0.4862680000000  0.5220800000000 1.0
C      1  0.5064290000000  0.4944530000000  0.4835100000000 1.0
C      1  0.5374150000000  0.4815530000000  0.5461400000000 1.0
C      1  0.5441280000000  0.5242630000000  0.4832500000000 1.0
C      1  0.5040920000000  0.5381960000000  0.4660650000000 1.0
END
