TITL C-951342-2639-398 -2.65921942386878e-06 125000 -360.19326153881 0 0 59 (C1) n - 1
REM
REM in /home/bkarasulu/work/CARBON/AIRSS/Generating-Clusters/EDIP-Nigel-Params/with-SteepDescent/Only-C1/SD-CG/HFTN-CG
REM
REM
REM
REM
REM
REM ./C.cell (11c1c37f851c82e70ff6c80c92926a4b)
REM
REM compiler GCC version 9.2.1 20190827 (Red Hat 9.2.1-1)
REM options -cpp -mtune=generic -march=x86-64 -g -O0 -fpre-include=/usr/include/finclude/math-vector-fortran.h
REM seed 1387915889 555367566 1717205048 335752172 -203429873 -1221697461 2039670690 -1854949014 -1846918165 -675889041 -1610953487 1944954049 -138774585 -1076292463 -2126576192 613447166 -895815246 644490344 298187132 2003736914 814059105 -2099650348 -1519282130 -449216892 1605856896 -818235443 144753738 -705259636 15252711 -1679310603 1666624381 893733712 -1987339602
REM
CELL 1.54180   50.00000   50.00000   50.00000   90.00000   90.00000   90.00000
LATT -1
SFAC C  
C      1  0.5478350000000  0.4518600000000  0.5335580000000 1.0
C      1  0.4517030000000  0.4533120000000  0.4536140000000 1.0
C      1  0.4680630000000  0.4315460000000  0.4913520000000 1.0
C      1  0.5191630000000  0.4569790000000  0.4458990000000 1.0
C      1  0.4399490000000  0.4799210000000  0.4506370000000 1.0
C      1  0.4678570000000  0.5474940000000  0.4647130000000 1.0
C      1  0.4985900000000  0.4464200000000  0.5229500000000 1.0
C      1  0.4957690000000  0.4693610000000  0.4352890000000 1.0
C      1  0.5554510000000  0.5183660000000  0.4530620000000 1.0
C      1  0.4557340000000  0.5228820000000  0.4695150000000 1.0
C      1  0.4880910000000  0.4911290000000  0.4533860000000 1.0
C      1  0.5079920000000  0.5280540000000  0.5576760000000 1.0
C      1  0.5315920000000  0.4587880000000  0.4908720000000 1.0
C      1  0.5157590000000  0.5655130000000  0.4745970000000 1.0
C      1  0.4856660000000  0.4940470000000  0.5757610000000 1.0
C      1  0.4592570000000  0.5137880000000  0.4984170000000 1.0
C      1  0.5073050000000  0.5141570000000  0.4486630000000 1.0
C      1  0.5026620000000  0.4569550000000  0.5492870000000 1.0
C      1  0.5251170000000  0.5601250000000  0.5231650000000 1.0
C      1  0.5123220000000  0.5389190000000  0.4358740000000 1.0
C      1  0.5144980000000  0.4430000000000  0.4708810000000 1.0
C      1  0.5593860000000  0.4772370000000  0.4725010000000 1.0
C      1  0.5226730000000  0.5203070000000  0.4950930000000 1.0
C      1  0.5566830000000  0.5475910000000  0.4573760000000 1.0
C      1  0.4641470000000  0.5149600000000  0.5695890000000 1.0
C      1  0.4878020000000  0.4827590000000  0.5476200000000 1.0
C      1  0.5454130000000  0.5070390000000  0.5113860000000 1.0
C      1  0.4880130000000  0.5634480000000  0.4722710000000 1.0
C      1  0.5411020000000  0.4748870000000  0.4506400000000 1.0
C      1  0.4981630000000  0.5682790000000  0.5257250000000 1.0
C      1  0.5595720000000  0.5475220000000  0.4875500000000 1.0
C      1  0.4603100000000  0.5016310000000  0.4491090000000 1.0
C      1  0.5350110000000  0.4929220000000  0.5605670000000 1.0
C      1  0.4796800000000  0.5472120000000  0.5294740000000 1.0
C      1  0.4591330000000  0.4834010000000  0.5034850000000 1.0
C      1  0.4870850000000  0.5231690000000  0.5118960000000 1.0
C      1  0.4422010000000  0.4425950000000  0.4798670000000 1.0
C      1  0.5306500000000  0.5497130000000  0.4956530000000 1.0
C      1  0.5312430000000  0.4636690000000  0.5529220000000 1.0
C      1  0.4730040000000  0.4358560000000  0.5183850000000 1.0
C      1  0.5053060000000  0.5016980000000  0.5290430000000 1.0
C      1  0.5730710000000  0.5032160000000  0.4715880000000 1.0
C      1  0.4845540000000  0.4501810000000  0.4730790000000 1.0
C      1  0.4217990000000  0.4841750000000  0.4725000000000 1.0
C      1  0.4267730000000  0.5188910000000  0.5365320000000 1.0
C      1  0.4607350000000  0.4815420000000  0.5342900000000 1.0
C      1  0.5289390000000  0.5580380000000  0.4494780000000 1.0
C      1  0.5687000000000  0.5195120000000  0.4963270000000 1.0
C      1  0.4856320000000  0.4769120000000  0.4873710000000 1.0
C      1  0.5130460000000  0.5062870000000  0.5779490000000 1.0
C      1  0.5080860000000  0.4721170000000  0.5077760000000 1.0
C      1  0.4344900000000  0.4687290000000  0.4929460000000 1.0
C      1  0.4454930000000  0.5021730000000  0.5495400000000 1.0
C      1  0.5323780000000  0.5414050000000  0.5455180000000 1.0
C      1  0.4372030000000  0.5250760000000  0.5126290000000 1.0
C      1  0.5461490000000  0.5142050000000  0.5401140000000 1.0
C      1  0.4801870000000  0.5393970000000  0.5585880000000 1.0
C      1  0.5290420000000  0.5076590000000  0.4659080000000 1.0
C      1  0.5467720000000  0.4419720000000  0.5085460000000 1.0
END
