TITL C-950530-3293-529 -1.02138204394251e-06 125000 -376.61032408309 0 0 62 (C1) n - 1
REM
REM in /home/bkarasulu/work/CARBON/AIRSS/Generating-Clusters/EDIP-Nigel-Params/with-SteepDescent/Only-C1/SD-CG/HFTN-CG
REM
REM
REM
REM
REM
REM ./C.cell (11c1c37f851c82e70ff6c80c92926a4b)
REM
REM compiler GCC version 9.2.1 20190827 (Red Hat 9.2.1-1)
REM options -cpp -mtune=generic -march=x86-64 -g -O0 -fpre-include=/usr/include/finclude/math-vector-fortran.h
REM seed 1037296129 261146205 -1961022613 -864206970 -686753867 42251243 1862492612 -220938983 543285645 495340442 157422009 1352951112 -451780165 -897617169 636548410 -1874259504 186867720 1389866645 -465695387 -1694405357 1426245765 -617990097 -403220905 -1004352598 232360854 -919005357 1479399280 1578727967 -1186326155 -2002592226 911085795 1280373592 1542779616
REM
CELL 1.54180   50.00000   50.00000   50.00000   90.00000   90.00000   90.00000
LATT -1
SFAC C  
C      1  0.5409960000000  0.4742290000000  0.5540130000000 1.0
C      1  0.4698130000000  0.5551220000000  0.4777040000000 1.0
C      1  0.4774190000000  0.4728680000000  0.5088810000000 1.0
C      1  0.4386270000000  0.5244800000000  0.4573730000000 1.0
C      1  0.5303040000000  0.4579940000000  0.4469820000000 1.0
C      1  0.5055520000000  0.5281570000000  0.4171880000000 1.0
C      1  0.5365430000000  0.4689430000000  0.5155990000000 1.0
C      1  0.5669910000000  0.5044740000000  0.5198780000000 1.0
C      1  0.5615160000000  0.4575240000000  0.5044570000000 1.0
C      1  0.5726500000000  0.5205450000000  0.4673030000000 1.0
C      1  0.4657150000000  0.5532540000000  0.4285270000000 1.0
C      1  0.4659930000000  0.4543750000000  0.5530210000000 1.0
C      1  0.4906070000000  0.4966110000000  0.4655870000000 1.0
C      1  0.5525890000000  0.5537610000000  0.4981400000000 1.0
C      1  0.5370780000000  0.4997630000000  0.5151160000000 1.0
C      1  0.5677470000000  0.4928100000000  0.4696420000000 1.0
C      1  0.4756460000000  0.5352600000000  0.5722230000000 1.0
C      1  0.4593840000000  0.5313900000000  0.5497410000000 1.0
C      1  0.4855380000000  0.4857690000000  0.4370430000000 1.0
C      1  0.4917240000000  0.4464150000000  0.5169510000000 1.0
C      1  0.4418770000000  0.4966310000000  0.4611470000000 1.0
C      1  0.4996340000000  0.5572270000000  0.4821790000000 1.0
C      1  0.4556090000000  0.4792750000000  0.4413840000000 1.0
C      1  0.4829870000000  0.5167190000000  0.4975590000000 1.0
C      1  0.5336200000000  0.5654950000000  0.5159010000000 1.0
C      1  0.4488560000000  0.4462870000000  0.5290350000000 1.0
C      1  0.4948360000000  0.4482830000000  0.5468410000000 1.0
C      1  0.5098700000000  0.5765120000000  0.5015290000000 1.0
C      1  0.4598220000000  0.5034310000000  0.5394260000000 1.0
C      1  0.5461590000000  0.5039240000000  0.5637920000000 1.0
C      1  0.5700700000000  0.4993680000000  0.5477700000000 1.0
C      1  0.5166080000000  0.4638430000000  0.4927420000000 1.0
C      1  0.4664990000000  0.4295280000000  0.5105250000000 1.0
C      1  0.5187440000000  0.4905370000000  0.4741560000000 1.0
C      1  0.5205460000000  0.5225700000000  0.5547670000000 1.0
C      1  0.4910180000000  0.4894480000000  0.5741540000000 1.0
C      1  0.4759080000000  0.4754940000000  0.4802700000000 1.0
C      1  0.5101540000000  0.4707430000000  0.5590510000000 1.0
C      1  0.5046120000000  0.4635070000000  0.4355020000000 1.0
C      1  0.4648950000000  0.5497460000000  0.5277990000000 1.0
C      1  0.4581630000000  0.4318740000000  0.4836570000000 1.0
C      1  0.5066910000000  0.5324470000000  0.4970930000000 1.0
C      1  0.4376670000000  0.4972430000000  0.5195360000000 1.0
C      1  0.4909160000000  0.5634060000000  0.5318050000000 1.0
C      1  0.5127960000000  0.5012760000000  0.5346430000000 1.0
C      1  0.4611290000000  0.5366370000000  0.5000800000000 1.0
C      1  0.4385850000000  0.5154930000000  0.4948160000000 1.0
C      1  0.5746970000000  0.4832740000000  0.4978720000000 1.0
C      1  0.4980550000000  0.5184140000000  0.5742960000000 1.0
C      1  0.4844210000000  0.4994480000000  0.5215560000000 1.0
C      1  0.4827710000000  0.5423020000000  0.4098510000000 1.0
C      1  0.4392190000000  0.4692300000000  0.5136010000000 1.0
C      1  0.5507630000000  0.5323860000000  0.4801010000000 1.0
C      1  0.5563360000000  0.4399780000000  0.4829290000000 1.0
C      1  0.5476870000000  0.4816350000000  0.4504500000000 1.0
C      1  0.5290360000000  0.5143910000000  0.4899180000000 1.0
C      1  0.4898430000000  0.5054300000000  0.4150570000000 1.0
C      1  0.5171600000000  0.5500170000000  0.5363160000000 1.0
C      1  0.5300300000000  0.4445460000000  0.4736470000000 1.0
C      1  0.4639860000000  0.4833720000000  0.5622570000000 1.0
C      1  0.4608340000000  0.5420880000000  0.4534200000000 1.0
C      1  0.4644600000000  0.4528030000000  0.4661990000000 1.0
END
