TITL C-951339-9237-236 -1.80730065069468e-06 125000 -706.2038990514 0 0 115 (C1) n - 1
REM
REM in /home/bkarasulu/work/CARBON/AIRSS/Generating-Clusters/EDIP-Nigel-Params/with-SteepDescent/Only-C1/SD-CG/HFTN-CG
REM
REM
REM
REM
REM
REM ./C.cell (11c1c37f851c82e70ff6c80c92926a4b)
REM
REM compiler GCC version 9.2.1 20190827 (Red Hat 9.2.1-1)
REM options -cpp -mtune=generic -march=x86-64 -g -O0 -fpre-include=/usr/include/finclude/math-vector-fortran.h
REM seed -1389095171 -1540759386 -1102046241 -1394124850 -1632889509 1656857538 -699488407 -653246087 -1022282515 826427659 248588740 1229984973 -1694650438 1736112546 1554935279 -535744004 -1874063988 1957979840 1815088690 582562919 -1110213229 488399494 557198860 1811406127 1567747956 -2068949340 -986956371 1919658012 -1342260713 -1480529758 2056133389 -308964849 2077132822
REM
CELL 1.54180   50.00000   50.00000   50.00000   90.00000   90.00000   90.00000
LATT -1
SFAC C  
C      1  0.4821690000000  0.5381370000000  0.4895010000000 1.0
C      1  0.4810980000000  0.4564830000000  0.5294800000000 1.0
C      1  0.5418840000000  0.4599200000000  0.5796300000000 1.0
C      1  0.4359110000000  0.5495540000000  0.4679170000000 1.0
C      1  0.5268280000000  0.5819930000000  0.4610180000000 1.0
C      1  0.5451050000000  0.4371770000000  0.4534460000000 1.0
C      1  0.4578790000000  0.4980340000000  0.4225120000000 1.0
C      1  0.5295770000000  0.5953620000000  0.5134660000000 1.0
C      1  0.4657850000000  0.5208180000000  0.4597470000000 1.0
C      1  0.4541270000000  0.5697410000000  0.4761900000000 1.0
C      1  0.3987480000000  0.5165150000000  0.5146500000000 1.0
C      1  0.5439100000000  0.5085620000000  0.5773760000000 1.0
C      1  0.5389270000000  0.4809930000000  0.5216390000000 1.0
C      1  0.5486840000000  0.5511950000000  0.5578350000000 1.0
C      1  0.5373860000000  0.5152390000000  0.5342630000000 1.0
C      1  0.5080330000000  0.5535210000000  0.4886160000000 1.0
C      1  0.5513210000000  0.5763000000000  0.4748130000000 1.0
C      1  0.4853340000000  0.4588530000000  0.4364800000000 1.0
C      1  0.5069560000000  0.5458080000000  0.4346130000000 1.0
C      1  0.4322990000000  0.4713210000000  0.5561530000000 1.0
C      1  0.4840320000000  0.4187850000000  0.4952500000000 1.0
C      1  0.5218520000000  0.4433670000000  0.5660820000000 1.0
C      1  0.5187110000000  0.4164480000000  0.5228330000000 1.0
C      1  0.5095360000000  0.4598690000000  0.4794120000000 1.0
C      1  0.4580590000000  0.4406340000000  0.4671290000000 1.0
C      1  0.5672800000000  0.5533790000000  0.4620690000000 1.0
C      1  0.5388080000000  0.4194380000000  0.4997610000000 1.0
C      1  0.5836830000000  0.4850490000000  0.5613070000000 1.0
C      1  0.4784170000000  0.5954640000000  0.5433000000000 1.0
C      1  0.4379900000000  0.4404970000000  0.5134290000000 1.0
C      1  0.5617330000000  0.4606140000000  0.5226190000000 1.0
C      1  0.5730750000000  0.5586720000000  0.4337580000000 1.0
C      1  0.5304990000000  0.4851920000000  0.5862680000000 1.0
C      1  0.5545830000000  0.5449330000000  0.4181830000000 1.0
C      1  0.5116200000000  0.4671640000000  0.4015570000000 1.0
C      1  0.4452950000000  0.4479770000000  0.5648820000000 1.0
C      1  0.4119560000000  0.4875140000000  0.4830870000000 1.0
C      1  0.4935860000000  0.4430450000000  0.5748880000000 1.0
C      1  0.4618470000000  0.4772040000000  0.4423550000000 1.0
C      1  0.4211050000000  0.5473870000000  0.5223300000000 1.0
C      1  0.5084950000000  0.5264450000000  0.5373340000000 1.0
C      1  0.4647120000000  0.4947010000000  0.4830830000000 1.0
C      1  0.4236180000000  0.5288410000000  0.4525760000000 1.0
C      1  0.5030350000000  0.5714300000000  0.4487520000000 1.0
C      1  0.5835770000000  0.4432880000000  0.4828190000000 1.0
C      1  0.4596160000000  0.5216260000000  0.5301120000000 1.0
C      1  0.4783740000000  0.5921630000000  0.5151770000000 1.0
C      1  0.5795620000000  0.4918860000000  0.4557990000000 1.0
C      1  0.5690360000000  0.5087470000000  0.5639350000000 1.0
C      1  0.5149690000000  0.5054550000000  0.4835270000000 1.0
C      1  0.4984060000000  0.4177810000000  0.4692560000000 1.0
C      1  0.5340430000000  0.4526670000000  0.4093050000000 1.0
C      1  0.4696760000000  0.5274390000000  0.5783580000000 1.0
C      1  0.4494970000000  0.5314110000000  0.5569840000000 1.0
C      1  0.5122830000000  0.4944930000000  0.4110240000000 1.0
C      1  0.5397430000000  0.5075990000000  0.4199640000000 1.0
C      1  0.5761900000000  0.5169220000000  0.4968140000000 1.0
C      1  0.4630270000000  0.4984680000000  0.5849030000000 1.0
C      1  0.5549040000000  0.4306750000000  0.5254000000000 1.0
C      1  0.4965380000000  0.5536870000000  0.5306210000000 1.0
C      1  0.5563480000000  0.4863570000000  0.4361500000000 1.0
C      1  0.5878730000000  0.5339420000000  0.4745730000000 1.0
C      1  0.4083350000000  0.5092180000000  0.4656900000000 1.0
C      1  0.4351040000000  0.4936630000000  0.5744420000000 1.0
C      1  0.4023200000000  0.4879120000000  0.5111090000000 1.0
C      1  0.4176030000000  0.4752640000000  0.5318780000000 1.0
C      1  0.4889930000000  0.5610570000000  0.5788720000000 1.0
C      1  0.4852720000000  0.5091470000000  0.4143980000000 1.0
C      1  0.5347240000000  0.5337900000000  0.4345760000000 1.0
C      1  0.4565600000000  0.5727600000000  0.5060320000000 1.0
C      1  0.4683480000000  0.4156890000000  0.5412230000000 1.0
C      1  0.4444550000000  0.5010560000000  0.5095900000000 1.0
C      1  0.5504180000000  0.5793050000000  0.5041690000000 1.0
C      1  0.4684100000000  0.4319090000000  0.5641690000000 1.0
C      1  0.4741820000000  0.4607400000000  0.4858220000000 1.0
C      1  0.5250360000000  0.4324940000000  0.4754460000000 1.0
C      1  0.4398450000000  0.5194530000000  0.4306830000000 1.0
C      1  0.4532840000000  0.4162130000000  0.5175540000000 1.0
C      1  0.5105920000000  0.4708810000000  0.4501820000000 1.0
C      1  0.5098250000000  0.5006560000000  0.4548840000000 1.0
C      1  0.4798620000000  0.4311810000000  0.4496000000000 1.0
C      1  0.5336210000000  0.4238370000000  0.5485680000000 1.0
C      1  0.5456030000000  0.5343030000000  0.4614050000000 1.0
C      1  0.4913410000000  0.5205590000000  0.4414340000000 1.0
C      1  0.5787510000000  0.4654230000000  0.4990900000000 1.0
C      1  0.4875850000000  0.4546200000000  0.4073970000000 1.0
C      1  0.5226220000000  0.4830040000000  0.5484970000000 1.0
C      1  0.4780980000000  0.5729510000000  0.4620490000000 1.0
C      1  0.4923290000000  0.4805950000000  0.5450830000000 1.0
C      1  0.5059920000000  0.5813250000000  0.5047890000000 1.0
C      1  0.4907170000000  0.5721350000000  0.5527660000000 1.0
C      1  0.4701690000000  0.5472700000000  0.5150390000000 1.0
C      1  0.4406660000000  0.4592180000000  0.4523380000000 1.0
C      1  0.5303250000000  0.5319370000000  0.4865850000000 1.0
C      1  0.4886340000000  0.5091260000000  0.4963890000000 1.0
C      1  0.4308470000000  0.5731450000000  0.5187600000000 1.0
C      1  0.4191580000000  0.4617190000000  0.4725030000000 1.0
C      1  0.5667470000000  0.4642960000000  0.5666800000000 1.0
C      1  0.5056760000000  0.5393860000000  0.5856840000000 1.0
C      1  0.4877400000000  0.5072090000000  0.5293750000000 1.0
C      1  0.4818640000000  0.4794910000000  0.5732650000000 1.0
C      1  0.5513240000000  0.5299130000000  0.5094190000000 1.0
C      1  0.5714280000000  0.4336000000000  0.4609760000000 1.0
C      1  0.5316330000000  0.5341620000000  0.5741720000000 1.0
C      1  0.5593030000000  0.5563410000000  0.5214070000000 1.0
C      1  0.5947290000000  0.5159800000000  0.4534270000000 1.0
C      1  0.5378780000000  0.4612870000000  0.4369890000000 1.0
C      1  0.4207680000000  0.4409830000000  0.4913680000000 1.0
C      1  0.4253530000000  0.5186260000000  0.5648620000000 1.0
C      1  0.4243250000000  0.5253860000000  0.5034690000000 1.0
C      1  0.5715300000000  0.5347990000000  0.5515400000000 1.0
C      1  0.4973960000000  0.4360690000000  0.5146250000000 1.0
C      1  0.4569080000000  0.4642200000000  0.5135150000000 1.0
C      1  0.5245640000000  0.4805540000000  0.4953180000000 1.0
C      1  0.5720600000000  0.4899610000000  0.4845930000000 1.0
END
