TITL C-951348-1603-526 -1.81884662297838e-06 125000 -1231.31370935851 0 0 194 (C1) n - 1
REM
REM in /home/bkarasulu/work/CARBON/AIRSS/Generating-Clusters/EDIP-Nigel-Params/with-SteepDescent/Only-C1/SD-CG/HFTN-CG
REM
REM
REM
REM
REM
REM ./C.cell (11c1c37f851c82e70ff6c80c92926a4b)
REM
REM compiler GCC version 9.2.1 20190827 (Red Hat 9.2.1-1)
REM options -cpp -mtune=generic -march=x86-64 -g -O0 -fpre-include=/usr/include/finclude/math-vector-fortran.h
REM seed -88181220 -250995036 -162869103 -393757287 -1710640645 1054222160 -983407872 480009830 1702211175 2059660056 99134251 -395951699 -1282323156 -1597713113 518846789 1961688538 -477771206 -1993787512 1831360820 -679408824 -44965420 1212671358 -853062536 602888683 -1565593739 -869765236 1478182958 -2012563783 -150766412 -309826503 918356833 -1310750119 1606511756
REM
CELL 1.54180   50.00000   50.00000   50.00000   90.00000   90.00000   90.00000
LATT -1
SFAC C  
C      1  0.5220560000000  0.4571110000000  0.5185360000000 1.0
C      1  0.5236670000000  0.5601580000000  0.5223140000000 1.0
C      1  0.4252480000000  0.4844460000000  0.4455740000000 1.0
C      1  0.5185230000000  0.5112760000000  0.4845860000000 1.0
C      1  0.5406050000000  0.4656600000000  0.5428900000000 1.0
C      1  0.4940090000000  0.5990520000000  0.5246340000000 1.0
C      1  0.5521460000000  0.5482790000000  0.4133570000000 1.0
C      1  0.4722610000000  0.5065410000000  0.4928660000000 1.0
C      1  0.6115010000000  0.5392960000000  0.5282420000000 1.0
C      1  0.6011480000000  0.4681520000000  0.5391890000000 1.0
C      1  0.5597940000000  0.5882910000000  0.4686210000000 1.0
C      1  0.5744500000000  0.4134700000000  0.4775070000000 1.0
C      1  0.5652110000000  0.5906220000000  0.4973630000000 1.0
C      1  0.4455710000000  0.5489590000000  0.5666530000000 1.0
C      1  0.4727550000000  0.5616910000000  0.4115470000000 1.0
C      1  0.5931580000000  0.4694010000000  0.4318310000000 1.0
C      1  0.5169830000000  0.6008430000000  0.5064610000000 1.0
C      1  0.5188420000000  0.4210330000000  0.5695670000000 1.0
C      1  0.5407870000000  0.5276320000000  0.4727140000000 1.0
C      1  0.4479700000000  0.4061750000000  0.5372880000000 1.0
C      1  0.4687480000000  0.4474550000000  0.5960060000000 1.0
C      1  0.5786540000000  0.5707450000000  0.4541930000000 1.0
C      1  0.4229900000000  0.5844300000000  0.5197290000000 1.0
C      1  0.6124210000000  0.5362950000000  0.4751960000000 1.0
C      1  0.4722080000000  0.3930440000000  0.4953930000000 1.0
C      1  0.6100590000000  0.5234910000000  0.5024640000000 1.0
C      1  0.5564420000000  0.4395700000000  0.5448700000000 1.0
C      1  0.6093480000000  0.5165940000000  0.5492770000000 1.0
C      1  0.5213910000000  0.5705320000000  0.4440410000000 1.0
C      1  0.5332420000000  0.5956340000000  0.4574450000000 1.0
C      1  0.4987480000000  0.4329160000000  0.4665530000000 1.0
C      1  0.4911400000000  0.4548040000000  0.6152990000000 1.0
C      1  0.5867930000000  0.5137500000000  0.5729860000000 1.0
C      1  0.5175100000000  0.4277600000000  0.5210820000000 1.0
C      1  0.4419100000000  0.3936430000000  0.4927590000000 1.0
C      1  0.5027090000000  0.4881790000000  0.4454460000000 1.0
C      1  0.4677330000000  0.4943540000000  0.4030310000000 1.0
C      1  0.4287850000000  0.4490500000000  0.5537520000000 1.0
C      1  0.5561420000000  0.4834560000000  0.5245190000000 1.0
C      1  0.4339720000000  0.4141430000000  0.4734630000000 1.0
C      1  0.4118590000000  0.4790810000000  0.4036600000000 1.0
C      1  0.4463040000000  0.5133920000000  0.4092110000000 1.0
C      1  0.4675710000000  0.5877240000000  0.5160590000000 1.0
C      1  0.4058230000000  0.5176260000000  0.4780770000000 1.0
C      1  0.4131630000000  0.5156930000000  0.5824300000000 1.0
C      1  0.4583080000000  0.4501740000000  0.4647040000000 1.0
C      1  0.4437460000000  0.4601830000000  0.5061750000000 1.0
C      1  0.5102630000000  0.4876530000000  0.3786950000000 1.0
C      1  0.4595450000000  0.4915100000000  0.6152780000000 1.0
C      1  0.6118250000000  0.5186080000000  0.4532040000000 1.0
C      1  0.4431870000000  0.4230500000000  0.5606650000000 1.0
C      1  0.4263480000000  0.6051980000000  0.5008910000000 1.0
C      1  0.4251070000000  0.5528130000000  0.4254480000000 1.0
C      1  0.4499670000000  0.4700980000000  0.5950950000000 1.0
C      1  0.5541150000000  0.4088480000000  0.4577530000000 1.0
C      1  0.5110090000000  0.4960160000000  0.6104560000000 1.0
C      1  0.4241760000000  0.4364130000000  0.4927340000000 1.0
C      1  0.4778860000000  0.4496920000000  0.5474960000000 1.0
C      1  0.5085030000000  0.4627300000000  0.3938300000000 1.0
C      1  0.4167950000000  0.5317440000000  0.5467320000000 1.0
C      1  0.5132930000000  0.5245950000000  0.6085470000000 1.0
C      1  0.4536850000000  0.5951510000000  0.5642110000000 1.0
C      1  0.5062270000000  0.5602020000000  0.4946800000000 1.0
C      1  0.4539480000000  0.6049830000000  0.4959480000000 1.0
C      1  0.5341360000000  0.4190130000000  0.5453380000000 1.0
C      1  0.4139800000000  0.4575470000000  0.4357120000000 1.0
C      1  0.4841730000000  0.4232120000000  0.4102260000000 1.0
C      1  0.5431000000000  0.5924290000000  0.5160750000000 1.0
C      1  0.4748880000000  0.4041390000000  0.5247690000000 1.0
C      1  0.5027400000000  0.5164560000000  0.4378520000000 1.0
C      1  0.5772680000000  0.4491270000000  0.4459610000000 1.0
C      1  0.4596720000000  0.5718550000000  0.5796730000000 1.0
C      1  0.5811130000000  0.5131760000000  0.5028100000000 1.0
C      1  0.4883430000000  0.4465800000000  0.4405490000000 1.0
C      1  0.5119340000000  0.4830170000000  0.4737410000000 1.0
C      1  0.4437370000000  0.5155240000000  0.4854280000000 1.0
C      1  0.4318100000000  0.4585540000000  0.4014410000000 1.0
C      1  0.5158070000000  0.5627660000000  0.5806280000000 1.0
C      1  0.4660500000000  0.5903050000000  0.4232440000000 1.0
C      1  0.4043920000000  0.4445180000000  0.5349020000000 1.0
C      1  0.4041080000000  0.4192850000000  0.5198440000000 1.0
C      1  0.4449050000000  0.5458060000000  0.4946500000000 1.0
C      1  0.5945330000000  0.5594580000000  0.4759980000000 1.0
C      1  0.5800430000000  0.4874320000000  0.4850080000000 1.0
C      1  0.4867390000000  0.4777100000000  0.4914260000000 1.0
C      1  0.5279460000000  0.5652270000000  0.4149250000000 1.0
C      1  0.5064850000000  0.4978170000000  0.5577340000000 1.0
C      1  0.4745820000000  0.5391870000000  0.5266450000000 1.0
C      1  0.5760750000000  0.5040890000000  0.5326510000000 1.0
C      1  0.4072260000000  0.4888200000000  0.5747050000000 1.0
C      1  0.4251780000000  0.4665900000000  0.5785640000000 1.0
C      1  0.4578520000000  0.5214940000000  0.6095950000000 1.0
C      1  0.4535170000000  0.4791630000000  0.4545940000000 1.0
C      1  0.4514370000000  0.4951420000000  0.5419950000000 1.0
C      1  0.5079300000000  0.4118140000000  0.4226250000000 1.0
C      1  0.5702180000000  0.5846920000000  0.5655630000000 1.0
C      1  0.4990440000000  0.4743340000000  0.5174530000000 1.0
C      1  0.5609530000000  0.4673430000000  0.4995360000000 1.0
C      1  0.4858860000000  0.5323770000000  0.5991870000000 1.0
C      1  0.4595160000000  0.4662120000000  0.3967950000000 1.0
C      1  0.3942010000000  0.5166110000000  0.5053890000000 1.0
C      1  0.5340190000000  0.4787920000000  0.6071750000000 1.0
C      1  0.4718250000000  0.5588220000000  0.5046870000000 1.0
C      1  0.3943970000000  0.4657150000000  0.5167500000000 1.0
C      1  0.5426590000000  0.5197660000000  0.4187500000000 1.0
C      1  0.5725410000000  0.5588680000000  0.4295850000000 1.0
C      1  0.5122390000000  0.6004990000000  0.4775680000000 1.0
C      1  0.4774830000000  0.4756840000000  0.4359410000000 1.0
C      1  0.4082380000000  0.5643110000000  0.4709440000000 1.0
C      1  0.4272570000000  0.4009770000000  0.5184940000000 1.0
C      1  0.4030970000000  0.5402590000000  0.5205350000000 1.0
C      1  0.5361150000000  0.4990060000000  0.3762640000000 1.0
C      1  0.6053700000000  0.4520660000000  0.4918400000000 1.0
C      1  0.4495970000000  0.5420260000000  0.4138480000000 1.0
C      1  0.4598280000000  0.5041040000000  0.5687880000000 1.0
C      1  0.4911910000000  0.3907600000000  0.5447580000000 1.0
C      1  0.4734340000000  0.5109240000000  0.5224820000000 1.0
C      1  0.5611000000000  0.4139000000000  0.5032300000000 1.0
C      1  0.5771880000000  0.5632770000000  0.5817960000000 1.0
C      1  0.4920640000000  0.5065980000000  0.3905700000000 1.0
C      1  0.5970400000000  0.4983120000000  0.4398070000000 1.0
C      1  0.5938770000000  0.5619700000000  0.5278760000000 1.0
C      1  0.5747860000000  0.4395690000000  0.5673170000000 1.0
C      1  0.4887850000000  0.6062200000000  0.4617930000000 1.0
C      1  0.4991550000000  0.3946800000000  0.4444400000000 1.0
C      1  0.4857640000000  0.5191900000000  0.5699010000000 1.0
C      1  0.5026690000000  0.5521920000000  0.4050380000000 1.0
C      1  0.5534240000000  0.4717540000000  0.4069320000000 1.0
C      1  0.5353650000000  0.5041990000000  0.5636990000000 1.0
C      1  0.4509580000000  0.4637120000000  0.5376790000000 1.0
C      1  0.4921720000000  0.4087260000000  0.5670960000000 1.0
C      1  0.5233840000000  0.5113440000000  0.5131090000000 1.0
C      1  0.4881570000000  0.5351180000000  0.4542690000000 1.0
C      1  0.5703980000000  0.4387840000000  0.5173860000000 1.0
C      1  0.5316410000000  0.4158960000000  0.4974860000000 1.0
C      1  0.4282230000000  0.5689980000000  0.4491860000000 1.0
C      1  0.4056390000000  0.5320110000000  0.4313340000000 1.0
C      1  0.4866220000000  0.5625310000000  0.5935490000000 1.0
C      1  0.5283030000000  0.4327490000000  0.4727500000000 1.0
C      1  0.5780070000000  0.4858850000000  0.5801450000000 1.0
C      1  0.5479210000000  0.4821520000000  0.5800740000000 1.0
C      1  0.5321570000000  0.5393680000000  0.5899650000000 1.0
C      1  0.4858600000000  0.4320990000000  0.5217650000000 1.0
C      1  0.5211900000000  0.4506770000000  0.5756110000000 1.0
C      1  0.4210450000000  0.5027990000000  0.4206990000000 1.0
C      1  0.3901820000000  0.4513950000000  0.4558790000000 1.0
C      1  0.5643900000000  0.5368820000000  0.5809730000000 1.0
C      1  0.5879880000000  0.4389590000000  0.4714400000000 1.0
C      1  0.5067440000000  0.5651510000000  0.5514720000000 1.0
C      1  0.4831920000000  0.4487020000000  0.3967800000000 1.0
C      1  0.4216310000000  0.5019660000000  0.5420200000000 1.0
C      1  0.5404040000000  0.5335680000000  0.5209580000000 1.0
C      1  0.4464710000000  0.5914940000000  0.4467070000000 1.0
C      1  0.4571840000000  0.4201650000000  0.4562320000000 1.0
C      1  0.5523540000000  0.4988340000000  0.3989900000000 1.0
C      1  0.4876020000000  0.4833660000000  0.6231660000000 1.0
C      1  0.4417670000000  0.5233780000000  0.5831790000000 1.0
C      1  0.6170390000000  0.4777970000000  0.4868060000000 1.0
C      1  0.3969160000000  0.5390320000000  0.4598000000000 1.0
C      1  0.5589710000000  0.5324030000000  0.4967150000000 1.0
C      1  0.5885840000000  0.5733130000000  0.5015610000000 1.0
C      1  0.5716940000000  0.4917910000000  0.4552650000000 1.0
C      1  0.5260210000000  0.5533940000000  0.4691990000000 1.0
C      1  0.6182210000000  0.4911040000000  0.5349720000000 1.0
C      1  0.4995750000000  0.5932320000000  0.5509670000000 1.0
C      1  0.4706340000000  0.4304210000000  0.5702560000000 1.0
C      1  0.5348890000000  0.4618280000000  0.4813470000000 1.0
C      1  0.5996330000000  0.4455660000000  0.5199500000000 1.0
C      1  0.4905550000000  0.6019380000000  0.4337560000000 1.0
C      1  0.5015060000000  0.5003520000000  0.5287920000000 1.0
C      1  0.4628930000000  0.5982960000000  0.4697030000000 1.0
C      1  0.6251050000000  0.4975410000000  0.5065620000000 1.0
C      1  0.4321680000000  0.4881640000000  0.4989080000000 1.0
C      1  0.5901380000000  0.4630430000000  0.5657410000000 1.0
C      1  0.3796570000000  0.4780640000000  0.4598280000000 1.0
C      1  0.5540780000000  0.5222280000000  0.5462010000000 1.0
C      1  0.3970190000000  0.4464480000000  0.4852510000000 1.0
C      1  0.4927960000000  0.5273200000000  0.4821480000000 1.0
C      1  0.5086730000000  0.5234240000000  0.4097770000000 1.0
C      1  0.5002860000000  0.4673920000000  0.5611280000000 1.0
C      1  0.4186540000000  0.5593490000000  0.5019280000000 1.0
C      1  0.5516400000000  0.5133420000000  0.4482800000000 1.0
C      1  0.5930720000000  0.5785830000000  0.5509970000000 1.0
C      1  0.5557450000000  0.4290550000000  0.4383680000000 1.0
C      1  0.4476580000000  0.5831740000000  0.5385510000000 1.0
C      1  0.5331770000000  0.4523930000000  0.4038860000000 1.0
C      1  0.4906810000000  0.5649180000000  0.4458310000000 1.0
C      1  0.4829930000000  0.4069780000000  0.4664840000000 1.0
C      1  0.5200130000000  0.4526440000000  0.6059080000000 1.0
C      1  0.4087270000000  0.4925290000000  0.5162600000000 1.0
C      1  0.4695200000000  0.4527690000000  0.4927520000000 1.0
C      1  0.5312170000000  0.4314770000000  0.4232140000000 1.0
C      1  0.4818050000000  0.5456010000000  0.5528500000000 1.0
C      1  0.4041520000000  0.4920200000000  0.4648910000000 1.0
END
