TITL C-951343-2256-568 -2.53999913349142e-06 125000 -195.162828451787 0 0 33 (C1) n - 1
REM
REM in /home/bkarasulu/work/CARBON/AIRSS/Generating-Clusters/EDIP-Nigel-Params/with-SteepDescent/Only-C1/SD-CG/HFTN-CG
REM
REM
REM
REM
REM
REM ./C.cell (11c1c37f851c82e70ff6c80c92926a4b)
REM
REM compiler GCC version 9.2.1 20190827 (Red Hat 9.2.1-1)
REM options -cpp -mtune=generic -march=x86-64 -g -O0 -fpre-include=/usr/include/finclude/math-vector-fortran.h
REM seed 1159531515 -1083340291 138542310 -1738916326 1378185271 -451295231 643870965 -999339823 -1550124525 853382835 -2010460939 1457732968 471658350 1947322219 1916451296 -2111117208 319890680 477858748 -553432018 -57338736 -1240825568 -713181889 1477331452 1863286853 1098185772 673443189 -462719729 -1160209307 -669107570 344359582 430767016 1000048865 1179748184
REM
CELL 1.54180   50.00000   50.00000   50.00000   90.00000   90.00000   90.00000
LATT -1
SFAC C  
C      1  0.4957820000000  0.5677390000000  0.5104100000000 1.0
C      1  0.5079120000000  0.5295480000000  0.5387970000000 1.0
C      1  0.5645340000000  0.4710390000000  0.5090730000000 1.0
C      1  0.4721580000000  0.4965140000000  0.4439800000000 1.0
C      1  0.4719480000000  0.4547910000000  0.4949160000000 1.0
C      1  0.5345370000000  0.4695860000000  0.4798520000000 1.0
C      1  0.5571240000000  0.4954420000000  0.4972840000000 1.0
C      1  0.4550510000000  0.5060560000000  0.4884190000000 1.0
C      1  0.4951890000000  0.4643350000000  0.5102370000000 1.0
C      1  0.4515430000000  0.4912950000000  0.4637060000000 1.0
C      1  0.5280620000000  0.5195100000000  0.4577280000000 1.0
C      1  0.5476320000000  0.5160870000000  0.5154170000000 1.0
C      1  0.4499890000000  0.4888300000000  0.5129670000000 1.0
C      1  0.5162290000000  0.4757620000000  0.4595250000000 1.0
C      1  0.5372020000000  0.4724330000000  0.5483670000000 1.0
C      1  0.4719460000000  0.5565890000000  0.5009770000000 1.0
C      1  0.5139150000000  0.5226520000000  0.4839180000000 1.0
C      1  0.4617200000000  0.5404220000000  0.5221450000000 1.0
C      1  0.4710430000000  0.4577360000000  0.4661620000000 1.0
C      1  0.5301990000000  0.5093130000000  0.5388660000000 1.0
C      1  0.4888730000000  0.4723070000000  0.5378830000000 1.0
C      1  0.5439660000000  0.4584500000000  0.5241750000000 1.0
C      1  0.4759780000000  0.5288440000000  0.4875780000000 1.0
C      1  0.4686380000000  0.4944380000000  0.5359940000000 1.0
C      1  0.5227760000000  0.4568770000000  0.5034440000000 1.0
C      1  0.5325490000000  0.5377390000000  0.5024100000000 1.0
C      1  0.5169170000000  0.5531480000000  0.5225270000000 1.0
C      1  0.4806950000000  0.5207880000000  0.5306870000000 1.0
C      1  0.4472160000000  0.4608350000000  0.5075660000000 1.0
C      1  0.4830160000000  0.5225040000000  0.4451210000000 1.0
C      1  0.4897370000000  0.4730580000000  0.4499920000000 1.0
C      1  0.5050100000000  0.5357080000000  0.4552540000000 1.0
C      1  0.5109150000000  0.4796250000000  0.5546240000000 1.0
END
