TITL C-950536-5891-420 -6.39685507354128e-07 125000 -1024.08356859052 0 0 163 (C1) n - 1
REM
REM in /home/bkarasulu/work/CARBON/AIRSS/Generating-Clusters/EDIP-Nigel-Params/with-SteepDescent/Only-C1/SD-CG/HFTN-CG
REM
REM
REM
REM
REM
REM ./C.cell (11c1c37f851c82e70ff6c80c92926a4b)
REM
REM compiler GCC version 9.2.1 20190827 (Red Hat 9.2.1-1)
REM options -cpp -mtune=generic -march=x86-64 -g -O0 -fpre-include=/usr/include/finclude/math-vector-fortran.h
REM seed 191503078 700787636 1094882185 1497304989 -1251110306 138322964 1072013279 -393836268 -2020362868 4680481 306017416 -1001243096 -163114035 -426949962 -842744617 -2134975115 -1893264504 -498362922 -1935540802 309727581 1110945291 1383007350 -353690934 -1271432775 1799216238 732173490 328652190 464303942 -1872700343 247356149 -1394664787 -276217633 -1535245772
REM
CELL 1.54180   50.00000   50.00000   50.00000   90.00000   90.00000   90.00000
LATT -1
SFAC C  
C      1  0.4413680000000  0.5555040000000  0.4554120000000 1.0
C      1  0.5055180000000  0.5374300000000  0.4043540000000 1.0
C      1  0.4656430000000  0.5981200000000  0.4927000000000 1.0
C      1  0.3923450000000  0.4790700000000  0.5020970000000 1.0
C      1  0.4650590000000  0.4058040000000  0.4709860000000 1.0
C      1  0.4633360000000  0.4602720000000  0.4243370000000 1.0
C      1  0.5922390000000  0.5679330000000  0.5378010000000 1.0
C      1  0.4962220000000  0.5121300000000  0.4329060000000 1.0
C      1  0.4384050000000  0.4714230000000  0.6042600000000 1.0
C      1  0.4875880000000  0.4824900000000  0.5157770000000 1.0
C      1  0.4279910000000  0.5593460000000  0.4830190000000 1.0
C      1  0.5310240000000  0.4589380000000  0.5686180000000 1.0
C      1  0.5322590000000  0.5793270000000  0.4255710000000 1.0
C      1  0.5621060000000  0.5336600000000  0.4287060000000 1.0
C      1  0.5314990000000  0.5885840000000  0.4626980000000 1.0
C      1  0.6023770000000  0.5205420000000  0.4491270000000 1.0
C      1  0.5074490000000  0.4539750000000  0.4041670000000 1.0
C      1  0.4448450000000  0.4366260000000  0.4271880000000 1.0
C      1  0.5677140000000  0.4367420000000  0.4448360000000 1.0
C      1  0.4132450000000  0.5344340000000  0.4874150000000 1.0
C      1  0.5556900000000  0.5184720000000  0.5428820000000 1.0
C      1  0.5129060000000  0.5264690000000  0.5115140000000 1.0
C      1  0.4407140000000  0.4214320000000  0.5348030000000 1.0
C      1  0.4977940000000  0.5674460000000  0.5779110000000 1.0
C      1  0.4753080000000  0.4336460000000  0.5093750000000 1.0
C      1  0.5211080000000  0.4053090000000  0.5316180000000 1.0
C      1  0.5576020000000  0.5148630000000  0.4896160000000 1.0
C      1  0.4399580000000  0.4581240000000  0.4874030000000 1.0
C      1  0.4894530000000  0.4372880000000  0.5590290000000 1.0
C      1  0.5424980000000  0.5759470000000  0.5188240000000 1.0
C      1  0.5976580000000  0.5619800000000  0.4861270000000 1.0
C      1  0.5132330000000  0.4158680000000  0.5589300000000 1.0
C      1  0.5628060000000  0.5664810000000  0.5389560000000 1.0
C      1  0.5063290000000  0.4631220000000  0.5513720000000 1.0
C      1  0.5020010000000  0.3983440000000  0.5117740000000 1.0
C      1  0.5312460000000  0.4078250000000  0.4434070000000 1.0
C      1  0.5437550000000  0.4314150000000  0.4313830000000 1.0
C      1  0.5842840000000  0.4585200000000  0.5181320000000 1.0
C      1  0.4930560000000  0.5548490000000  0.4581980000000 1.0
C      1  0.5559060000000  0.4328450000000  0.5429990000000 1.0
C      1  0.5114920000000  0.3908380000000  0.4856410000000 1.0
C      1  0.4783930000000  0.4526540000000  0.5840750000000 1.0
C      1  0.4895910000000  0.4859520000000  0.4717310000000 1.0
C      1  0.4280890000000  0.4316320000000  0.4906890000000 1.0
C      1  0.5849990000000  0.4653570000000  0.4742700000000 1.0
C      1  0.4171510000000  0.4784680000000  0.4339180000000 1.0
C      1  0.5781710000000  0.5577860000000  0.4337450000000 1.0
C      1  0.5205180000000  0.5844320000000  0.5359890000000 1.0
C      1  0.5100360000000  0.5720430000000  0.4785710000000 1.0
C      1  0.5308880000000  0.5059210000000  0.5311110000000 1.0
C      1  0.5235070000000  0.4667330000000  0.5959490000000 1.0
C      1  0.4501810000000  0.4537590000000  0.5867510000000 1.0
C      1  0.5799230000000  0.5105210000000  0.4332650000000 1.0
C      1  0.5997810000000  0.4829640000000  0.5142450000000 1.0
C      1  0.4511070000000  0.5939040000000  0.5191530000000 1.0
C      1  0.6014880000000  0.5495590000000  0.4499570000000 1.0
C      1  0.4832930000000  0.5763660000000  0.4284730000000 1.0
C      1  0.5337570000000  0.4826480000000  0.4575580000000 1.0
C      1  0.4423930000000  0.5198910000000  0.4250760000000 1.0
C      1  0.4232400000000  0.5359420000000  0.4414460000000 1.0
C      1  0.4873760000000  0.5015520000000  0.6072440000000 1.0
C      1  0.5074400000000  0.5654500000000  0.4173840000000 1.0
C      1  0.4574910000000  0.5644050000000  0.4246620000000 1.0
C      1  0.4790820000000  0.5261950000000  0.3955470000000 1.0
C      1  0.5423500000000  0.4554440000000  0.4676700000000 1.0
C      1  0.5675410000000  0.4718280000000  0.5896640000000 1.0
C      1  0.5276990000000  0.5525670000000  0.4971960000000 1.0
C      1  0.5216130000000  0.5718760000000  0.5614860000000 1.0
C      1  0.5532090000000  0.4235330000000  0.4939850000000 1.0
C      1  0.5161180000000  0.4378790000000  0.4746830000000 1.0
C      1  0.4273950000000  0.5524180000000  0.5558900000000 1.0
C      1  0.5565400000000  0.5905270000000  0.4792880000000 1.0
C      1  0.5497460000000  0.4765110000000  0.4083500000000 1.0
C      1  0.4057360000000  0.4334610000000  0.5077530000000 1.0
C      1  0.4483300000000  0.5659180000000  0.5039830000000 1.0
C      1  0.3835720000000  0.5036760000000  0.5121160000000 1.0
C      1  0.5675860000000  0.5208890000000  0.5880630000000 1.0
C      1  0.3933580000000  0.4559750000000  0.5201540000000 1.0
C      1  0.5108800000000  0.4636630000000  0.5206150000000 1.0
C      1  0.5094800000000  0.5223560000000  0.6041630000000 1.0
C      1  0.4789620000000  0.4961480000000  0.3963480000000 1.0
C      1  0.4955440000000  0.5874150000000  0.5238150000000 1.0
C      1  0.4501820000000  0.4650640000000  0.4604030000000 1.0
C      1  0.4900570000000  0.5358790000000  0.5288780000000 1.0
C      1  0.3959490000000  0.5284910000000  0.5100330000000 1.0
C      1  0.4018530000000  0.5122460000000  0.5731100000000 1.0
C      1  0.5471670000000  0.4809080000000  0.6071440000000 1.0
C      1  0.5486790000000  0.5613000000000  0.5643920000000 1.0
C      1  0.4236100000000  0.5112860000000  0.5289510000000 1.0
C      1  0.6006650000000  0.5014250000000  0.5356430000000 1.0
C      1  0.5384730000000  0.4785430000000  0.5179780000000 1.0
C      1  0.6209470000000  0.5676660000000  0.5373940000000 1.0
C      1  0.5399540000000  0.5336590000000  0.4511260000000 1.0
C      1  0.5383000000000  0.4305780000000  0.5665560000000 1.0
C      1  0.5363900000000  0.4497250000000  0.4093260000000 1.0
C      1  0.4721560000000  0.5736320000000  0.5644170000000 1.0
C      1  0.4112220000000  0.5082900000000  0.5989830000000 1.0
C      1  0.4572730000000  0.5390140000000  0.5925370000000 1.0
C      1  0.4599790000000  0.5128830000000  0.6044560000000 1.0
C      1  0.6021620000000  0.4855150000000  0.4853820000000 1.0
C      1  0.4352680000000  0.4982160000000  0.6089670000000 1.0
C      1  0.5288490000000  0.4949430000000  0.3984860000000 1.0
C      1  0.5456690000000  0.5101880000000  0.6068410000000 1.0
C      1  0.4591950000000  0.5161240000000  0.5609890000000 1.0
C      1  0.4853680000000  0.5137680000000  0.5469960000000 1.0
C      1  0.4434310000000  0.4891520000000  0.5667940000000 1.0
C      1  0.5493490000000  0.5403600000000  0.4788630000000 1.0
C      1  0.5481880000000  0.5318970000000  0.5683090000000 1.0
C      1  0.4188710000000  0.4814490000000  0.4881470000000 1.0
C      1  0.5492910000000  0.4867380000000  0.4885760000000 1.0
C      1  0.5797080000000  0.5034490000000  0.5559080000000 1.0
C      1  0.5217990000000  0.5186500000000  0.5761960000000 1.0
C      1  0.4541380000000  0.4655150000000  0.5496820000000 1.0
C      1  0.4659800000000  0.5381620000000  0.4645720000000 1.0
C      1  0.4631460000000  0.4903420000000  0.4623500000000 1.0
C      1  0.4480540000000  0.5612130000000  0.5757970000000 1.0
C      1  0.4936210000000  0.4572430000000  0.4309310000000 1.0
C      1  0.5713920000000  0.4760700000000  0.5619380000000 1.0
C      1  0.5622360000000  0.4613430000000  0.5369450000000 1.0
C      1  0.6080950000000  0.5696440000000  0.5119350000000 1.0
C      1  0.4047730000000  0.5392740000000  0.5663300000000 1.0
C      1  0.4313880000000  0.4459210000000  0.5479020000000 1.0
C      1  0.5022760000000  0.4055640000000  0.4398790000000 1.0
C      1  0.4568510000000  0.4226860000000  0.4494480000000 1.0
C      1  0.4550780000000  0.5397140000000  0.4070080000000 1.0
C      1  0.5697670000000  0.5636770000000  0.4768780000000 1.0
C      1  0.4427500000000  0.5315870000000  0.5404530000000 1.0
C      1  0.4553820000000  0.4798880000000  0.4031060000000 1.0
C      1  0.5533260000000  0.5348290000000  0.4016140000000 1.0
C      1  0.5806790000000  0.4616690000000  0.4461070000000 1.0
C      1  0.4696940000000  0.4264960000000  0.5368070000000 1.0
C      1  0.4999110000000  0.5493670000000  0.5995730000000 1.0
C      1  0.5108360000000  0.5334380000000  0.4478470000000 1.0
C      1  0.5043360000000  0.4811900000000  0.3921050000000 1.0
C      1  0.5760580000000  0.4445910000000  0.4931710000000 1.0
C      1  0.4934330000000  0.5913770000000  0.4956190000000 1.0
C      1  0.5359550000000  0.4047340000000  0.4739150000000 1.0
C      1  0.5103420000000  0.4999390000000  0.5545020000000 1.0
C      1  0.5527150000000  0.5993710000000  0.5053710000000 1.0
C      1  0.4904700000000  0.5043780000000  0.4958960000000 1.0
C      1  0.4093630000000  0.5210460000000  0.4617930000000 1.0
C      1  0.5688560000000  0.4833630000000  0.4302980000000 1.0
C      1  0.6132670000000  0.5055370000000  0.4697470000000 1.0
C      1  0.4905810000000  0.3911410000000  0.4644470000000 1.0
C      1  0.4155490000000  0.4928480000000  0.4604150000000 1.0
C      1  0.4941800000000  0.4330800000000  0.4513180000000 1.0
C      1  0.5052990000000  0.4844440000000  0.4467630000000 1.0
C      1  0.4664620000000  0.5143450000000  0.4444560000000 1.0
C      1  0.5434520000000  0.4199310000000  0.5211890000000 1.0
C      1  0.4203190000000  0.4499680000000  0.4321230000000 1.0
C      1  0.4316180000000  0.4944820000000  0.4129910000000 1.0
C      1  0.4590420000000  0.4735390000000  0.5185420000000 1.0
C      1  0.4621920000000  0.5410350000000  0.5175680000000 1.0
C      1  0.4075170000000  0.4636480000000  0.5450190000000 1.0
C      1  0.4722600000000  0.5913010000000  0.5401980000000 1.0
C      1  0.4403080000000  0.4976120000000  0.5072700000000 1.0
C      1  0.4159580000000  0.4936150000000  0.5533520000000 1.0
C      1  0.5057570000000  0.4361380000000  0.5046820000000 1.0
C      1  0.4525420000000  0.4151860000000  0.4980330000000 1.0
C      1  0.4625990000000  0.5201320000000  0.4952240000000 1.0
C      1  0.4948230000000  0.4745610000000  0.5964140000000 1.0
C      1  0.5590990000000  0.5796440000000  0.4367430000000 1.0
C      1  0.5296890000000  0.5234940000000  0.3940490000000 1.0
END
