TITL C-951337-3020-44 -6.00523973719426e-07 125000 -526.639697010199 0 0 86 (C1) n - 1
REM
REM in /home/bkarasulu/work/CARBON/AIRSS/Generating-Clusters/EDIP-Nigel-Params/with-SteepDescent/Only-C1/SD-CG/HFTN-CG
REM
REM
REM
REM
REM
REM ./C.cell (11c1c37f851c82e70ff6c80c92926a4b)
REM
REM compiler GCC version 9.2.1 20190827 (Red Hat 9.2.1-1)
REM options -cpp -mtune=generic -march=x86-64 -g -O0 -fpre-include=/usr/include/finclude/math-vector-fortran.h
REM seed 827633382 475405638 395850418 870509285 -1883610761 -895590877 -2145012028 -520285786 289175024 -1191189089 -1599236549 -1130647040 -612230384 -1290128681 540017342 -432367096 1586110416 -187816663 -2145624334 -1686277052 -1483433982 -1286928775 -1153015649 -1260737221 -866085467 -955766007 -104782576 -1629083540 1563454930 -283680162 1008750157 2109553155 904912711
REM
CELL 1.54180   50.00000   50.00000   50.00000   90.00000   90.00000   90.00000
LATT -1
SFAC C  
C      1  0.4874750000000  0.5839330000000  0.4896070000000 1.0
C      1  0.4817960000000  0.4704470000000  0.4997620000000 1.0
C      1  0.4848630000000  0.5488940000000  0.4529590000000 1.0
C      1  0.4325610000000  0.5069830000000  0.5071030000000 1.0
C      1  0.5673170000000  0.5638880000000  0.4858030000000 1.0
C      1  0.4978900000000  0.5725540000000  0.4647430000000 1.0
C      1  0.4246340000000  0.5331870000000  0.5200960000000 1.0
C      1  0.4332630000000  0.5086100000000  0.4564330000000 1.0
C      1  0.5409210000000  0.4775340000000  0.4322180000000 1.0
C      1  0.4635600000000  0.5461860000000  0.5473230000000 1.0
C      1  0.4979270000000  0.5085800000000  0.4254260000000 1.0
C      1  0.4510670000000  0.4419550000000  0.5439350000000 1.0
C      1  0.4888650000000  0.5109560000000  0.5810260000000 1.0
C      1  0.4795530000000  0.4256780000000  0.4791430000000 1.0
C      1  0.4912540000000  0.4537150000000  0.4207190000000 1.0
C      1  0.4738380000000  0.4305900000000  0.5315330000000 1.0
C      1  0.4996570000000  0.4368810000000  0.5412540000000 1.0
C      1  0.5255010000000  0.4901090000000  0.4977850000000 1.0
C      1  0.5423200000000  0.5763990000000  0.4897250000000 1.0
C      1  0.5240690000000  0.4347680000000  0.5261400000000 1.0
C      1  0.4796220000000  0.5152340000000  0.4802290000000 1.0
C      1  0.5794090000000  0.4943810000000  0.4569740000000 1.0
C      1  0.4354660000000  0.4515280000000  0.4985210000000 1.0
C      1  0.4890970000000  0.4636110000000  0.5499480000000 1.0
C      1  0.4679180000000  0.4913740000000  0.4522160000000 1.0
C      1  0.5737240000000  0.4810590000000  0.5168120000000 1.0
C      1  0.5634950000000  0.5276090000000  0.5427690000000 1.0
C      1  0.5318910000000  0.5354370000000  0.4558870000000 1.0
C      1  0.4510660000000  0.5025010000000  0.5818200000000 1.0
C      1  0.4402490000000  0.5042690000000  0.5553560000000 1.0
C      1  0.5014060000000  0.4308360000000  0.4369430000000 1.0
C      1  0.4679470000000  0.5031160000000  0.4234560000000 1.0
C      1  0.5346840000000  0.5354890000000  0.5058470000000 1.0
C      1  0.5593570000000  0.5126510000000  0.5669870000000 1.0
C      1  0.4473060000000  0.5242050000000  0.4320010000000 1.0
C      1  0.4367990000000  0.5324080000000  0.5471050000000 1.0
C      1  0.5176350000000  0.4439210000000  0.4585570000000 1.0
C      1  0.5883160000000  0.4948540000000  0.4836510000000 1.0
C      1  0.4824930000000  0.5274170000000  0.5074130000000 1.0
C      1  0.5476040000000  0.4443900000000  0.5376180000000 1.0
C      1  0.4165690000000  0.4694700000000  0.4833810000000 1.0
C      1  0.5603000000000  0.5362380000000  0.4888270000000 1.0
C      1  0.4782760000000  0.4832740000000  0.5269350000000 1.0
C      1  0.4697950000000  0.4595160000000  0.5717380000000 1.0
C      1  0.4876640000000  0.5285340000000  0.5553170000000 1.0
C      1  0.5299220000000  0.4790700000000  0.5828510000000 1.0
C      1  0.4481370000000  0.5146830000000  0.4823310000000 1.0
C      1  0.5503740000000  0.4851520000000  0.5640430000000 1.0
C      1  0.5495550000000  0.5547540000000  0.5427050000000 1.0
C      1  0.4090690000000  0.4923580000000  0.4983370000000 1.0
C      1  0.5060930000000  0.5494700000000  0.5597470000000 1.0
C      1  0.5387630000000  0.5266160000000  0.5819700000000 1.0
C      1  0.5292380000000  0.5641900000000  0.5146180000000 1.0
C      1  0.5613620000000  0.4681620000000  0.5425220000000 1.0
C      1  0.4551580000000  0.4645340000000  0.4547210000000 1.0
C      1  0.5086950000000  0.4306860000000  0.4847830000000 1.0
C      1  0.5562170000000  0.5254110000000  0.4274510000000 1.0
C      1  0.4471440000000  0.4886660000000  0.5295870000000 1.0
C      1  0.4270820000000  0.4766420000000  0.4564480000000 1.0
C      1  0.4741830000000  0.5533940000000  0.5187250000000 1.0
C      1  0.4941220000000  0.5112080000000  0.5282120000000 1.0
C      1  0.5836660000000  0.5199250000000  0.4973030000000 1.0
C      1  0.4991100000000  0.4868190000000  0.4833430000000 1.0
C      1  0.5463930000000  0.5514330000000  0.4345750000000 1.0
C      1  0.5235380000000  0.4168150000000  0.5046750000000 1.0
C      1  0.5096670000000  0.4801040000000  0.4296190000000 1.0
C      1  0.4633050000000  0.4517570000000  0.4839980000000 1.0
C      1  0.5594110000000  0.4607190000000  0.4733480000000 1.0
C      1  0.5225480000000  0.5106070000000  0.5175370000000 1.0
C      1  0.5324190000000  0.5519970000000  0.5667410000000 1.0
C      1  0.5040360000000  0.5281550000000  0.4468400000000 1.0
C      1  0.5559750000000  0.5008750000000  0.4424580000000 1.0
C      1  0.4801690000000  0.4180870000000  0.4515150000000 1.0
C      1  0.5181180000000  0.5049370000000  0.5872340000000 1.0
C      1  0.5278460000000  0.5679000000000  0.4641680000000 1.0
C      1  0.5510610000000  0.4751340000000  0.4963720000000 1.0
C      1  0.4300340000000  0.5570010000000  0.5060850000000 1.0
C      1  0.4354570000000  0.4603490000000  0.5275980000000 1.0
C      1  0.4987740000000  0.5723850000000  0.5152990000000 1.0
C      1  0.4550440000000  0.5676680000000  0.5013030000000 1.0
C      1  0.5793460000000  0.5108800000000  0.5241620000000 1.0
C      1  0.5059260000000  0.4712730000000  0.4586080000000 1.0
C      1  0.5455400000000  0.4533010000000  0.4499950000000 1.0
C      1  0.4672460000000  0.4811150000000  0.5896970000000 1.0
C      1  0.4637430000000  0.4526880000000  0.4292890000000 1.0
C      1  0.4600990000000  0.5479120000000  0.4401450000000 1.0
END
