TITL C-950522-5749-353 2.50053560419223e-06 125000 -582.665770341896 0 0 94 (C1) n - 1
REM
REM in /home/bkarasulu/work/CARBON/AIRSS/Generating-Clusters/EDIP-Nigel-Params/with-SteepDescent/Only-C1/SD-CG/HFTN-CG
REM
REM
REM
REM
REM
REM ./C.cell (11c1c37f851c82e70ff6c80c92926a4b)
REM
REM compiler GCC version 9.2.1 20190827 (Red Hat 9.2.1-1)
REM options -cpp -mtune=generic -march=x86-64 -g -O0 -fpre-include=/usr/include/finclude/math-vector-fortran.h
REM seed -631433940 -868974887 2086727719 1665703693 2026288508 -641298136 1954859415 451050444 1395653933 -810417273 1934174037 794483022 -486062063 1262489438 439907120 1379636100 -1576214051 -988599231 -1095505811 1058176416 951472470 -751345408 -1338867192 -682893267 -464597836 1461908767 1259164254 1572990729 -625395791 -652716790 -1791635912 -1361001401 -1059595542
REM
CELL 1.54180   50.00000   50.00000   50.00000   90.00000   90.00000   90.00000
LATT -1
SFAC C  
C      1  0.4092350000000  0.4641520000000  0.5048560000000 1.0
C      1  0.5796890000000  0.5270550000000  0.4937660000000 1.0
C      1  0.4336070000000  0.4976540000000  0.5330410000000 1.0
C      1  0.4962660000000  0.4919870000000  0.4872620000000 1.0
C      1  0.4587510000000  0.4274550000000  0.4711950000000 1.0
C      1  0.5626050000000  0.4414840000000  0.5000490000000 1.0
C      1  0.4751570000000  0.5314980000000  0.5088850000000 1.0
C      1  0.4731800000000  0.5035580000000  0.5637290000000 1.0
C      1  0.4296390000000  0.5463890000000  0.5299430000000 1.0
C      1  0.5693480000000  0.5258650000000  0.4649280000000 1.0
C      1  0.5123790000000  0.5158600000000  0.5384840000000 1.0
C      1  0.5246810000000  0.4919190000000  0.4108830000000 1.0
C      1  0.4441050000000  0.5673210000000  0.5122880000000 1.0
C      1  0.4940580000000  0.4157520000000  0.4798780000000 1.0
C      1  0.5425870000000  0.4983260000000  0.5030310000000 1.0
C      1  0.5279400000000  0.5560280000000  0.5658800000000 1.0
C      1  0.5122150000000  0.5706980000000  0.5463080000000 1.0
C      1  0.4680540000000  0.5510950000000  0.5653120000000 1.0
C      1  0.4702460000000  0.4856220000000  0.4238360000000 1.0
C      1  0.5127640000000  0.5302830000000  0.5649960000000 1.0
C      1  0.5517370000000  0.5744650000000  0.4656950000000 1.0
C      1  0.5387370000000  0.5486960000000  0.5080870000000 1.0
C      1  0.4965720000000  0.4515630000000  0.4416310000000 1.0
C      1  0.5450380000000  0.5056160000000  0.5815150000000 1.0
C      1  0.4559250000000  0.4709260000000  0.4948020000000 1.0
C      1  0.4517210000000  0.5110930000000  0.4687200000000 1.0
C      1  0.4271840000000  0.4726370000000  0.4850820000000 1.0
C      1  0.5076650000000  0.5387830000000  0.4654470000000 1.0
C      1  0.4421980000000  0.5384140000000  0.5563170000000 1.0
C      1  0.5243780000000  0.5215200000000  0.5118550000000 1.0
C      1  0.5679250000000  0.5447470000000  0.5165810000000 1.0
C      1  0.5297560000000  0.5917960000000  0.4654930000000 1.0
C      1  0.5015990000000  0.4509610000000  0.5220490000000 1.0
C      1  0.5242470000000  0.4599460000000  0.4750240000000 1.0
C      1  0.5088010000000  0.5179010000000  0.4429740000000 1.0
C      1  0.4435390000000  0.5084940000000  0.5587210000000 1.0
C      1  0.5210280000000  0.4096980000000  0.4922630000000 1.0
C      1  0.5035450000000  0.5846200000000  0.4730010000000 1.0
C      1  0.4332670000000  0.5615960000000  0.4854130000000 1.0
C      1  0.4768930000000  0.4495700000000  0.5635840000000 1.0
C      1  0.5460690000000  0.4226040000000  0.4844650000000 1.0
C      1  0.5813780000000  0.4553820000000  0.4560890000000 1.0
C      1  0.4996070000000  0.5221990000000  0.4923880000000 1.0
C      1  0.4874520000000  0.4798600000000  0.5151640000000 1.0
C      1  0.4381790000000  0.4484920000000  0.5419080000000 1.0
C      1  0.4844990000000  0.5293540000000  0.5764960000000 1.0
C      1  0.4184880000000  0.5093350000000  0.4520210000000 1.0
C      1  0.4961380000000  0.4891400000000  0.5907850000000 1.0
C      1  0.4225920000000  0.4703950000000  0.5291050000000 1.0
C      1  0.5358230000000  0.5500670000000  0.4772190000000 1.0
C      1  0.5706720000000  0.4785190000000  0.4461350000000 1.0
C      1  0.4705580000000  0.4856660000000  0.4722680000000 1.0
C      1  0.5333710000000  0.4889920000000  0.4770040000000 1.0
C      1  0.5559510000000  0.5303380000000  0.5689220000000 1.0
C      1  0.4263030000000  0.5197890000000  0.5149130000000 1.0
C      1  0.4859150000000  0.5044020000000  0.5347220000000 1.0
C      1  0.5340230000000  0.5089670000000  0.4326860000000 1.0
C      1  0.5384570000000  0.4451110000000  0.4543340000000 1.0
C      1  0.4494250000000  0.4540180000000  0.5676560000000 1.0
C      1  0.4731630000000  0.4671850000000  0.4466350000000 1.0
C      1  0.4435370000000  0.5535220000000  0.4597440000000 1.0
C      1  0.5793790000000  0.5007460000000  0.5341890000000 1.0
C      1  0.5276840000000  0.4495460000000  0.5369520000000 1.0
C      1  0.4930710000000  0.5639080000000  0.4555870000000 1.0
C      1  0.5218210000000  0.4461190000000  0.4311180000000 1.0
C      1  0.4567920000000  0.4315300000000  0.5237650000000 1.0
C      1  0.5654420000000  0.5520160000000  0.4523650000000 1.0
C      1  0.5185540000000  0.5074600000000  0.5946380000000 1.0
C      1  0.4830090000000  0.5650310000000  0.5439610000000 1.0
C      1  0.4988590000000  0.5761780000000  0.5014250000000 1.0
C      1  0.4225580000000  0.4850040000000  0.4368750000000 1.0
C      1  0.5457180000000  0.4822470000000  0.5641610000000 1.0
C      1  0.4484080000000  0.5272930000000  0.4945360000000 1.0
C      1  0.4746310000000  0.5615920000000  0.5156140000000 1.0
C      1  0.5835320000000  0.4545550000000  0.4841840000000 1.0
C      1  0.5245370000000  0.4630610000000  0.5621180000000 1.0
C      1  0.4432120000000  0.4883730000000  0.4176240000000 1.0
C      1  0.4511030000000  0.4467020000000  0.4497490000000 1.0
C      1  0.5889710000000  0.4796690000000  0.4939440000000 1.0
C      1  0.4625880000000  0.4420790000000  0.4961600000000 1.0
C      1  0.5067210000000  0.4415610000000  0.4928170000000 1.0
C      1  0.4318360000000  0.5329930000000  0.4434070000000 1.0
C      1  0.4979750000000  0.4681880000000  0.5714610000000 1.0
C      1  0.4820750000000  0.4347930000000  0.5386790000000 1.0
C      1  0.5296770000000  0.4647300000000  0.4119880000000 1.0
C      1  0.4661460000000  0.5655600000000  0.4503890000000 1.0
C      1  0.5228980000000  0.5728360000000  0.5186750000000 1.0
C      1  0.5659410000000  0.4762380000000  0.5443820000000 1.0
C      1  0.5530970000000  0.5000740000000  0.4544090000000 1.0
C      1  0.4258200000000  0.4621410000000  0.4565380000000 1.0
C      1  0.5704900000000  0.5279420000000  0.5429870000000 1.0
C      1  0.5732480000000  0.5004800000000  0.5054330000000 1.0
C      1  0.4910450000000  0.5063940000000  0.4218930000000 1.0
C      1  0.5533020000000  0.4565760000000  0.5245110000000 1.0
END
