TITL C-951343-2256-554 -3.743594928657e-06 125000 -561.870298519206 0 0 92 (C1) n - 1
REM
REM in /home/bkarasulu/work/CARBON/AIRSS/Generating-Clusters/EDIP-Nigel-Params/with-SteepDescent/Only-C1/SD-CG/HFTN-CG
REM
REM
REM
REM
REM
REM ./C.cell (11c1c37f851c82e70ff6c80c92926a4b)
REM
REM compiler GCC version 9.2.1 20190827 (Red Hat 9.2.1-1)
REM options -cpp -mtune=generic -march=x86-64 -g -O0 -fpre-include=/usr/include/finclude/math-vector-fortran.h
REM seed 1684895400 2078535647 -1935421895 -1373372338 952633866 -137769423 -1492516574 1901281018 823252949 962220687 1599100252 1314186026 -1292462172 479213793 1451625798 1630020491 512811926 2022071773 -251176397 -1926231052 1740197772 1563794104 267530400 -1824297647 1717891551 -1632266213 -564347068 -1893061877 -1202888572 1970958658 566086935 -2078211035 137677467
REM
CELL 1.54180   50.00000   50.00000   50.00000   90.00000   90.00000   90.00000
LATT -1
SFAC C  
C      1  0.5103410000000  0.5899540000000  0.5345560000000 1.0
C      1  0.5871220000000  0.5018580000000  0.5072490000000 1.0
C      1  0.4842040000000  0.4152140000000  0.4991760000000 1.0
C      1  0.5270400000000  0.5180570000000  0.4229910000000 1.0
C      1  0.5529060000000  0.4778180000000  0.4336760000000 1.0
C      1  0.4914710000000  0.4373370000000  0.5511860000000 1.0
C      1  0.4462700000000  0.5279000000000  0.4989310000000 1.0
C      1  0.5224390000000  0.5268700000000  0.5699010000000 1.0
C      1  0.4892970000000  0.5128350000000  0.5309220000000 1.0
C      1  0.4419520000000  0.4409300000000  0.5535820000000 1.0
C      1  0.4514290000000  0.4967900000000  0.5641150000000 1.0
C      1  0.5685870000000  0.5279090000000  0.5591180000000 1.0
C      1  0.5265310000000  0.4439370000000  0.4599230000000 1.0
C      1  0.4589890000000  0.4931960000000  0.4260480000000 1.0
C      1  0.5106630000000  0.4766420000000  0.5431350000000 1.0
C      1  0.4493760000000  0.5845600000000  0.4742210000000 1.0
C      1  0.5056100000000  0.4215730000000  0.4608920000000 1.0
C      1  0.5202830000000  0.4421790000000  0.5578290000000 1.0
C      1  0.4695490000000  0.4759340000000  0.5746130000000 1.0
C      1  0.5519080000000  0.4800260000000  0.5347660000000 1.0
C      1  0.5626650000000  0.5623490000000  0.4710510000000 1.0
C      1  0.5699630000000  0.5303420000000  0.4395760000000 1.0
C      1  0.4870510000000  0.5272900000000  0.4696240000000 1.0
C      1  0.4122950000000  0.5222970000000  0.5299390000000 1.0
C      1  0.4033770000000  0.4787000000000  0.5107530000000 1.0
C      1  0.4591990000000  0.4515320000000  0.4634240000000 1.0
C      1  0.4832360000000  0.5885320000000  0.5345510000000 1.0
C      1  0.4960430000000  0.5152630000000  0.5744540000000 1.0
C      1  0.4671730000000  0.4485540000000  0.5644560000000 1.0
C      1  0.4319570000000  0.5289750000000  0.4728620000000 1.0
C      1  0.4773600000000  0.4235370000000  0.5280120000000 1.0
C      1  0.5226970000000  0.5551810000000  0.5650460000000 1.0
C      1  0.4059420000000  0.4875380000000  0.4646320000000 1.0
C      1  0.5534500000000  0.5549140000000  0.4432020000000 1.0
C      1  0.5329360000000  0.4605440000000  0.5774790000000 1.0
C      1  0.4521920000000  0.5494780000000  0.5416230000000 1.0
C      1  0.5879370000000  0.5243660000000  0.5253570000000 1.0
C      1  0.4533940000000  0.5004560000000  0.5073320000000 1.0
C      1  0.4680830000000  0.5219700000000  0.5623410000000 1.0
C      1  0.4761920000000  0.5616860000000  0.5311300000000 1.0
C      1  0.5773010000000  0.4540880000000  0.5033940000000 1.0
C      1  0.4759910000000  0.5365470000000  0.4433530000000 1.0
C      1  0.5146950000000  0.4618720000000  0.4799190000000 1.0
C      1  0.5538100000000  0.4244810000000  0.4973850000000 1.0
C      1  0.5050050000000  0.5015860000000  0.4339500000000 1.0
C      1  0.5304630000000  0.5720500000000  0.5426860000000 1.0
C      1  0.5629410000000  0.5361370000000  0.5321810000000 1.0
C      1  0.4449730000000  0.5425770000000  0.4477470000000 1.0
C      1  0.4352740000000  0.5078280000000  0.4335370000000 1.0
C      1  0.5292830000000  0.4594480000000  0.4339230000000 1.0
C      1  0.4383470000000  0.4875350000000  0.5399970000000 1.0
C      1  0.5157490000000  0.4028660000000  0.4814930000000 1.0
C      1  0.4489840000000  0.4281820000000  0.5294800000000 1.0
C      1  0.5045200000000  0.4481110000000  0.5034640000000 1.0
C      1  0.5517580000000  0.5071680000000  0.4325250000000 1.0
C      1  0.4979730000000  0.5428390000000  0.5373410000000 1.0
C      1  0.4127430000000  0.4705240000000  0.4855520000000 1.0
C      1  0.5733810000000  0.5075590000000  0.4818900000000 1.0
C      1  0.4117260000000  0.4944020000000  0.5324500000000 1.0
C      1  0.5437500000000  0.5654230000000  0.4934770000000 1.0
C      1  0.4413760000000  0.5718690000000  0.4508950000000 1.0
C      1  0.4282560000000  0.5033990000000  0.4602240000000 1.0
C      1  0.5820240000000  0.5295550000000  0.4658790000000 1.0
C      1  0.4324050000000  0.5406610000000  0.5220070000000 1.0
C      1  0.4970270000000  0.5749290000000  0.4615180000000 1.0
C      1  0.5777500000000  0.4767630000000  0.5213330000000 1.0
C      1  0.5136090000000  0.4738310000000  0.5937510000000 1.0
C      1  0.4786200000000  0.4307410000000  0.4724260000000 1.0
C      1  0.5539920000000  0.4358960000000  0.4703440000000 1.0
C      1  0.5074990000000  0.5062530000000  0.4641480000000 1.0
C      1  0.5557740000000  0.4862030000000  0.4705740000000 1.0
C      1  0.4973580000000  0.5521800000000  0.4822200000000 1.0
C      1  0.4971590000000  0.4859920000000  0.5724630000000 1.0
C      1  0.5251620000000  0.4972790000000  0.5136530000000 1.0
C      1  0.4811950000000  0.4942370000000  0.5094920000000 1.0
C      1  0.5512090000000  0.5619880000000  0.5232880000000 1.0
C      1  0.4367720000000  0.4534850000000  0.4835730000000 1.0
C      1  0.5037650000000  0.4725510000000  0.4281400000000 1.0
C      1  0.4798840000000  0.5135870000000  0.4243340000000 1.0
C      1  0.5495460000000  0.4822730000000  0.5639310000000 1.0
C      1  0.4379430000000  0.4358880000000  0.5051410000000 1.0
C      1  0.4728970000000  0.5912250000000  0.4611850000000 1.0
C      1  0.4690600000000  0.4685510000000  0.4407740000000 1.0
C      1  0.5224150000000  0.5290680000000  0.5181930000000 1.0
C      1  0.5481130000000  0.5120430000000  0.5726660000000 1.0
C      1  0.4917640000000  0.4695530000000  0.5208590000000 1.0
C      1  0.5257690000000  0.4888250000000  0.4826340000000 1.0
C      1  0.5268890000000  0.4175990000000  0.5038390000000 1.0
C      1  0.4980460000000  0.5579690000000  0.4373140000000 1.0
C      1  0.5698800000000  0.4597360000000  0.4760860000000 1.0
C      1  0.5256210000000  0.5451610000000  0.4347590000000 1.0
C      1  0.5234470000000  0.5444650000000  0.4929430000000 1.0
END
