TITL C-951340-9809-695 -1.70431259561925e-06 125000 -1202.46997765152 0 0 192 (C1) n - 1
REM
REM in /home/bkarasulu/work/CARBON/AIRSS/Generating-Clusters/EDIP-Nigel-Params/with-SteepDescent/Only-C1/SD-CG/HFTN-CG
REM
REM
REM
REM
REM
REM ./C.cell (11c1c37f851c82e70ff6c80c92926a4b)
REM
REM compiler GCC version 9.2.1 20190827 (Red Hat 9.2.1-1)
REM options -cpp -mtune=generic -march=x86-64 -g -O0 -fpre-include=/usr/include/finclude/math-vector-fortran.h
REM seed 263466250 667123952 -405619992 -1266498651 943908111 -1169020591 301746586 1254130318 -1758014719 1957771329 -1760698135 1424101830 -73132885 795117164 985737893 -380236972 1106383844 1274045181 862772574 274134457 1744152280 1204382246 1834043721 71313564 1472864277 -1561194396 970066471 444727336 1617837432 -1416274298 -298355133 -325129783 -805427871
REM
CELL 1.54180   50.00000   50.00000   50.00000   90.00000   90.00000   90.00000
LATT -1
SFAC C  
C      1  0.4585800000000  0.4569800000000  0.4111150000000 1.0
C      1  0.5046690000000  0.4513080000000  0.4644810000000 1.0
C      1  0.5308120000000  0.5191540000000  0.5165230000000 1.0
C      1  0.6154530000000  0.4847680000000  0.4944840000000 1.0
C      1  0.4905190000000  0.5674900000000  0.5264300000000 1.0
C      1  0.5727650000000  0.5198980000000  0.5298980000000 1.0
C      1  0.4927680000000  0.5915180000000  0.4464440000000 1.0
C      1  0.4385450000000  0.5588710000000  0.4052840000000 1.0
C      1  0.5801140000000  0.5837210000000  0.5063670000000 1.0
C      1  0.5803900000000  0.4735910000000  0.5835140000000 1.0
C      1  0.5415860000000  0.4497110000000  0.4994490000000 1.0
C      1  0.5613250000000  0.4848580000000  0.4957560000000 1.0
C      1  0.5893670000000  0.5498120000000  0.4436090000000 1.0
C      1  0.4905650000000  0.5119900000000  0.3862890000000 1.0
C      1  0.5078570000000  0.5166860000000  0.4266560000000 1.0
C      1  0.5682170000000  0.4334140000000  0.4958760000000 1.0
C      1  0.4447360000000  0.3951150000000  0.5363440000000 1.0
C      1  0.5214210000000  0.5703220000000  0.4722290000000 1.0
C      1  0.5834870000000  0.4680990000000  0.4260830000000 1.0
C      1  0.4267190000000  0.4556000000000  0.4514850000000 1.0
C      1  0.5370580000000  0.4769540000000  0.5373280000000 1.0
C      1  0.5218390000000  0.5243170000000  0.5444860000000 1.0
C      1  0.5514140000000  0.5455680000000  0.4774340000000 1.0
C      1  0.6191640000000  0.5134460000000  0.5003550000000 1.0
C      1  0.5802890000000  0.5864550000000  0.5348840000000 1.0
C      1  0.4492800000000  0.4976000000000  0.5923970000000 1.0
C      1  0.4938580000000  0.5578490000000  0.4089950000000 1.0
C      1  0.3926370000000  0.5377480000000  0.5448960000000 1.0
C      1  0.5189380000000  0.5097130000000  0.3905160000000 1.0
C      1  0.5419320000000  0.5101670000000  0.5688250000000 1.0
C      1  0.5365540000000  0.4911600000000  0.5113410000000 1.0
C      1  0.5269250000000  0.5523910000000  0.5495690000000 1.0
C      1  0.4568800000000  0.5598740000000  0.5784240000000 1.0
C      1  0.5532140000000  0.4632310000000  0.5886640000000 1.0
C      1  0.5527600000000  0.4402580000000  0.5685410000000 1.0
C      1  0.4321510000000  0.5302590000000  0.5108280000000 1.0
C      1  0.4245000000000  0.5162400000000  0.5377870000000 1.0
C      1  0.5962420000000  0.4952350000000  0.4244790000000 1.0
C      1  0.6112110000000  0.5363800000000  0.4842120000000 1.0
C      1  0.4882030000000  0.3995780000000  0.5166250000000 1.0
C      1  0.5938910000000  0.5333980000000  0.5467520000000 1.0
C      1  0.5582310000000  0.4808190000000  0.4651460000000 1.0
C      1  0.4496920000000  0.4499450000000  0.4703370000000 1.0
C      1  0.4413780000000  0.4040680000000  0.4775090000000 1.0
C      1  0.4952710000000  0.5105980000000  0.6096530000000 1.0
C      1  0.5021010000000  0.4617980000000  0.6154570000000 1.0
C      1  0.4159720000000  0.4391310000000  0.5040960000000 1.0
C      1  0.5116600000000  0.5307630000000  0.4985840000000 1.0
C      1  0.4524710000000  0.4441810000000  0.5457280000000 1.0
C      1  0.5689940000000  0.5763950000000  0.5593260000000 1.0
C      1  0.5103340000000  0.4238490000000  0.5898600000000 1.0
C      1  0.4740530000000  0.5006320000000  0.5022880000000 1.0
C      1  0.5042620000000  0.4035950000000  0.4478510000000 1.0
C      1  0.5618040000000  0.5856250000000  0.4632950000000 1.0
C      1  0.4437320000000  0.4915260000000  0.5377220000000 1.0
C      1  0.4729500000000  0.5500090000000  0.4893880000000 1.0
C      1  0.4339930000000  0.5424830000000  0.5706600000000 1.0
C      1  0.4699960000000  0.4570530000000  0.5673040000000 1.0
C      1  0.5345200000000  0.4093010000000  0.5179020000000 1.0
C      1  0.5445910000000  0.5890330000000  0.4400700000000 1.0
C      1  0.5346120000000  0.4592740000000  0.4569010000000 1.0
C      1  0.5302240000000  0.5994680000000  0.4969410000000 1.0
C      1  0.5110790000000  0.4419270000000  0.4921670000000 1.0
C      1  0.5071480000000  0.4626980000000  0.4178970000000 1.0
C      1  0.4360460000000  0.4409870000000  0.5978300000000 1.0
C      1  0.4633820000000  0.4881920000000  0.5675900000000 1.0
C      1  0.5094370000000  0.4860050000000  0.6034960000000 1.0
C      1  0.5229380000000  0.5965280000000  0.5542820000000 1.0
C      1  0.5564330000000  0.4208680000000  0.4545030000000 1.0
C      1  0.4471590000000  0.4862630000000  0.5068480000000 1.0
C      1  0.5178110000000  0.3954370000000  0.4733570000000 1.0
C      1  0.5752430000000  0.4410300000000  0.5468860000000 1.0
C      1  0.5854410000000  0.5696330000000  0.4637280000000 1.0
C      1  0.4337030000000  0.5739310000000  0.4780900000000 1.0
C      1  0.5828750000000  0.4650990000000  0.4563540000000 1.0
C      1  0.4061220000000  0.5067640000000  0.4304170000000 1.0
C      1  0.4632320000000  0.5314570000000  0.5098330000000 1.0
C      1  0.5189140000000  0.5998360000000  0.4410450000000 1.0
C      1  0.4672180000000  0.5079650000000  0.6117010000000 1.0
C      1  0.5030970000000  0.4358260000000  0.5374880000000 1.0
C      1  0.5849250000000  0.5017330000000  0.5812820000000 1.0
C      1  0.5345540000000  0.4876110000000  0.5891220000000 1.0
C      1  0.5128540000000  0.5598580000000  0.5058620000000 1.0
C      1  0.5780380000000  0.4371270000000  0.4667760000000 1.0
C      1  0.4272600000000  0.5051100000000  0.4950230000000 1.0
C      1  0.5950430000000  0.5621680000000  0.4904250000000 1.0
C      1  0.4792530000000  0.5384510000000  0.3920660000000 1.0
C      1  0.4646240000000  0.5807630000000  0.5603110000000 1.0
C      1  0.6031140000000  0.4824620000000  0.5422390000000 1.0
C      1  0.5472770000000  0.4989850000000  0.4215800000000 1.0
C      1  0.4951000000000  0.4411310000000  0.4040020000000 1.0
C      1  0.6036160000000  0.5080360000000  0.5596330000000 1.0
C      1  0.4495370000000  0.5824480000000  0.5354110000000 1.0
C      1  0.4125460000000  0.4436960000000  0.5817220000000 1.0
C      1  0.5230870000000  0.5543670000000  0.4101050000000 1.0
C      1  0.4641930000000  0.4435540000000  0.5927930000000 1.0
C      1  0.5581860000000  0.5460000000000  0.5085880000000 1.0
C      1  0.5430760000000  0.5841810000000  0.5745000000000 1.0
C      1  0.5988050000000  0.4719230000000  0.5151620000000 1.0
C      1  0.3919250000000  0.5361780000000  0.4690320000000 1.0
C      1  0.4504420000000  0.5354290000000  0.3954440000000 1.0
C      1  0.4610780000000  0.3896060000000  0.5146000000000 1.0
C      1  0.5768900000000  0.5490860000000  0.5668400000000 1.0
C      1  0.6138360000000  0.5015370000000  0.4471760000000 1.0
C      1  0.4136450000000  0.5554060000000  0.5529030000000 1.0
C      1  0.4871180000000  0.4881280000000  0.4246810000000 1.0
C      1  0.5009770000000  0.6078940000000  0.4934800000000 1.0
C      1  0.4858880000000  0.4276410000000  0.4496340000000 1.0
C      1  0.4711860000000  0.4914060000000  0.3981500000000 1.0
C      1  0.4909480000000  0.4375680000000  0.6062460000000 1.0
C      1  0.4882110000000  0.4585300000000  0.5046280000000 1.0
C      1  0.4508900000000  0.3809990000000  0.4898690000000 1.0
C      1  0.5269970000000  0.4005280000000  0.5484750000000 1.0
C      1  0.4013220000000  0.4353540000000  0.5326880000000 1.0
C      1  0.4274450000000  0.5146560000000  0.5820510000000 1.0
C      1  0.5221860000000  0.4058470000000  0.4261000000000 1.0
C      1  0.4676770000000  0.4894630000000  0.4499980000000 1.0
C      1  0.5372830000000  0.5639780000000  0.5233340000000 1.0
C      1  0.5804640000000  0.5096900000000  0.5009570000000 1.0
C      1  0.4420630000000  0.5066460000000  0.4469750000000 1.0
C      1  0.3741260000000  0.4996620000000  0.5041540000000 1.0
C      1  0.4902580000000  0.5032810000000  0.5676200000000 1.0
C      1  0.5585830000000  0.4047190000000  0.5000070000000 1.0
C      1  0.5349340000000  0.5324220000000  0.3958870000000 1.0
C      1  0.4979720000000  0.4057770000000  0.5436730000000 1.0
C      1  0.4053060000000  0.5476240000000  0.4471220000000 1.0
C      1  0.5327570000000  0.5556560000000  0.5875330000000 1.0
C      1  0.5047130000000  0.5437890000000  0.4489930000000 1.0
C      1  0.5634720000000  0.5290060000000  0.4029690000000 1.0
C      1  0.4842180000000  0.5942690000000  0.4735230000000 1.0
C      1  0.5325950000000  0.4187220000000  0.5721490000000 1.0
C      1  0.4177220000000  0.5636830000000  0.5010460000000 1.0
C      1  0.5121820000000  0.4896440000000  0.4666790000000 1.0
C      1  0.4048130000000  0.4974260000000  0.5718870000000 1.0
C      1  0.4409850000000  0.4168520000000  0.5536260000000 1.0
C      1  0.6068650000000  0.5293020000000  0.4563960000000 1.0
C      1  0.4085000000000  0.4680390000000  0.5621200000000 1.0
C      1  0.5598540000000  0.5982140000000  0.4888050000000 1.0
C      1  0.4742210000000  0.4334150000000  0.4215260000000 1.0
C      1  0.4615720000000  0.4235370000000  0.4676820000000 1.0
C      1  0.4938680000000  0.4836530000000  0.5200050000000 1.0
C      1  0.4327570000000  0.4646700000000  0.4230440000000 1.0
C      1  0.5858620000000  0.4449460000000  0.5181030000000 1.0
C      1  0.4927640000000  0.5209420000000  0.5440130000000 1.0
C      1  0.4477250000000  0.5717680000000  0.4286140000000 1.0
C      1  0.4782730000000  0.5728420000000  0.4291750000000 1.0
C      1  0.5020850000000  0.5733120000000  0.5544460000000 1.0
C      1  0.5259010000000  0.4999930000000  0.4420730000000 1.0
C      1  0.3876740000000  0.4616730000000  0.5387920000000 1.0
C      1  0.4068180000000  0.4720180000000  0.4659300000000 1.0
C      1  0.4618560000000  0.5785710000000  0.4872360000000 1.0
C      1  0.4335130000000  0.5578440000000  0.4520690000000 1.0
C      1  0.4443950000000  0.4535050000000  0.5001760000000 1.0
C      1  0.4006680000000  0.5337190000000  0.4232340000000 1.0
C      1  0.5244520000000  0.5314010000000  0.4724640000000 1.0
C      1  0.3803390000000  0.5183290000000  0.4856460000000 1.0
C      1  0.5351200000000  0.4542020000000  0.4274250000000 1.0
C      1  0.5425730000000  0.4250620000000  0.4287980000000 1.0
C      1  0.4179060000000  0.4148400000000  0.4886950000000 1.0
C      1  0.5559880000000  0.4711370000000  0.4151110000000 1.0
C      1  0.4981790000000  0.4539010000000  0.5599100000000 1.0
C      1  0.4231920000000  0.4913090000000  0.4119980000000 1.0
C      1  0.5707290000000  0.5512650000000  0.4205730000000 1.0
C      1  0.5101790000000  0.4105520000000  0.4984710000000 1.0
C      1  0.5718810000000  0.5103980000000  0.4362610000000 1.0
C      1  0.5353020000000  0.4463220000000  0.5293420000000 1.0
C      1  0.5899920000000  0.4628810000000  0.5587770000000 1.0
C      1  0.5478050000000  0.3984960000000  0.4722590000000 1.0
C      1  0.5537850000000  0.5354470000000  0.5807350000000 1.0
C      1  0.5464140000000  0.5670860000000  0.4220970000000 1.0
C      1  0.4605210000000  0.5952990000000  0.5125460000000 1.0
C      1  0.5380420000000  0.5944070000000  0.5273170000000 1.0
C      1  0.4520450000000  0.5340380000000  0.4517130000000 1.0
C      1  0.5013490000000  0.5329820000000  0.5909840000000 1.0
C      1  0.4866140000000  0.6046920000000  0.5178860000000 1.0
C      1  0.5076890000000  0.4796870000000  0.5487670000000 1.0
C      1  0.4129990000000  0.4235110000000  0.5587280000000 1.0
C      1  0.4164800000000  0.5010650000000  0.4672870000000 1.0
C      1  0.4787380000000  0.5341210000000  0.4648290000000 1.0
C      1  0.6082820000000  0.4793210000000  0.4662600000000 1.0
C      1  0.3891460000000  0.5110950000000  0.5523200000000 1.0
C      1  0.4753910000000  0.5417080000000  0.5339970000000 1.0
C      1  0.5665980000000  0.5186860000000  0.4699960000000 1.0
C      1  0.3980790000000  0.4593980000000  0.4914970000000 1.0
C      1  0.5622610000000  0.4963130000000  0.5506950000000 1.0
C      1  0.4686540000000  0.4390070000000  0.5189320000000 1.0
C      1  0.3874870000000  0.4764300000000  0.5124180000000 1.0
C      1  0.4788110000000  0.5498910000000  0.5921710000000 1.0
C      1  0.4246410000000  0.5695890000000  0.5295520000000 1.0
C      1  0.4838580000000  0.5027230000000  0.4716950000000 1.0
C      1  0.4315970000000  0.4659860000000  0.5434050000000 1.0
C      1  0.4465610000000  0.5070390000000  0.4030850000000 1.0
END
