TITL C-951342-2639-605 -0.00211944418550234 125000 -182.328485764112 0 0 32 (C1) n - 1
REM
REM in /home/bkarasulu/work/CARBON/AIRSS/Generating-Clusters/EDIP-Nigel-Params/with-SteepDescent/Only-C1/SD-CG/HFTN-CG
REM
REM
REM
REM
REM
REM ./C.cell (11c1c37f851c82e70ff6c80c92926a4b)
REM
REM compiler GCC version 9.2.1 20190827 (Red Hat 9.2.1-1)
REM options -cpp -mtune=generic -march=x86-64 -g -O0 -fpre-include=/usr/include/finclude/math-vector-fortran.h
REM seed 1114512053 -1437994274 733728216 -617753982 2040872045 245343238 -1775176305 432835200 -1926259591 -110796683 2003078377 -1516664793 828732104 56023548 294309887 -1811113941 543090655 470714040 464351495 239818084 -113746279 1765800937 1072620113 -800037999 2030694670 662246167 1555903841 -452866563 1218062227 -1503926439 -1759768879 -1232205728 -991115560
REM
CELL 1.54180   50.00000   50.00000   50.00000   90.00000   90.00000   90.00000
LATT -1
SFAC C  
C      1  0.5175950000000  0.4588890000000  0.5434280000000 1.0
C      1  0.5397400000000  0.4749920000000  0.5276180000000 1.0
C      1  0.4975720000000  0.4981360000000  0.5472330000000 1.0
C      1  0.4931230000000  0.4649630000000  0.4557180000000 1.0
C      1  0.5225070000000  0.4742670000000  0.5022600000000 1.0
C      1  0.4510820000000  0.4821800000000  0.5367940000000 1.0
C      1  0.5252240000000  0.5467420000000  0.4782320000000 1.0
C      1  0.5323020000000  0.5024040000000  0.4489500000000 1.0
C      1  0.5658030000000  0.5047140000000  0.4879910000000 1.0
C      1  0.4414160000000  0.5303840000000  0.4680370000000 1.0
C      1  0.4723900000000  0.4807610000000  0.4431090000000 1.0
C      1  0.5119040000000  0.5001580000000  0.4924950000000 1.0
C      1  0.5297380000000  0.5742510000000  0.4836560000000 1.0
C      1  0.5049500000000  0.5665890000000  0.4767490000000 1.0
C      1  0.4859020000000  0.4522730000000  0.4803260000000 1.0
C      1  0.5077890000000  0.4970670000000  0.4636010000000 1.0
C      1  0.4642140000000  0.4632680000000  0.4957540000000 1.0
C      1  0.5536790000000  0.5192620000000  0.5088770000000 1.0
C      1  0.4601520000000  0.5132220000000  0.4775690000000 1.0
C      1  0.4475910000000  0.4866720000000  0.4874970000000 1.0
C      1  0.5188100000000  0.5175280000000  0.5435650000000 1.0
C      1  0.4654020000000  0.4600280000000  0.5241770000000 1.0
C      1  0.5025610000000  0.4543220000000  0.5154470000000 1.0
C      1  0.5451930000000  0.5047280000000  0.5349690000000 1.0
C      1  0.4700580000000  0.5063680000000  0.5416190000000 1.0
C      1  0.5553720000000  0.5019490000000  0.4631640000000 1.0
C      1  0.4592690000000  0.5198110000000  0.5161470000000 1.0
C      1  0.4792000000000  0.5064400000000  0.4547330000000 1.0
C      1  0.5125260000000  0.5378070000000  0.5246720000000 1.0
C      1  0.4378480000000  0.4982440000000  0.5128730000000 1.0
C      1  0.5036490000000  0.4750090000000  0.5621740000000 1.0
C      1  0.5254400000000  0.5265710000000  0.5005650000000 1.0
END
