TITL C-951347-9520-572 2.59098801342129e-06 125000 -1153.39921837847 0 0 184 (C1) n - 1
REM
REM in /home/bkarasulu/work/CARBON/AIRSS/Generating-Clusters/EDIP-Nigel-Params/with-SteepDescent/Only-C1/SD-CG/HFTN-CG
REM
REM
REM
REM
REM
REM ./C.cell (11c1c37f851c82e70ff6c80c92926a4b)
REM
REM compiler GCC version 9.2.1 20190827 (Red Hat 9.2.1-1)
REM options -cpp -mtune=generic -march=x86-64 -g -O0 -fpre-include=/usr/include/finclude/math-vector-fortran.h
REM seed 1438555387 -2031640096 1276571559 -1376209427 1877708706 517793153 764662165 -2102934359 1445351299 -441038992 1202238461 -1956398789 411219347 -1545907482 1509932840 -1800250723 -2000861888 370867115 1727522009 59128389 -1322613969 1067033515 -875725011 495528748 -607043844 904686609 -1346893529 -581393700 865259606 -1389912998 -1716939881 -491407993 -287717922
REM
CELL 1.54180   50.00000   50.00000   50.00000   90.00000   90.00000   90.00000
LATT -1
SFAC C  
C      1  0.4663710000000  0.5700780000000  0.4411060000000 1.0
C      1  0.4263580000000  0.4341120000000  0.5498250000000 1.0
C      1  0.4504970000000  0.5447130000000  0.4052490000000 1.0
C      1  0.5043600000000  0.4975880000000  0.5444740000000 1.0
C      1  0.4702170000000  0.5570970000000  0.5789360000000 1.0
C      1  0.4664560000000  0.4089960000000  0.5458440000000 1.0
C      1  0.5305780000000  0.4782380000000  0.4391470000000 1.0
C      1  0.5910040000000  0.4578640000000  0.5490810000000 1.0
C      1  0.5145730000000  0.6179420000000  0.4965820000000 1.0
C      1  0.4804650000000  0.5481480000000  0.4568110000000 1.0
C      1  0.4585610000000  0.4291790000000  0.5893230000000 1.0
C      1  0.4843850000000  0.5556360000000  0.4844760000000 1.0
C      1  0.5540120000000  0.3931490000000  0.5294890000000 1.0
C      1  0.4369970000000  0.5237800000000  0.4175950000000 1.0
C      1  0.4021350000000  0.5550090000000  0.4792550000000 1.0
C      1  0.5568990000000  0.4776680000000  0.4550150000000 1.0
C      1  0.5259340000000  0.4876720000000  0.5622520000000 1.0
C      1  0.5669510000000  0.6066040000000  0.4997590000000 1.0
C      1  0.4358350000000  0.4821290000000  0.5341090000000 1.0
C      1  0.5413660000000  0.4527300000000  0.5221680000000 1.0
C      1  0.5357870000000  0.4574840000000  0.5979090000000 1.0
C      1  0.5891660000000  0.5336420000000  0.4449840000000 1.0
C      1  0.5430520000000  0.5239210000000  0.4758780000000 1.0
C      1  0.6064550000000  0.5056210000000  0.5189480000000 1.0
C      1  0.4704320000000  0.5622420000000  0.4128440000000 1.0
C      1  0.4193920000000  0.5521480000000  0.4554670000000 1.0
C      1  0.5703100000000  0.4796930000000  0.5424100000000 1.0
C      1  0.5554350000000  0.5127630000000  0.4283380000000 1.0
C      1  0.5445710000000  0.4194980000000  0.5685710000000 1.0
C      1  0.4534960000000  0.4702080000000  0.4920260000000 1.0
C      1  0.4811960000000  0.5039530000000  0.4630090000000 1.0
C      1  0.5018890000000  0.5042410000000  0.3998670000000 1.0
C      1  0.5000530000000  0.5183140000000  0.5928520000000 1.0
C      1  0.5073620000000  0.5329180000000  0.3955410000000 1.0
C      1  0.5718190000000  0.5394410000000  0.5309200000000 1.0
C      1  0.5612840000000  0.5423020000000  0.4367050000000 1.0
C      1  0.4473150000000  0.4506680000000  0.4109440000000 1.0
C      1  0.4333270000000  0.5216650000000  0.5890310000000 1.0
C      1  0.4952720000000  0.4764890000000  0.5240040000000 1.0
C      1  0.4742910000000  0.4918080000000  0.4015540000000 1.0
C      1  0.5903540000000  0.5811290000000  0.5289150000000 1.0
C      1  0.5041820000000  0.3911590000000  0.4728310000000 1.0
C      1  0.4077670000000  0.4484930000000  0.5316020000000 1.0
C      1  0.5074980000000  0.4340750000000  0.5459330000000 1.0
C      1  0.4390970000000  0.4255170000000  0.4563790000000 1.0
C      1  0.5283760000000  0.3995870000000  0.4877750000000 1.0
C      1  0.4135350000000  0.5532190000000  0.5532560000000 1.0
C      1  0.5620820000000  0.4134590000000  0.5461720000000 1.0
C      1  0.4581290000000  0.3900940000000  0.4962460000000 1.0
C      1  0.5073350000000  0.4256360000000  0.5743720000000 1.0
C      1  0.4600450000000  0.4944580000000  0.5467370000000 1.0
C      1  0.4329850000000  0.4731820000000  0.5831930000000 1.0
C      1  0.6066760000000  0.4946610000000  0.4662950000000 1.0
C      1  0.5220900000000  0.5707040000000  0.4251700000000 1.0
C      1  0.4770480000000  0.4158420000000  0.5725350000000 1.0
C      1  0.5776810000000  0.5636710000000  0.5464200000000 1.0
C      1  0.5902130000000  0.4479980000000  0.4564860000000 1.0
C      1  0.4310780000000  0.4742260000000  0.4193480000000 1.0
C      1  0.4055630000000  0.4437370000000  0.4818090000000 1.0
C      1  0.4718570000000  0.5858970000000  0.5715980000000 1.0
C      1  0.5881530000000  0.4346120000000  0.5067050000000 1.0
C      1  0.4741870000000  0.4864760000000  0.5056330000000 1.0
C      1  0.5333900000000  0.5654370000000  0.5076450000000 1.0
C      1  0.5813770000000  0.4568480000000  0.5791050000000 1.0
C      1  0.3842530000000  0.5328460000000  0.4876860000000 1.0
C      1  0.4802160000000  0.6063600000000  0.4706100000000 1.0
C      1  0.5245860000000  0.4405790000000  0.4703290000000 1.0
C      1  0.5955730000000  0.5417090000000  0.4731170000000 1.0
C      1  0.4929370000000  0.6093820000000  0.5129970000000 1.0
C      1  0.5520500000000  0.4475260000000  0.5748790000000 1.0
C      1  0.5597100000000  0.5797970000000  0.4605640000000 1.0
C      1  0.5644530000000  0.5016860000000  0.4751710000000 1.0
C      1  0.5092740000000  0.4390050000000  0.4946230000000 1.0
C      1  0.5678150000000  0.4903840000000  0.5059860000000 1.0
C      1  0.4088350000000  0.5031540000000  0.4529310000000 1.0
C      1  0.3881960000000  0.4868920000000  0.5025020000000 1.0
C      1  0.5393770000000  0.5537980000000  0.5799020000000 1.0
C      1  0.5281030000000  0.5156670000000  0.4479750000000 1.0
C      1  0.4501700000000  0.5918430000000  0.5527700000000 1.0
C      1  0.5546710000000  0.5726250000000  0.5631480000000 1.0
C      1  0.4977960000000  0.5831770000000  0.4775230000000 1.0
C      1  0.3879710000000  0.5050080000000  0.4770770000000 1.0
C      1  0.5491220000000  0.5104870000000  0.3987100000000 1.0
C      1  0.4752630000000  0.5134340000000  0.4950510000000 1.0
C      1  0.4570160000000  0.5549270000000  0.4983400000000 1.0
C      1  0.3901350000000  0.5060290000000  0.5267560000000 1.0
C      1  0.5023850000000  0.5294450000000  0.5043070000000 1.0
C      1  0.4302820000000  0.4877140000000  0.4889870000000 1.0
C      1  0.4855230000000  0.4521990000000  0.5380230000000 1.0
C      1  0.4267330000000  0.5036740000000  0.5135610000000 1.0
C      1  0.5418420000000  0.4083390000000  0.4416430000000 1.0
C      1  0.4709130000000  0.4631130000000  0.3971920000000 1.0
C      1  0.4508240000000  0.4971170000000  0.4209020000000 1.0
C      1  0.4798420000000  0.4333980000000  0.4900910000000 1.0
C      1  0.5328910000000  0.4661650000000  0.4115250000000 1.0
C      1  0.4397760000000  0.5794090000000  0.5004620000000 1.0
C      1  0.5445030000000  0.4658100000000  0.5505850000000 1.0
C      1  0.4151990000000  0.5275790000000  0.5677710000000 1.0
C      1  0.5074020000000  0.4508540000000  0.5927670000000 1.0
C      1  0.5356140000000  0.5917050000000  0.5501180000000 1.0
C      1  0.4507960000000  0.5271580000000  0.5104910000000 1.0
C      1  0.5774140000000  0.4660190000000  0.4362700000000 1.0
C      1  0.5200870000000  0.4851280000000  0.4866120000000 1.0
C      1  0.4923500000000  0.5483880000000  0.5971750000000 1.0
C      1  0.4376190000000  0.4073230000000  0.5055820000000 1.0
C      1  0.5298590000000  0.5116520000000  0.6040050000000 1.0
C      1  0.5568770000000  0.6073210000000  0.4725310000000 1.0
C      1  0.4939640000000  0.4750220000000  0.5807920000000 1.0
C      1  0.4805270000000  0.5952450000000  0.4453120000000 1.0
C      1  0.5869210000000  0.5858640000000  0.5017060000000 1.0
C      1  0.5795620000000  0.4340470000000  0.5346270000000 1.0
C      1  0.5723270000000  0.4353190000000  0.4789160000000 1.0
C      1  0.4389350000000  0.5910770000000  0.4737960000000 1.0
C      1  0.5181230000000  0.5475100000000  0.5250050000000 1.0
C      1  0.4648160000000  0.4534380000000  0.4635880000000 1.0
C      1  0.4965290000000  0.5248400000000  0.4449160000000 1.0
C      1  0.5103300000000  0.4593360000000  0.4517780000000 1.0
C      1  0.4112670000000  0.5696300000000  0.5038540000000 1.0
C      1  0.5069490000000  0.5825720000000  0.5618470000000 1.0
C      1  0.5554190000000  0.5482790000000  0.4968400000000 1.0
C      1  0.4350720000000  0.5019820000000  0.4660980000000 1.0
C      1  0.5744160000000  0.5016810000000  0.5621560000000 1.0
C      1  0.5577510000000  0.4623720000000  0.4905850000000 1.0
C      1  0.4544440000000  0.4290070000000  0.4309260000000 1.0
C      1  0.5596170000000  0.4515640000000  0.4151870000000 1.0
C      1  0.5284600000000  0.6134200000000  0.4719860000000 1.0
C      1  0.5752300000000  0.4851540000000  0.5889440000000 1.0
C      1  0.4599080000000  0.5244400000000  0.5388470000000 1.0
C      1  0.5440940000000  0.5278760000000  0.5371060000000 1.0
C      1  0.4903130000000  0.4155010000000  0.4333830000000 1.0
C      1  0.4002420000000  0.4596340000000  0.5053950000000 1.0
C      1  0.4842800000000  0.5827840000000  0.5193510000000 1.0
C      1  0.5460980000000  0.5132070000000  0.5638320000000 1.0
C      1  0.5282060000000  0.5796470000000  0.4540840000000 1.0
C      1  0.4384170000000  0.4100080000000  0.5368180000000 1.0
C      1  0.4470850000000  0.4489610000000  0.5713510000000 1.0
C      1  0.5139960000000  0.5655620000000  0.5856230000000 1.0
C      1  0.6004450000000  0.5144320000000  0.4884800000000 1.0
C      1  0.5759980000000  0.5642430000000  0.4823780000000 1.0
C      1  0.4033780000000  0.5526370000000  0.5261970000000 1.0
C      1  0.4118470000000  0.4784820000000  0.5637340000000 1.0
C      1  0.3841850000000  0.5330020000000  0.5173720000000 1.0
C      1  0.5481290000000  0.5329370000000  0.5968520000000 1.0
C      1  0.5254850000000  0.5114730000000  0.4961390000000 1.0
C      1  0.6102970000000  0.4766300000000  0.5241860000000 1.0
C      1  0.4573540000000  0.4899990000000  0.4513590000000 1.0
C      1  0.5464410000000  0.4855250000000  0.6011100000000 1.0
C      1  0.4036660000000  0.5043310000000  0.5543310000000 1.0
C      1  0.5368720000000  0.5370530000000  0.3937780000000 1.0
C      1  0.5911490000000  0.5022600000000  0.4411520000000 1.0
C      1  0.4973690000000  0.5211670000000  0.5623630000000 1.0
C      1  0.4966890000000  0.5639310000000  0.5393680000000 1.0
C      1  0.5527090000000  0.4250450000000  0.4215930000000 1.0
C      1  0.6059190000000  0.4663120000000  0.4740630000000 1.0
C      1  0.4676240000000  0.4369890000000  0.5194170000000 1.0
C      1  0.5463590000000  0.5569130000000  0.4148490000000 1.0
C      1  0.5441580000000  0.4184990000000  0.4696250000000 1.0
C      1  0.4778980000000  0.4042040000000  0.4819130000000 1.0
C      1  0.4981870000000  0.4807670000000  0.4687620000000 1.0
C      1  0.4287190000000  0.4265670000000  0.4837610000000 1.0
C      1  0.5277870000000  0.4902630000000  0.3941380000000 1.0
C      1  0.4926740000000  0.4486320000000  0.3860810000000 1.0
C      1  0.4790890000000  0.5425220000000  0.5535380000000 1.0
C      1  0.4428650000000  0.4543200000000  0.5152120000000 1.0
C      1  0.4493240000000  0.4977520000000  0.5894720000000 1.0
C      1  0.4574730000000  0.5959000000000  0.5230480000000 1.0
C      1  0.4153820000000  0.5290950000000  0.4371230000000 1.0
C      1  0.5256940000000  0.4247510000000  0.5238760000000 1.0
C      1  0.4917130000000  0.4450430000000  0.4317010000000 1.0
C      1  0.4281130000000  0.5759650000000  0.5591210000000 1.0
C      1  0.5435930000000  0.5054270000000  0.5181570000000 1.0
C      1  0.4077380000000  0.4761250000000  0.4384470000000 1.0
C      1  0.5325190000000  0.3880700000000  0.5135700000000 1.0
C      1  0.5101280000000  0.4462320000000  0.4078330000000 1.0
C      1  0.4988880000000  0.5514730000000  0.4167870000000 1.0
C      1  0.4715140000000  0.4665240000000  0.5607260000000 1.0
C      1  0.5117320000000  0.3985090000000  0.4438250000000 1.0
C      1  0.5168660000000  0.4660910000000  0.5076580000000 1.0
C      1  0.5396970000000  0.5913380000000  0.5202120000000 1.0
C      1  0.4789550000000  0.4955800000000  0.5983310000000 1.0
C      1  0.4379610000000  0.5742540000000  0.4510000000000 1.0
C      1  0.4014970000000  0.4548670000000  0.4560890000000 1.0
C      1  0.6006670000000  0.4606900000000  0.5020880000000 1.0
C      1  0.5911460000000  0.5189120000000  0.5408270000000 1.0
END
