TITL C-950534-5965-212 -3.22733818830081e-06 125000 -859.001975863343 0 0 138 (C1) n - 1
REM
REM in /home/bkarasulu/work/CARBON/AIRSS/Generating-Clusters/EDIP-Nigel-Params/with-SteepDescent/Only-C1/SD-CG/HFTN-CG
REM
REM
REM
REM
REM
REM ./C.cell (11c1c37f851c82e70ff6c80c92926a4b)
REM
REM compiler GCC version 9.2.1 20190827 (Red Hat 9.2.1-1)
REM options -cpp -mtune=generic -march=x86-64 -g -O0 -fpre-include=/usr/include/finclude/math-vector-fortran.h
REM seed 534508414 237126942 -689209085 -306629262 -767389463 -1312926334 -518477746 -539501878 2073013724 1567698367 707590373 152015958 1187323204 -1684477913 1954280732 151347837 -114334497 -117623135 2133854469 -295165633 -1495147340 1371350127 2124458579 -78331487 1487768118 -1124243029 623928782 -1169459781 39774318 -1046827518 -1286167443 344138142 625646547
REM
CELL 1.54180   50.00000   50.00000   50.00000   90.00000   90.00000   90.00000
LATT -1
SFAC C  
C      1  0.4448060000000  0.5092390000000  0.4181830000000 1.0
C      1  0.4662630000000  0.4059680000000  0.5048380000000 1.0
C      1  0.4861650000000  0.5242180000000  0.5445170000000 1.0
C      1  0.5723780000000  0.4658200000000  0.4504120000000 1.0
C      1  0.4300670000000  0.4418320000000  0.5132690000000 1.0
C      1  0.4432080000000  0.4846100000000  0.4934910000000 1.0
C      1  0.5385370000000  0.5064870000000  0.4661720000000 1.0
C      1  0.5365970000000  0.5780800000000  0.4611070000000 1.0
C      1  0.4411600000000  0.5502980000000  0.4473140000000 1.0
C      1  0.4552260000000  0.5350800000000  0.4267130000000 1.0
C      1  0.5213970000000  0.4088930000000  0.4920550000000 1.0
C      1  0.4534210000000  0.4941520000000  0.5420540000000 1.0
C      1  0.5313960000000  0.4870710000000  0.4035310000000 1.0
C      1  0.4450080000000  0.4975990000000  0.5889880000000 1.0
C      1  0.5272400000000  0.4553480000000  0.5926500000000 1.0
C      1  0.4802370000000  0.5733500000000  0.4361060000000 1.0
C      1  0.5641590000000  0.4731090000000  0.5089250000000 1.0
C      1  0.5025540000000  0.5408330000000  0.4074810000000 1.0
C      1  0.4934970000000  0.4135260000000  0.4500110000000 1.0
C      1  0.5356300000000  0.4345830000000  0.5723400000000 1.0
C      1  0.5701050000000  0.4185680000000  0.4949510000000 1.0
C      1  0.5189610000000  0.5716370000000  0.5752980000000 1.0
C      1  0.5455420000000  0.5054950000000  0.6039570000000 1.0
C      1  0.4917770000000  0.4593690000000  0.5421160000000 1.0
C      1  0.5559590000000  0.4770640000000  0.5470540000000 1.0
C      1  0.5433990000000  0.4228760000000  0.4503640000000 1.0
C      1  0.5074770000000  0.4832850000000  0.5509880000000 1.0
C      1  0.5489400000000  0.5313890000000  0.5916400000000 1.0
C      1  0.4894980000000  0.5221900000000  0.5768390000000 1.0
C      1  0.5415610000000  0.4818460000000  0.5881500000000 1.0
C      1  0.6022960000000  0.4922880000000  0.5191520000000 1.0
C      1  0.5805750000000  0.4497200000000  0.5163360000000 1.0
C      1  0.5427660000000  0.5174980000000  0.5500760000000 1.0
C      1  0.4322850000000  0.5686840000000  0.5203860000000 1.0
C      1  0.5017620000000  0.5036710000000  0.5319950000000 1.0
C      1  0.5672750000000  0.5600080000000  0.5526490000000 1.0
C      1  0.4185040000000  0.5407870000000  0.4611780000000 1.0
C      1  0.5196210000000  0.4116100000000  0.4408670000000 1.0
C      1  0.4756320000000  0.4099900000000  0.5324930000000 1.0
C      1  0.4203720000000  0.5208520000000  0.5047110000000 1.0
C      1  0.5679580000000  0.5557200000000  0.4312900000000 1.0
C      1  0.4590490000000  0.5207900000000  0.5339240000000 1.0
C      1  0.4815670000000  0.5974750000000  0.5321470000000 1.0
C      1  0.5554710000000  0.4459240000000  0.5526910000000 1.0
C      1  0.5446460000000  0.5124700000000  0.4124040000000 1.0
C      1  0.4583030000000  0.5735070000000  0.4541040000000 1.0
C      1  0.4283490000000  0.5028330000000  0.4417120000000 1.0
C      1  0.4941930000000  0.4944570000000  0.5044520000000 1.0
C      1  0.4628470000000  0.5271220000000  0.4834360000000 1.0
C      1  0.5554260000000  0.5833500000000  0.4818440000000 1.0
C      1  0.4184290000000  0.4691320000000  0.5033230000000 1.0
C      1  0.5895770000000  0.4609980000000  0.4746990000000 1.0
C      1  0.4933200000000  0.4130140000000  0.4807260000000 1.0
C      1  0.6031150000000  0.5200200000000  0.5264850000000 1.0
C      1  0.5714070000000  0.5090000000000  0.4236890000000 1.0
C      1  0.4438290000000  0.5675610000000  0.5462240000000 1.0
C      1  0.4638420000000  0.4693130000000  0.5331300000000 1.0
C      1  0.4986660000000  0.5481810000000  0.5333580000000 1.0
C      1  0.4343810000000  0.4464370000000  0.4559500000000 1.0
C      1  0.5133020000000  0.4707700000000  0.4528180000000 1.0
C      1  0.5025020000000  0.5931450000000  0.5140660000000 1.0
C      1  0.4807760000000  0.4385870000000  0.4392010000000 1.0
C      1  0.5903230000000  0.5400520000000  0.5099990000000 1.0
C      1  0.5400820000000  0.5775290000000  0.5531810000000 1.0
C      1  0.5484520000000  0.5697030000000  0.5067660000000 1.0
C      1  0.4844640000000  0.4751670000000  0.4015530000000 1.0
C      1  0.4472620000000  0.5776890000000  0.4998110000000 1.0
C      1  0.5503700000000  0.5256290000000  0.4849380000000 1.0
C      1  0.4847600000000  0.4423540000000  0.4901060000000 1.0
C      1  0.4423890000000  0.4487530000000  0.5399090000000 1.0
C      1  0.5055780000000  0.4070570000000  0.5379210000000 1.0
C      1  0.5213030000000  0.4224260000000  0.5178140000000 1.0
C      1  0.5937860000000  0.5285130000000  0.4598570000000 1.0
C      1  0.3981060000000  0.4711440000000  0.4796440000000 1.0
C      1  0.4597350000000  0.4882150000000  0.4063460000000 1.0
C      1  0.4729390000000  0.4863040000000  0.4604720000000 1.0
C      1  0.4857730000000  0.4574240000000  0.4625860000000 1.0
C      1  0.5402800000000  0.4840440000000  0.5211590000000 1.0
C      1  0.5111300000000  0.5919960000000  0.4620230000000 1.0
C      1  0.5658650000000  0.5315340000000  0.5657670000000 1.0
C      1  0.5690780000000  0.4940810000000  0.4477310000000 1.0
C      1  0.4060750000000  0.5230210000000  0.4792930000000 1.0
C      1  0.5799310000000  0.4995260000000  0.5489870000000 1.0
C      1  0.4727170000000  0.5007440000000  0.5915270000000 1.0
C      1  0.4375850000000  0.4217260000000  0.4688010000000 1.0
C      1  0.4648720000000  0.5850680000000  0.4800070000000 1.0
C      1  0.5413260000000  0.5612670000000  0.4367150000000 1.0
C      1  0.4874880000000  0.4397190000000  0.5664000000000 1.0
C      1  0.6023800000000  0.4808130000000  0.4924450000000 1.0
C      1  0.4927420000000  0.5213060000000  0.4868870000000 1.0
C      1  0.5299330000000  0.5855790000000  0.5244450000000 1.0
C      1  0.4491460000000  0.5472150000000  0.5878590000000 1.0
C      1  0.5305950000000  0.4785760000000  0.4752890000000 1.0
C      1  0.4178490000000  0.4718330000000  0.5553550000000 1.0
C      1  0.4991280000000  0.5935360000000  0.4365460000000 1.0
C      1  0.4465890000000  0.5354100000000  0.5088960000000 1.0
C      1  0.4608890000000  0.4271920000000  0.5527590000000 1.0
C      1  0.4854540000000  0.4784500000000  0.6008210000000 1.0
C      1  0.5493730000000  0.4494600000000  0.4392650000000 1.0
C      1  0.4686450000000  0.5832610000000  0.5522700000000 1.0
C      1  0.4499110000000  0.5023730000000  0.4701300000000 1.0
C      1  0.5055100000000  0.4485930000000  0.5130040000000 1.0
C      1  0.4935040000000  0.5902080000000  0.4857600000000 1.0
C      1  0.5924200000000  0.4336450000000  0.4833710000000 1.0
C      1  0.4513230000000  0.4359510000000  0.4354440000000 1.0
C      1  0.5255350000000  0.4997620000000  0.5694200000000 1.0
C      1  0.5056770000000  0.5425570000000  0.5038210000000 1.0
C      1  0.5343210000000  0.5448020000000  0.4992170000000 1.0
C      1  0.5225700000000  0.5415040000000  0.5812510000000 1.0
C      1  0.5054090000000  0.4929330000000  0.3915690000000 1.0
C      1  0.5277900000000  0.4602510000000  0.4185440000000 1.0
C      1  0.4332160000000  0.5471960000000  0.5648500000000 1.0
C      1  0.5449550000000  0.4201500000000  0.4793740000000 1.0
C      1  0.4204660000000  0.5203950000000  0.5556190000000 1.0
C      1  0.4081980000000  0.4591390000000  0.4542380000000 1.0
C      1  0.4972120000000  0.4553280000000  0.5916380000000 1.0
C      1  0.5664780000000  0.4294090000000  0.5318630000000 1.0
C      1  0.4073550000000  0.5114610000000  0.5294910000000 1.0
C      1  0.5844610000000  0.5334410000000  0.4336500000000 1.0
C      1  0.4771430000000  0.5478030000000  0.5855450000000 1.0
C      1  0.4970800000000  0.4971760000000  0.4464210000000 1.0
C      1  0.5721410000000  0.5598310000000  0.5231970000000 1.0
C      1  0.4452130000000  0.4237660000000  0.4959480000000 1.0
C      1  0.5188700000000  0.4754490000000  0.5022170000000 1.0
C      1  0.4968410000000  0.4520920000000  0.4162600000000 1.0
C      1  0.4995030000000  0.5200380000000  0.3890990000000 1.0
C      1  0.4687120000000  0.4748100000000  0.5045590000000 1.0
C      1  0.4776040000000  0.5516630000000  0.4174690000000 1.0
C      1  0.5238390000000  0.5365420000000  0.4291950000000 1.0
C      1  0.4063620000000  0.4815980000000  0.5294470000000 1.0
C      1  0.4892860000000  0.5668490000000  0.5662860000000 1.0
C      1  0.3936700000000  0.4986390000000  0.4690080000000 1.0
C      1  0.5096180000000  0.4195700000000  0.5645830000000 1.0
C      1  0.4218950000000  0.4961600000000  0.5730270000000 1.0
C      1  0.4080400000000  0.4824490000000  0.4370690000000 1.0
C      1  0.5794460000000  0.5292320000000  0.4844230000000 1.0
C      1  0.5274850000000  0.5450320000000  0.5426220000000 1.0
C      1  0.5123430000000  0.5201600000000  0.4561890000000 1.0
END
