TITL C-950524-1808-484 1.24208009215836e-06 125000 -924.140909988516 0 0 147 (C1) n - 1
REM
REM in /home/bkarasulu/work/CARBON/AIRSS/Generating-Clusters/EDIP-Nigel-Params/with-SteepDescent/Only-C1/SD-CG/HFTN-CG
REM
REM
REM
REM
REM
REM ./C.cell (11c1c37f851c82e70ff6c80c92926a4b)
REM
REM compiler GCC version 9.2.1 20190827 (Red Hat 9.2.1-1)
REM options -cpp -mtune=generic -march=x86-64 -g -O0 -fpre-include=/usr/include/finclude/math-vector-fortran.h
REM seed 1097866424 639315674 -238895336 1623468117 66849188 -98824453 1052453457 1714760192 -1770483684 -62717145 493685721 -608158965 1079732085 -2118959129 -1118674245 1854269791 1212225006 1727830158 1577115938 114800128 -292069950 1925248964 -1242083336 -185810819 1737293584 1261572312 398648218 -1519298024 359981952 1972175853 -268924896 -1888728650 -152309011
REM
CELL 1.54180   50.00000   50.00000   50.00000   90.00000   90.00000   90.00000
LATT -1
SFAC C  
C      1  0.5502330000000  0.5005210000000  0.4877970000000 1.0
C      1  0.4837570000000  0.5436990000000  0.4131840000000 1.0
C      1  0.5910830000000  0.5322470000000  0.4411990000000 1.0
C      1  0.5083230000000  0.5063640000000  0.3980280000000 1.0
C      1  0.5068150000000  0.4821160000000  0.4142620000000 1.0
C      1  0.5393480000000  0.5481580000000  0.5057260000000 1.0
C      1  0.4390090000000  0.4497280000000  0.5795780000000 1.0
C      1  0.5216190000000  0.4012680000000  0.4761610000000 1.0
C      1  0.5319110000000  0.5153980000000  0.5335100000000 1.0
C      1  0.5910310000000  0.4843990000000  0.5250430000000 1.0
C      1  0.4830660000000  0.5828790000000  0.4412720000000 1.0
C      1  0.3920560000000  0.5118740000000  0.4613260000000 1.0
C      1  0.5148380000000  0.4360450000000  0.4199200000000 1.0
C      1  0.4298260000000  0.4738270000000  0.5687270000000 1.0
C      1  0.4779120000000  0.5219660000000  0.6022710000000 1.0
C      1  0.4519670000000  0.4196530000000  0.4900190000000 1.0
C      1  0.5046170000000  0.5840380000000  0.5522320000000 1.0
C      1  0.5731680000000  0.4958030000000  0.4192800000000 1.0
C      1  0.4433930000000  0.5515210000000  0.4567420000000 1.0
C      1  0.4920590000000  0.5121380000000  0.4570050000000 1.0
C      1  0.5326640000000  0.4173930000000  0.4332480000000 1.0
C      1  0.5560620000000  0.4894290000000  0.4419880000000 1.0
C      1  0.5741550000000  0.5236190000000  0.4195990000000 1.0
C      1  0.5220900000000  0.4691520000000  0.5335760000000 1.0
C      1  0.5433660000000  0.5440730000000  0.4114640000000 1.0
C      1  0.4269760000000  0.5552450000000  0.4806910000000 1.0
C      1  0.5683370000000  0.4542120000000  0.4766440000000 1.0
C      1  0.4823230000000  0.4700400000000  0.4762520000000 1.0
C      1  0.4549720000000  0.5430480000000  0.4121010000000 1.0
C      1  0.5019350000000  0.5367960000000  0.5940330000000 1.0
C      1  0.5255090000000  0.4848480000000  0.4800770000000 1.0
C      1  0.5020920000000  0.5417010000000  0.4602810000000 1.0
C      1  0.5606730000000  0.4555550000000  0.5536600000000 1.0
C      1  0.5526100000000  0.4047040000000  0.4780970000000 1.0
C      1  0.5075600000000  0.5836440000000  0.5220700000000 1.0
C      1  0.5297120000000  0.5418320000000  0.5858790000000 1.0
C      1  0.4170240000000  0.5337000000000  0.4991690000000 1.0
C      1  0.4400460000000  0.4985650000000  0.5792800000000 1.0
C      1  0.4708100000000  0.3998380000000  0.5301450000000 1.0
C      1  0.4947050000000  0.6031110000000  0.4560370000000 1.0
C      1  0.5020810000000  0.4347810000000  0.5114580000000 1.0
C      1  0.5554480000000  0.4473230000000  0.5028440000000 1.0
C      1  0.5089170000000  0.5542230000000  0.5101810000000 1.0
C      1  0.4958800000000  0.3931030000000  0.4907690000000 1.0
C      1  0.4097470000000  0.5229720000000  0.5453010000000 1.0
C      1  0.5712900000000  0.5777840000000  0.4912400000000 1.0
C      1  0.5606170000000  0.4147300000000  0.5317210000000 1.0
C      1  0.5276430000000  0.4612550000000  0.4146340000000 1.0
C      1  0.4309160000000  0.4380840000000  0.4798460000000 1.0
C      1  0.5662870000000  0.4784840000000  0.5703000000000 1.0
C      1  0.4793230000000  0.4730800000000  0.4151640000000 1.0
C      1  0.4881730000000  0.4778360000000  0.5794460000000 1.0
C      1  0.5230850000000  0.5234880000000  0.4167240000000 1.0
C      1  0.5908830000000  0.4545890000000  0.5182610000000 1.0
C      1  0.5461210000000  0.5207250000000  0.5751150000000 1.0
C      1  0.5614980000000  0.4048080000000  0.5050990000000 1.0
C      1  0.4999080000000  0.5594550000000  0.4342470000000 1.0
C      1  0.4720900000000  0.4027780000000  0.4752230000000 1.0
C      1  0.5865440000000  0.5529410000000  0.4855590000000 1.0
C      1  0.5036720000000  0.6081270000000  0.4819970000000 1.0
C      1  0.5494400000000  0.4684280000000  0.5258050000000 1.0
C      1  0.5489110000000  0.5310970000000  0.4811540000000 1.0
C      1  0.5238610000000  0.4573780000000  0.4667630000000 1.0
C      1  0.5208510000000  0.4930570000000  0.5501950000000 1.0
C      1  0.4868100000000  0.5980990000000  0.5042940000000 1.0
C      1  0.4543590000000  0.4825450000000  0.4707100000000 1.0
C      1  0.5227820000000  0.5887510000000  0.5751590000000 1.0
C      1  0.4621420000000  0.5125450000000  0.4650220000000 1.0
C      1  0.5685250000000  0.5395240000000  0.5306670000000 1.0
C      1  0.3994630000000  0.4847230000000  0.4612220000000 1.0
C      1  0.5128030000000  0.4024350000000  0.4484510000000 1.0
C      1  0.5321110000000  0.6031820000000  0.4879450000000 1.0
C      1  0.4570040000000  0.4398590000000  0.5609420000000 1.0
C      1  0.5455440000000  0.5815570000000  0.4437840000000 1.0
C      1  0.5224940000000  0.4459790000000  0.5896080000000 1.0
C      1  0.4656800000000  0.5819210000000  0.4919660000000 1.0
C      1  0.5173520000000  0.4755720000000  0.5923190000000 1.0
C      1  0.5555880000000  0.4999990000000  0.5181060000000 1.0
C      1  0.4517460000000  0.4166980000000  0.5188890000000 1.0
C      1  0.4669420000000  0.4968920000000  0.5926890000000 1.0
C      1  0.5559900000000  0.5734400000000  0.5159190000000 1.0
C      1  0.5763260000000  0.5471590000000  0.4597110000000 1.0
C      1  0.4884020000000  0.5590140000000  0.6064530000000 1.0
C      1  0.5453270000000  0.4610450000000  0.4395230000000 1.0
C      1  0.4420090000000  0.4810620000000  0.4993650000000 1.0
C      1  0.5286260000000  0.5083880000000  0.4424890000000 1.0
C      1  0.5268560000000  0.4370880000000  0.4909710000000 1.0
C      1  0.4413190000000  0.5155520000000  0.5090380000000 1.0
C      1  0.5420020000000  0.4372580000000  0.5683960000000 1.0
C      1  0.4178710000000  0.4502720000000  0.5281430000000 1.0
C      1  0.4878690000000  0.5514570000000  0.4872420000000 1.0
C      1  0.4745540000000  0.4584160000000  0.4398080000000 1.0
C      1  0.4826230000000  0.4105100000000  0.4486720000000 1.0
C      1  0.4122620000000  0.4731960000000  0.5454120000000 1.0
C      1  0.4558390000000  0.5551190000000  0.5360270000000 1.0
C      1  0.5693090000000  0.5229510000000  0.5558260000000 1.0
C      1  0.5355190000000  0.4176660000000  0.5479160000000 1.0
C      1  0.4912620000000  0.4964980000000  0.5553380000000 1.0
C      1  0.3955130000000  0.4732620000000  0.4883240000000 1.0
C      1  0.4615750000000  0.4952480000000  0.4104300000000 1.0
C      1  0.4856840000000  0.4476200000000  0.5651750000000 1.0
C      1  0.4423910000000  0.5017940000000  0.4329480000000 1.0
C      1  0.5796250000000  0.4374700000000  0.5385260000000 1.0
C      1  0.4883060000000  0.5085950000000  0.5086480000000 1.0
C      1  0.4791730000000  0.5167370000000  0.3968310000000 1.0
C      1  0.5387430000000  0.4914370000000  0.5760220000000 1.0
C      1  0.4991520000000  0.4944210000000  0.4818600000000 1.0
C      1  0.6055650000000  0.5125680000000  0.4548390000000 1.0
C      1  0.5508980000000  0.5878750000000  0.4710320000000 1.0
C      1  0.4797080000000  0.5840250000000  0.5667870000000 1.0
C      1  0.4468170000000  0.4424000000000  0.5331080000000 1.0
C      1  0.4372480000000  0.5766610000000  0.4983460000000 1.0
C      1  0.5048880000000  0.5288770000000  0.5264120000000 1.0
C      1  0.4907310000000  0.5848410000000  0.5941680000000 1.0
C      1  0.4195870000000  0.4592690000000  0.4987370000000 1.0
C      1  0.4244270000000  0.4766410000000  0.4465230000000 1.0
C      1  0.5818580000000  0.4961520000000  0.5528600000000 1.0
C      1  0.4097840000000  0.5462080000000  0.5254430000000 1.0
C      1  0.5577700000000  0.4298340000000  0.4597790000000 1.0
C      1  0.5307430000000  0.5333110000000  0.4593780000000 1.0
C      1  0.4575960000000  0.5744780000000  0.4491020000000 1.0
C      1  0.4529180000000  0.5254110000000  0.5379890000000 1.0
C      1  0.3932350000000  0.5189590000000  0.4886370000000 1.0
C      1  0.4312430000000  0.5680420000000  0.5269950000000 1.0
C      1  0.4558480000000  0.4363840000000  0.4379090000000 1.0
C      1  0.5702700000000  0.4843500000000  0.4702630000000 1.0
C      1  0.4667680000000  0.5256000000000  0.4935180000000 1.0
C      1  0.4621010000000  0.4661260000000  0.5178390000000 1.0
C      1  0.3904170000000  0.4960440000000  0.5064270000000 1.0
C      1  0.4947430000000  0.4055080000000  0.5167170000000 1.0
C      1  0.4977220000000  0.4318010000000  0.5868200000000 1.0
C      1  0.4336150000000  0.4478000000000  0.4525570000000 1.0
C      1  0.5091310000000  0.4437680000000  0.5400440000000 1.0
C      1  0.5005560000000  0.4446700000000  0.4459110000000 1.0
C      1  0.4801880000000  0.4522980000000  0.4997540000000 1.0
C      1  0.5979280000000  0.4947770000000  0.4750790000000 1.0
C      1  0.5297860000000  0.5666020000000  0.4254370000000 1.0
C      1  0.5388350000000  0.5680350000000  0.5841700000000 1.0
C      1  0.5346930000000  0.5949270000000  0.5159820000000 1.0
C      1  0.4768460000000  0.4894850000000  0.5295550000000 1.0
C      1  0.5967510000000  0.5048590000000  0.5031780000000 1.0
C      1  0.4653680000000  0.5602640000000  0.5622230000000 1.0
C      1  0.5846840000000  0.5316050000000  0.5068500000000 1.0
C      1  0.4068550000000  0.4976110000000  0.5308550000000 1.0
C      1  0.4291370000000  0.5229550000000  0.5675670000000 1.0
C      1  0.4388610000000  0.5329140000000  0.4340400000000 1.0
C      1  0.4855710000000  0.5284410000000  0.5537660000000 1.0
END
