TITL C-951339-9237-266 -2.15135835150143e-06 125000 -932.125959965214 0 0 151 (C1) n - 1
REM
REM in /home/bkarasulu/work/CARBON/AIRSS/Generating-Clusters/EDIP-Nigel-Params/with-SteepDescent/Only-C1/SD-CG/HFTN-CG
REM
REM
REM
REM
REM
REM ./C.cell (11c1c37f851c82e70ff6c80c92926a4b)
REM
REM compiler GCC version 9.2.1 20190827 (Red Hat 9.2.1-1)
REM options -cpp -mtune=generic -march=x86-64 -g -O0 -fpre-include=/usr/include/finclude/math-vector-fortran.h
REM seed -482990064 -2026287487 610792720 770614178 2020702136 1956246746 -2004048796 1638692791 -1261150729 1662647429 2059464930 952492218 384903940 379666962 339289995 -1755570309 1797132969 1923597712 1472405205 1063544751 -539328604 2143588378 1011604264 -834279910 882381401 45993547 -1344745348 1569201377 -1365890524 -611697448 -1357514230 1864963085 30115213
REM
CELL 1.54180   50.00000   50.00000   50.00000   90.00000   90.00000   90.00000
LATT -1
SFAC C  
C      1  0.4135380000000  0.4589230000000  0.5166550000000 1.0
C      1  0.3999110000000  0.5215230000000  0.5220320000000 1.0
C      1  0.5769060000000  0.4791850000000  0.5666190000000 1.0
C      1  0.4271250000000  0.4266530000000  0.4846790000000 1.0
C      1  0.5220420000000  0.4111260000000  0.5025620000000 1.0
C      1  0.4156330000000  0.5465910000000  0.4827900000000 1.0
C      1  0.4829620000000  0.4990480000000  0.5595360000000 1.0
C      1  0.5084490000000  0.5003960000000  0.4324860000000 1.0
C      1  0.4387970000000  0.5597830000000  0.4984190000000 1.0
C      1  0.4669750000000  0.6054090000000  0.4934140000000 1.0
C      1  0.5552010000000  0.5808160000000  0.4972990000000 1.0
C      1  0.5912850000000  0.4945250000000  0.5465430000000 1.0
C      1  0.4453720000000  0.5007420000000  0.5276230000000 1.0
C      1  0.4643350000000  0.5120500000000  0.4138940000000 1.0
C      1  0.5924190000000  0.4513140000000  0.5452180000000 1.0
C      1  0.5207360000000  0.5480520000000  0.4230910000000 1.0
C      1  0.4891140000000  0.4334840000000  0.5375210000000 1.0
C      1  0.4975930000000  0.5853740000000  0.5572590000000 1.0
C      1  0.5314660000000  0.4963110000000  0.5281370000000 1.0
C      1  0.4742960000000  0.5029890000000  0.5312150000000 1.0
C      1  0.5311470000000  0.6005050000000  0.4951670000000 1.0
C      1  0.4988800000000  0.5568760000000  0.5648600000000 1.0
C      1  0.4462110000000  0.4505510000000  0.4822320000000 1.0
C      1  0.5425150000000  0.4168790000000  0.4825830000000 1.0
C      1  0.5054380000000  0.4541310000000  0.5202980000000 1.0
C      1  0.4485750000000  0.4039770000000  0.4806520000000 1.0
C      1  0.4971620000000  0.4116340000000  0.4597550000000 1.0
C      1  0.5054070000000  0.4658150000000  0.4689190000000 1.0
C      1  0.5230650000000  0.5189020000000  0.4136430000000 1.0
C      1  0.4689220000000  0.5396220000000  0.4664190000000 1.0
C      1  0.4364050000000  0.5197170000000  0.5504650000000 1.0
C      1  0.5583970000000  0.5331200000000  0.5022640000000 1.0
C      1  0.4602020000000  0.4710390000000  0.4390470000000 1.0
C      1  0.4991550000000  0.4474780000000  0.5935430000000 1.0
C      1  0.5654610000000  0.5240510000000  0.5875920000000 1.0
C      1  0.5452330000000  0.5429270000000  0.5927730000000 1.0
C      1  0.4095370000000  0.4484320000000  0.4581250000000 1.0
C      1  0.5215390000000  0.4542550000000  0.4930850000000 1.0
C      1  0.4838080000000  0.4840310000000  0.4857410000000 1.0
C      1  0.5404430000000  0.5547100000000  0.4950600000000 1.0
C      1  0.5270710000000  0.4645360000000  0.5650470000000 1.0
C      1  0.4879340000000  0.4917920000000  0.4108670000000 1.0
C      1  0.5735640000000  0.5095020000000  0.5294900000000 1.0
C      1  0.5384800000000  0.5633960000000  0.5461900000000 1.0
C      1  0.4488660000000  0.4242160000000  0.4397090000000 1.0
C      1  0.4927870000000  0.5846870000000  0.4658360000000 1.0
C      1  0.4639810000000  0.4253140000000  0.5227300000000 1.0
C      1  0.5044870000000  0.5154360000000  0.3884220000000 1.0
C      1  0.5701750000000  0.5823740000000  0.4691090000000 1.0
C      1  0.4622710000000  0.4466810000000  0.4544150000000 1.0
C      1  0.5647830000000  0.4843770000000  0.4405680000000 1.0
C      1  0.4803070000000  0.5565720000000  0.3969160000000 1.0
C      1  0.3972480000000  0.4727840000000  0.4985340000000 1.0
C      1  0.5889860000000  0.5112500000000  0.4783050000000 1.0
C      1  0.4828030000000  0.5270660000000  0.5152210000000 1.0
C      1  0.4695730000000  0.4055110000000  0.5011330000000 1.0
C      1  0.4575120000000  0.5536670000000  0.5815270000000 1.0
C      1  0.5613790000000  0.5212920000000  0.4740630000000 1.0
C      1  0.4181100000000  0.4300650000000  0.5146270000000 1.0
C      1  0.5710760000000  0.4210760000000  0.4913450000000 1.0
C      1  0.5173620000000  0.4736830000000  0.5391290000000 1.0
C      1  0.4583500000000  0.4852290000000  0.5793530000000 1.0
C      1  0.4000390000000  0.4928400000000  0.4795050000000 1.0
C      1  0.5890430000000  0.4348990000000  0.4721130000000 1.0
C      1  0.4849190000000  0.5843190000000  0.4367250000000 1.0
C      1  0.5292340000000  0.4176250000000  0.4555480000000 1.0
C      1  0.4337670000000  0.4720050000000  0.5343190000000 1.0
C      1  0.5508170000000  0.5060800000000  0.4138330000000 1.0
C      1  0.5790200000000  0.5635570000000  0.5630390000000 1.0
C      1  0.5817500000000  0.5494600000000  0.5134490000000 1.0
C      1  0.5390780000000  0.5556990000000  0.4437510000000 1.0
C      1  0.5515160000000  0.4288920000000  0.5399480000000 1.0
C      1  0.5175950000000  0.4427840000000  0.4157440000000 1.0
C      1  0.4906980000000  0.4432950000000  0.4133740000000 1.0
C      1  0.4130360000000  0.4822270000000  0.5545610000000 1.0
C      1  0.5185780000000  0.4286440000000  0.5768720000000 1.0
C      1  0.4776800000000  0.4646010000000  0.3990980000000 1.0
C      1  0.5899210000000  0.4860550000000  0.4623080000000 1.0
C      1  0.4609670000000  0.5324480000000  0.5610850000000 1.0
C      1  0.4172580000000  0.4959870000000  0.4325060000000 1.0
C      1  0.5696010000000  0.5698890000000  0.5320060000000 1.0
C      1  0.5479820000000  0.4656590000000  0.4950730000000 1.0
C      1  0.4305000000000  0.4988020000000  0.5722030000000 1.0
C      1  0.5607340000000  0.4537760000000  0.4343390000000 1.0
C      1  0.5065290000000  0.4150240000000  0.5519030000000 1.0
C      1  0.5106730000000  0.5853890000000  0.5114460000000 1.0
C      1  0.4097160000000  0.4785300000000  0.4555210000000 1.0
C      1  0.5509980000000  0.5641670000000  0.5745890000000 1.0
C      1  0.4923090000000  0.4421840000000  0.4516000000000 1.0
C      1  0.5282430000000  0.4134930000000  0.5313440000000 1.0
C      1  0.4559550000000  0.5826550000000  0.4524020000000 1.0
C      1  0.5228360000000  0.4853090000000  0.4526000000000 1.0
C      1  0.4858730000000  0.5512420000000  0.5920180000000 1.0
C      1  0.4379880000000  0.4225040000000  0.5372860000000 1.0
C      1  0.4390230000000  0.4386570000000  0.5609680000000 1.0
C      1  0.4531870000000  0.4883130000000  0.4806220000000 1.0
C      1  0.5056280000000  0.4756760000000  0.6017380000000 1.0
C      1  0.5442570000000  0.5834900000000  0.4524070000000 1.0
C      1  0.4791900000000  0.5478810000000  0.5421970000000 1.0
C      1  0.4822500000000  0.5942890000000  0.5136040000000 1.0
C      1  0.4161580000000  0.5395170000000  0.5394050000000 1.0
C      1  0.4209380000000  0.4284900000000  0.4419780000000 1.0
C      1  0.4961930000000  0.4076420000000  0.4893190000000 1.0
C      1  0.4625150000000  0.4022330000000  0.4543530000000 1.0
C      1  0.5388610000000  0.5017620000000  0.4716340000000 1.0
C      1  0.5469130000000  0.4403830000000  0.5664920000000 1.0
C      1  0.4570650000000  0.4523730000000  0.5106440000000 1.0
C      1  0.4546840000000  0.4545650000000  0.5785850000000 1.0
C      1  0.5710190000000  0.5199510000000  0.4275260000000 1.0
C      1  0.5855400000000  0.5361840000000  0.5707590000000 1.0
C      1  0.4372210000000  0.4952490000000  0.4098730000000 1.0
C      1  0.4582960000000  0.5347640000000  0.4956320000000 1.0
C      1  0.5112170000000  0.5566710000000  0.4991590000000 1.0
C      1  0.5205880000000  0.5861250000000  0.5395760000000 1.0
C      1  0.5762620000000  0.4360240000000  0.5241510000000 1.0
C      1  0.5580980000000  0.5295100000000  0.5448340000000 1.0
C      1  0.4305760000000  0.5632920000000  0.5279610000000 1.0
C      1  0.5745330000000  0.4624690000000  0.5062910000000 1.0
C      1  0.4209850000000  0.5490680000000  0.4558030000000 1.0
C      1  0.4821060000000  0.4950780000000  0.6027810000000 1.0
C      1  0.4503930000000  0.5729000000000  0.5491680000000 1.0
C      1  0.5588870000000  0.4949640000000  0.5843870000000 1.0
C      1  0.4943830000000  0.5613270000000  0.4204450000000 1.0
C      1  0.4410520000000  0.5099000000000  0.4988280000000 1.0
C      1  0.5853190000000  0.5571960000000  0.4577660000000 1.0
C      1  0.5249290000000  0.4966130000000  0.4984520000000 1.0
C      1  0.4519770000000  0.5848290000000  0.4825870000000 1.0
C      1  0.3960010000000  0.4984660000000  0.5382930000000 1.0
C      1  0.4503160000000  0.4682540000000  0.4113150000000 1.0
C      1  0.5218880000000  0.5982170000000  0.4670040000000 1.0
C      1  0.4729930000000  0.5914400000000  0.5411730000000 1.0
C      1  0.5633960000000  0.5389900000000  0.4489440000000 1.0
C      1  0.5121780000000  0.5099810000000  0.5694890000000 1.0
C      1  0.4119280000000  0.5180610000000  0.4941110000000 1.0
C      1  0.4953490000000  0.5558640000000  0.4733500000000 1.0
C      1  0.4478380000000  0.5547700000000  0.4503330000000 1.0
C      1  0.6063820000000  0.5532940000000  0.5000410000000 1.0
C      1  0.5345580000000  0.4404180000000  0.4371640000000 1.0
C      1  0.5943670000000  0.4624430000000  0.4824040000000 1.0
C      1  0.6028720000000  0.5396530000000  0.4756840000000 1.0
C      1  0.4696620000000  0.5165180000000  0.4462360000000 1.0
C      1  0.6068610000000  0.4737630000000  0.5346280000000 1.0
C      1  0.5289490000000  0.5201540000000  0.5450450000000 1.0
C      1  0.5281290000000  0.4875520000000  0.5841790000000 1.0
C      1  0.4927250000000  0.5232100000000  0.5995690000000 1.0
C      1  0.4504440000000  0.4948760000000  0.4525160000000 1.0
C      1  0.5797520000000  0.4373860000000  0.4461000000000 1.0
C      1  0.4777310000000  0.5294950000000  0.3908990000000 1.0
C      1  0.4722460000000  0.4407190000000  0.5947820000000 1.0
C      1  0.4817750000000  0.4664730000000  0.5086340000000 1.0
C      1  0.4978000000000  0.5091240000000  0.4943270000000 1.0
END
