TITL C-950527-2551-299 -3.40989111621611e-06 125000 -1068.01373993887 0 0 171 (C1) n - 1
REM
REM in /home/bkarasulu/work/CARBON/AIRSS/Generating-Clusters/EDIP-Nigel-Params/with-SteepDescent/Only-C1/SD-CG/HFTN-CG
REM
REM
REM
REM
REM
REM ./C.cell (11c1c37f851c82e70ff6c80c92926a4b)
REM
REM compiler GCC version 9.2.1 20190827 (Red Hat 9.2.1-1)
REM options -cpp -mtune=generic -march=x86-64 -g -O0 -fpre-include=/usr/include/finclude/math-vector-fortran.h
REM seed -1595769573 -1223558627 1751188569 -1492310565 -1691572840 -1388102488 1575466522 2028436407 628808563 -479529022 1217542746 1631528894 -1703646516 853955906 1212633770 -1429475634 -1641097524 -203433240 955460161 -1950360517 1196659196 1094402040 522008516 -535285997 118062580 -2099198631 474877641 -1803755163 1698855788 -595520358 1666012437 -1565243467 36749951
REM
CELL 1.54180   50.00000   50.00000   50.00000   90.00000   90.00000   90.00000
LATT -1
SFAC C  
C      1  0.3992910000000  0.4880360000000  0.5295490000000 1.0
C      1  0.4911890000000  0.5272700000000  0.4446350000000 1.0
C      1  0.5095980000000  0.5659930000000  0.4199170000000 1.0
C      1  0.5222710000000  0.4475420000000  0.3901020000000 1.0
C      1  0.4679190000000  0.4854110000000  0.4381170000000 1.0
C      1  0.5277040000000  0.4055480000000  0.5511730000000 1.0
C      1  0.4850850000000  0.4094480000000  0.4543070000000 1.0
C      1  0.5928150000000  0.4323000000000  0.4384570000000 1.0
C      1  0.5080990000000  0.4219740000000  0.5022260000000 1.0
C      1  0.4006240000000  0.5143760000000  0.4662610000000 1.0
C      1  0.4464790000000  0.5979430000000  0.5557660000000 1.0
C      1  0.4423020000000  0.5268810000000  0.4491080000000 1.0
C      1  0.5569050000000  0.6055470000000  0.4976970000000 1.0
C      1  0.5351380000000  0.5292960000000  0.4329040000000 1.0
C      1  0.5559950000000  0.5669000000000  0.4677770000000 1.0
C      1  0.5531000000000  0.4465460000000  0.5352950000000 1.0
C      1  0.4987370000000  0.4818330000000  0.4318470000000 1.0
C      1  0.4189610000000  0.5613170000000  0.4675210000000 1.0
C      1  0.5277120000000  0.5650340000000  0.4947400000000 1.0
C      1  0.5934930000000  0.4587780000000  0.4474040000000 1.0
C      1  0.4066770000000  0.4680970000000  0.5074710000000 1.0
C      1  0.5128750000000  0.5911510000000  0.4557520000000 1.0
C      1  0.4540760000000  0.4434300000000  0.4381130000000 1.0
C      1  0.4328590000000  0.5595940000000  0.5767210000000 1.0
C      1  0.3938920000000  0.5139290000000  0.5190130000000 1.0
C      1  0.4528210000000  0.4557110000000  0.4103640000000 1.0
C      1  0.4319780000000  0.4424230000000  0.4596480000000 1.0
C      1  0.5158320000000  0.4466100000000  0.5725570000000 1.0
C      1  0.5230930000000  0.4724430000000  0.5851960000000 1.0
C      1  0.5825750000000  0.4328650000000  0.5055830000000 1.0
C      1  0.4127580000000  0.5176320000000  0.5716420000000 1.0
C      1  0.5325440000000  0.5833830000000  0.5689780000000 1.0
C      1  0.3959790000000  0.5374440000000  0.5602580000000 1.0
C      1  0.4683550000000  0.5266970000000  0.4042810000000 1.0
C      1  0.4681100000000  0.5668080000000  0.4622730000000 1.0
C      1  0.5949210000000  0.4788720000000  0.5191180000000 1.0
C      1  0.5296160000000  0.4125460000000  0.5224050000000 1.0
C      1  0.4816980000000  0.5216150000000  0.5938910000000 1.0
C      1  0.4970740000000  0.5200460000000  0.3982760000000 1.0
C      1  0.4483730000000  0.5306060000000  0.5287350000000 1.0
C      1  0.5052440000000  0.5031450000000  0.4540110000000 1.0
C      1  0.5865200000000  0.5021220000000  0.4502230000000 1.0
C      1  0.5659170000000  0.4245930000000  0.4416780000000 1.0
C      1  0.4655870000000  0.5548050000000  0.4046130000000 1.0
C      1  0.5722840000000  0.4067580000000  0.5051110000000 1.0
C      1  0.4395540000000  0.5030580000000  0.5230340000000 1.0
C      1  0.5722550000000  0.4507630000000  0.4848540000000 1.0
C      1  0.6015040000000  0.5408200000000  0.4676690000000 1.0
C      1  0.4046030000000  0.5404730000000  0.4804790000000 1.0
C      1  0.5436160000000  0.5003560000000  0.4481090000000 1.0
C      1  0.5909780000000  0.4502060000000  0.5283120000000 1.0
C      1  0.5015260000000  0.4671930000000  0.3884130000000 1.0
C      1  0.4626820000000  0.5790470000000  0.4885930000000 1.0
C      1  0.4837410000000  0.5904010000000  0.5263680000000 1.0
C      1  0.4549670000000  0.5949650000000  0.5296650000000 1.0
C      1  0.4861740000000  0.4775170000000  0.5961590000000 1.0
C      1  0.4412080000000  0.5769710000000  0.5106910000000 1.0
C      1  0.5557340000000  0.5334770000000  0.5704380000000 1.0
C      1  0.4599440000000  0.5140650000000  0.6115500000000 1.0
C      1  0.5132870000000  0.5911170000000  0.4861460000000 1.0
C      1  0.5304340000000  0.4546970000000  0.4596820000000 1.0
C      1  0.4710620000000  0.4244630000000  0.5671600000000 1.0
C      1  0.6045570000000  0.4680470000000  0.4725290000000 1.0
C      1  0.4765310000000  0.4563950000000  0.3951750000000 1.0
C      1  0.5490490000000  0.4247110000000  0.4175400000000 1.0
C      1  0.5013000000000  0.3998640000000  0.5646070000000 1.0
C      1  0.4657230000000  0.5268370000000  0.5693370000000 1.0
C      1  0.4764760000000  0.5320570000000  0.5189030000000 1.0
C      1  0.5570640000000  0.4753630000000  0.4146580000000 1.0
C      1  0.4657210000000  0.4852610000000  0.5237790000000 1.0
C      1  0.5773410000000  0.5620500000000  0.5112870000000 1.0
C      1  0.4860260000000  0.5931930000000  0.4977050000000 1.0
C      1  0.4737150000000  0.4018110000000  0.5462160000000 1.0
C      1  0.5434080000000  0.4728280000000  0.5241450000000 1.0
C      1  0.4946810000000  0.4521920000000  0.5028290000000 1.0
C      1  0.4910050000000  0.5604980000000  0.5326950000000 1.0
C      1  0.4077300000000  0.4592010000000  0.4580250000000 1.0
C      1  0.5094470000000  0.5994800000000  0.5674390000000 1.0
C      1  0.4558770000000  0.5756480000000  0.5696030000000 1.0
C      1  0.5005610000000  0.3845280000000  0.4943630000000 1.0
C      1  0.5011750000000  0.6096220000000  0.5414100000000 1.0
C      1  0.4973990000000  0.4263730000000  0.5823660000000 1.0
C      1  0.4382500000000  0.5307990000000  0.5843920000000 1.0
C      1  0.5180870000000  0.4256930000000  0.4222040000000 1.0
C      1  0.5079120000000  0.5364060000000  0.4225360000000 1.0
C      1  0.5986070000000  0.4901020000000  0.4912770000000 1.0
C      1  0.5392820000000  0.5163510000000  0.5520800000000 1.0
C      1  0.4691810000000  0.4798500000000  0.4692950000000 1.0
C      1  0.5306200000000  0.5127870000000  0.6007580000000 1.0
C      1  0.5564870000000  0.4771450000000  0.4964050000000 1.0
C      1  0.5843730000000  0.4962970000000  0.5403290000000 1.0
C      1  0.5295870000000  0.3864790000000  0.4865850000000 1.0
C      1  0.4746900000000  0.5236050000000  0.4878160000000 1.0
C      1  0.4898370000000  0.4977590000000  0.4800400000000 1.0
C      1  0.4812840000000  0.4387280000000  0.4512590000000 1.0
C      1  0.5401260000000  0.5830190000000  0.4462750000000 1.0
C      1  0.4351150000000  0.4297430000000  0.4865880000000 1.0
C      1  0.4663780000000  0.4513330000000  0.5536000000000 1.0
C      1  0.5122330000000  0.4054170000000  0.4448300000000 1.0
C      1  0.4550810000000  0.4087670000000  0.4954900000000 1.0
C      1  0.4611930000000  0.4854490000000  0.6090520000000 1.0
C      1  0.4788200000000  0.4537920000000  0.4768970000000 1.0
C      1  0.5406260000000  0.5718420000000  0.4186430000000 1.0
C      1  0.4364510000000  0.4498600000000  0.5559890000000 1.0
C      1  0.6028120000000  0.5211150000000  0.4888610000000 1.0
C      1  0.4226800000000  0.4251850000000  0.5544720000000 1.0
C      1  0.5719090000000  0.4915810000000  0.5911180000000 1.0
C      1  0.4415910000000  0.5566140000000  0.4513150000000 1.0
C      1  0.5714840000000  0.4513620000000  0.5617180000000 1.0
C      1  0.5716670000000  0.5682950000000  0.5397870000000 1.0
C      1  0.5079640000000  0.4516480000000  0.4392100000000 1.0
C      1  0.4656580000000  0.5165280000000  0.4328560000000 1.0
C      1  0.5208110000000  0.6199650000000  0.5241950000000 1.0
C      1  0.4477960000000  0.5179330000000  0.4769520000000 1.0
C      1  0.5170910000000  0.5081390000000  0.5710580000000 1.0
C      1  0.5291280000000  0.5297330000000  0.5273490000000 1.0
C      1  0.4785680000000  0.3983190000000  0.4805490000000 1.0
C      1  0.3996800000000  0.4682820000000  0.4326970000000 1.0
C      1  0.5509050000000  0.4336560000000  0.4661350000000 1.0
C      1  0.5261220000000  0.4122770000000  0.4711870000000 1.0
C      1  0.5742480000000  0.5443270000000  0.4581950000000 1.0
C      1  0.4397780000000  0.4770920000000  0.5936320000000 1.0
C      1  0.4848360000000  0.5852670000000  0.4429030000000 1.0
C      1  0.4993790000000  0.4912720000000  0.5533840000000 1.0
C      1  0.5520470000000  0.5236090000000  0.3983610000000 1.0
C      1  0.5285470000000  0.5177820000000  0.5002980000000 1.0
C      1  0.5301120000000  0.6125340000000  0.4989150000000 1.0
C      1  0.4177360000000  0.4887590000000  0.4265990000000 1.0
C      1  0.4886480000000  0.5432680000000  0.4699280000000 1.0
C      1  0.4793260000000  0.5575930000000  0.5620330000000 1.0
C      1  0.5649030000000  0.5159740000000  0.4630080000000 1.0
C      1  0.5595140000000  0.5164710000000  0.5951470000000 1.0
C      1  0.4405770000000  0.4817370000000  0.4110330000000 1.0
C      1  0.5555590000000  0.4761000000000  0.5731900000000 1.0
C      1  0.5230800000000  0.5584290000000  0.5257600000000 1.0
C      1  0.5479000000000  0.3935920000000  0.5093000000000 1.0
C      1  0.5908860000000  0.5241800000000  0.5362360000000 1.0
C      1  0.4271920000000  0.5521350000000  0.5253570000000 1.0
C      1  0.4154620000000  0.4393420000000  0.5066260000000 1.0
C      1  0.5801320000000  0.5440380000000  0.5565100000000 1.0
C      1  0.5368900000000  0.4793660000000  0.4722300000000 1.0
C      1  0.4017430000000  0.4782300000000  0.4802010000000 1.0
C      1  0.5803120000000  0.4800270000000  0.4331180000000 1.0
C      1  0.5016570000000  0.5637340000000  0.5809630000000 1.0
C      1  0.4775740000000  0.4776300000000  0.5674560000000 1.0
C      1  0.5831750000000  0.5319340000000  0.5089660000000 1.0
C      1  0.5171240000000  0.5408820000000  0.4822630000000 1.0
C      1  0.5379580000000  0.4313810000000  0.5615230000000 1.0
C      1  0.4818250000000  0.5764690000000  0.4123680000000 1.0
C      1  0.4987980000000  0.5435910000000  0.6025990000000 1.0
C      1  0.5423160000000  0.5746360000000  0.5434360000000 1.0
C      1  0.5550780000000  0.4910120000000  0.5462350000000 1.0
C      1  0.4241930000000  0.4701330000000  0.5719370000000 1.0
C      1  0.5682560000000  0.5810390000000  0.4906680000000 1.0
C      1  0.4269570000000  0.5046420000000  0.4934350000000 1.0
C      1  0.4555400000000  0.4982470000000  0.5587850000000 1.0
C      1  0.4141540000000  0.4922990000000  0.5561640000000 1.0
C      1  0.5490220000000  0.4497510000000  0.4018160000000 1.0
C      1  0.4725230000000  0.4554990000000  0.5238170000000 1.0
C      1  0.5565460000000  0.5459190000000  0.4176220000000 1.0
C      1  0.5594160000000  0.5114190000000  0.4933880000000 1.0
C      1  0.5082650000000  0.4888610000000  0.5033950000000 1.0
C      1  0.4128630000000  0.4237600000000  0.5294460000000 1.0
C      1  0.5210470000000  0.5343530000000  0.6163370000000 1.0
C      1  0.5402990000000  0.4969070000000  0.4040780000000 1.0
C      1  0.5091260000000  0.4920980000000  0.4037720000000 1.0
C      1  0.4579530000000  0.4022660000000  0.5226590000000 1.0
C      1  0.4163340000000  0.5141630000000  0.4412860000000 1.0
C      1  0.4910910000000  0.5010060000000  0.5264280000000 1.0
C      1  0.4045520000000  0.5386410000000  0.5094300000000 1.0
C      1  0.4143340000000  0.5579010000000  0.5533160000000 1.0
END
