TITL C-950522-5749-239 0.000188618397614019 125000 -380.675362836312 0 0 64 (C1) n - 1
REM
REM in /home/bkarasulu/work/CARBON/AIRSS/Generating-Clusters/EDIP-Nigel-Params/with-SteepDescent/Only-C1/SD-CG/HFTN-CG
REM
REM
REM
REM
REM
REM ./C.cell (11c1c37f851c82e70ff6c80c92926a4b)
REM
REM compiler GCC version 9.2.1 20190827 (Red Hat 9.2.1-1)
REM options -cpp -mtune=generic -march=x86-64 -g -O0 -fpre-include=/usr/include/finclude/math-vector-fortran.h
REM seed 1915848627 1776601573 -1787653474 -166396999 -219399596 437073487 -1786405910 -1586806935 -1086432078 284111987 1882804012 1469037507 2067868037 243216131 -1051570019 1026722421 -1513464882 1747729560 -2050331109 -864432509 -1536335622 741654366 1526375246 -1642131182 712795453 1866587288 -1488500756 1318773986 533426204 -784413933 -458155824 1608950815 -789376105
REM
CELL 1.54180   50.00000   50.00000   50.00000   90.00000   90.00000   90.00000
LATT -1
SFAC C  
C      1  0.5556900000000  0.4579420000000  0.5451200000000 1.0
C      1  0.5112810000000  0.4944900000000  0.4264480000000 1.0
C      1  0.5443550000000  0.4576460000000  0.4383660000000 1.0
C      1  0.5224990000000  0.4640230000000  0.4694900000000 1.0
C      1  0.5156680000000  0.5019600000000  0.5657690000000 1.0
C      1  0.4467330000000  0.4846560000000  0.5518680000000 1.0
C      1  0.4814480000000  0.4704180000000  0.5426970000000 1.0
C      1  0.4930210000000  0.5562950000000  0.5026270000000 1.0
C      1  0.5130380000000  0.5301880000000  0.4966760000000 1.0
C      1  0.4897970000000  0.5701240000000  0.5307120000000 1.0
C      1  0.4678850000000  0.5573590000000  0.5524800000000 1.0
C      1  0.4981970000000  0.4861660000000  0.4789910000000 1.0
C      1  0.4839830000000  0.4537350000000  0.4405020000000 1.0
C      1  0.4768460000000  0.4368190000000  0.5142150000000 1.0
C      1  0.4479160000000  0.5351550000000  0.5406250000000 1.0
C      1  0.5133410000000  0.4354310000000  0.4726800000000 1.0
C      1  0.5547050000000  0.5266500000000  0.4567040000000 1.0
C      1  0.4394120000000  0.4641900000000  0.5313700000000 1.0
C      1  0.4334090000000  0.4699830000000  0.5017060000000 1.0
C      1  0.4573350000000  0.4412050000000  0.5343210000000 1.0
C      1  0.4495980000000  0.4921740000000  0.4918380000000 1.0
C      1  0.4679330000000  0.5252790000000  0.5222290000000 1.0
C      1  0.5158870000000  0.4312510000000  0.5426950000000 1.0
C      1  0.4959360000000  0.4868830000000  0.5099680000000 1.0
C      1  0.5374630000000  0.4847030000000  0.4334540000000 1.0
C      1  0.4660610000000  0.5556000000000  0.4905950000000 1.0
C      1  0.4990870000000  0.5727980000000  0.4793940000000 1.0
C      1  0.4662850000000  0.4961430000000  0.5160640000000 1.0
C      1  0.4417320000000  0.4490810000000  0.4841740000000 1.0
C      1  0.5632870000000  0.4539640000000  0.4591470000000 1.0
C      1  0.4860280000000  0.4372760000000  0.4636690000000 1.0
C      1  0.5505220000000  0.5131100000000  0.5124520000000 1.0
C      1  0.5064670000000  0.5142350000000  0.4727230000000 1.0
C      1  0.4495860000000  0.5448920000000  0.4481490000000 1.0
C      1  0.4671980000000  0.4374520000000  0.4867510000000 1.0
C      1  0.4899130000000  0.5163070000000  0.5673280000000 1.0
C      1  0.5603250000000  0.4667850000000  0.5076290000000 1.0
C      1  0.5130430000000  0.5100440000000  0.5205350000000 1.0
C      1  0.4697300000000  0.5263090000000  0.4433520000000 1.0
C      1  0.4994270000000  0.5311290000000  0.4490380000000 1.0
C      1  0.5465320000000  0.5564010000000  0.5245580000000 1.0
C      1  0.4890410000000  0.5456170000000  0.5755470000000 1.0
C      1  0.5511980000000  0.4683970000000  0.4805850000000 1.0
C      1  0.5547410000000  0.5402300000000  0.5034870000000 1.0
C      1  0.5108170000000  0.4773140000000  0.5503510000000 1.0
C      1  0.4674400000000  0.4825610000000  0.4699020000000 1.0
C      1  0.4265170000000  0.5758250000000  0.4740870000000 1.0
C      1  0.4633130000000  0.4967910000000  0.4424710000000 1.0
C      1  0.4937000000000  0.5276400000000  0.5370970000000 1.0
C      1  0.5281990000000  0.4543450000000  0.5519650000000 1.0
C      1  0.5553050000000  0.5049310000000  0.4407940000000 1.0
C      1  0.5168910000000  0.4216930000000  0.4967360000000 1.0
C      1  0.5118850000000  0.5225540000000  0.4242630000000 1.0
C      1  0.5081510000000  0.5626930000000  0.5551110000000 1.0
C      1  0.5681350000000  0.4835850000000  0.5476850000000 1.0
C      1  0.5344570000000  0.5211640000000  0.5567800000000 1.0
C      1  0.5323580000000  0.5474570000000  0.5469180000000 1.0
C      1  0.5019810000000  0.4242440000000  0.5197910000000 1.0
C      1  0.4852560000000  0.4799950000000  0.4294430000000 1.0
C      1  0.4488290000000  0.5625720000000  0.4690760000000 1.0
C      1  0.4385920000000  0.5113920000000  0.5524420000000 1.0
C      1  0.5146430000000  0.5565160000000  0.4610640000000 1.0
C      1  0.5421080000000  0.5446430000000  0.4750630000000 1.0
C      1  0.5678430000000  0.4915860000000  0.5202320000000 1.0
END
