TITL C-951342-2639-146 -3.21157564588783e-06 125000 -691.081694353805 0 0 112 (C1) n - 1
REM
REM in /home/bkarasulu/work/CARBON/AIRSS/Generating-Clusters/EDIP-Nigel-Params/with-SteepDescent/Only-C1/SD-CG/HFTN-CG
REM
REM
REM
REM
REM
REM ./C.cell (11c1c37f851c82e70ff6c80c92926a4b)
REM
REM compiler GCC version 9.2.1 20190827 (Red Hat 9.2.1-1)
REM options -cpp -mtune=generic -march=x86-64 -g -O0 -fpre-include=/usr/include/finclude/math-vector-fortran.h
REM seed 1753823051 1639814861 295276241 -1137998468 -1450003715 672903753 2137817108 1614792530 -1503226804 -232309055 -194925977 123079724 -491854720 702798181 965362606 58920956 -1970874258 -2102259973 -269712931 -1760894971 -1722573296 -434005236 187715800 -1027085045 700266357 11221858 1041289570 1677996169 -885398000 2010082005 215459305 -372141369 -84395428
REM
CELL 1.54180   50.00000   50.00000   50.00000   90.00000   90.00000   90.00000
LATT -1
SFAC C  
C      1  0.5602280000000  0.4248390000000  0.4993550000000 1.0
C      1  0.4477380000000  0.5582140000000  0.4472440000000 1.0
C      1  0.5489560000000  0.5312090000000  0.5079080000000 1.0
C      1  0.4518990000000  0.4750990000000  0.4284090000000 1.0
C      1  0.4704030000000  0.4857790000000  0.5402420000000 1.0
C      1  0.4398880000000  0.5185660000000  0.5119140000000 1.0
C      1  0.5083570000000  0.5685580000000  0.4621940000000 1.0
C      1  0.4255590000000  0.4623320000000  0.5293770000000 1.0
C      1  0.4653420000000  0.5742830000000  0.5545280000000 1.0
C      1  0.4727310000000  0.5205690000000  0.4245050000000 1.0
C      1  0.5346650000000  0.5072190000000  0.5269380000000 1.0
C      1  0.5022540000000  0.4800220000000  0.5815640000000 1.0
C      1  0.4706800000000  0.5506910000000  0.4288410000000 1.0
C      1  0.5369990000000  0.5729540000000  0.4686460000000 1.0
C      1  0.5676810000000  0.4748910000000  0.5513070000000 1.0
C      1  0.5383090000000  0.4323930000000  0.5410460000000 1.0
C      1  0.4644580000000  0.5897160000000  0.5309430000000 1.0
C      1  0.5770240000000  0.4441290000000  0.5139060000000 1.0
C      1  0.4563020000000  0.4961360000000  0.4975840000000 1.0
C      1  0.5083480000000  0.5213790000000  0.5366470000000 1.0
C      1  0.5834820000000  0.4721730000000  0.5000890000000 1.0
C      1  0.4917300000000  0.5398500000000  0.5793220000000 1.0
C      1  0.5266370000000  0.4875500000000  0.5063450000000 1.0
C      1  0.4352770000000  0.5099460000000  0.4532710000000 1.0
C      1  0.4933570000000  0.5150110000000  0.4525010000000 1.0
C      1  0.4476310000000  0.5040170000000  0.4282980000000 1.0
C      1  0.4750710000000  0.4696210000000  0.4138450000000 1.0
C      1  0.5667160000000  0.5044090000000  0.4667260000000 1.0
C      1  0.4782110000000  0.4302700000000  0.4553340000000 1.0
C      1  0.6041950000000  0.4892620000000  0.4842560000000 1.0
C      1  0.4816380000000  0.4651250000000  0.4779180000000 1.0
C      1  0.4366990000000  0.5125940000000  0.5641830000000 1.0
C      1  0.4755760000000  0.5333740000000  0.4734230000000 1.0
C      1  0.5939180000000  0.4960180000000  0.4581070000000 1.0
C      1  0.5229180000000  0.5216720000000  0.4658990000000 1.0
C      1  0.4902680000000  0.4339400000000  0.5476550000000 1.0
C      1  0.5360970000000  0.5753390000000  0.4977430000000 1.0
C      1  0.5501760000000  0.4361140000000  0.4498500000000 1.0
C      1  0.5249520000000  0.4975870000000  0.5773900000000 1.0
C      1  0.4077690000000  0.5047330000000  0.5285180000000 1.0
C      1  0.4981950000000  0.4690000000000  0.4310470000000 1.0
C      1  0.5559540000000  0.4654490000000  0.4824340000000 1.0
C      1  0.4929130000000  0.5715110000000  0.4871510000000 1.0
C      1  0.4541910000000  0.4731200000000  0.5819420000000 1.0
C      1  0.5001770000000  0.5557880000000  0.4363340000000 1.0
C      1  0.4804030000000  0.5142310000000  0.4946010000000 1.0
C      1  0.5433880000000  0.5430670000000  0.5707480000000 1.0
C      1  0.5643420000000  0.5229390000000  0.5637540000000 1.0
C      1  0.4496630000000  0.4301800000000  0.4984010000000 1.0
C      1  0.4759360000000  0.4913110000000  0.5867370000000 1.0
C      1  0.4162000000000  0.5250560000000  0.5471830000000 1.0
C      1  0.5614960000000  0.4239280000000  0.4716920000000 1.0
C      1  0.4370850000000  0.4877700000000  0.4727280000000 1.0
C      1  0.5470680000000  0.5337560000000  0.4377460000000 1.0
C      1  0.4620940000000  0.4343810000000  0.5454160000000 1.0
C      1  0.4692410000000  0.4722030000000  0.5141170000000 1.0
C      1  0.5309820000000  0.4206160000000  0.5655810000000 1.0
C      1  0.5615880000000  0.4493460000000  0.5382700000000 1.0
C      1  0.4488100000000  0.4640900000000  0.4567810000000 1.0
C      1  0.5603600000000  0.5522030000000  0.5270180000000 1.0
C      1  0.3988510000000  0.5060640000000  0.5009220000000 1.0
C      1  0.4738340000000  0.4216090000000  0.4823990000000 1.0
C      1  0.5320750000000  0.4578490000000  0.5061600000000 1.0
C      1  0.4511630000000  0.4486720000000  0.5222380000000 1.0
C      1  0.4914550000000  0.5628390000000  0.5600640000000 1.0
C      1  0.5059550000000  0.4310390000000  0.5714490000000 1.0
C      1  0.5248500000000  0.4288920000000  0.4422810000000 1.0
C      1  0.4450480000000  0.5343190000000  0.4656290000000 1.0
C      1  0.4698900000000  0.5181990000000  0.5739690000000 1.0
C      1  0.5404370000000  0.5611740000000  0.5474820000000 1.0
C      1  0.4282100000000  0.5577090000000  0.5298220000000 1.0
C      1  0.4999130000000  0.4399190000000  0.4393010000000 1.0
C      1  0.5962100000000  0.5374980000000  0.4859830000000 1.0
C      1  0.4973720000000  0.5346170000000  0.5102620000000 1.0
C      1  0.5590350000000  0.4621820000000  0.4442590000000 1.0
C      1  0.4258830000000  0.4382500000000  0.4847770000000 1.0
C      1  0.5679000000000  0.5318240000000  0.4808620000000 1.0
C      1  0.4783190000000  0.5136730000000  0.5446430000000 1.0
C      1  0.4897370000000  0.4142280000000  0.5272100000000 1.0
C      1  0.5130860000000  0.5127340000000  0.4081610000000 1.0
C      1  0.4433770000000  0.5554080000000  0.5555660000000 1.0
C      1  0.4986350000000  0.4219200000000  0.5001450000000 1.0
C      1  0.5183880000000  0.5269590000000  0.5738710000000 1.0
C      1  0.5228960000000  0.5395440000000  0.4925760000000 1.0
C      1  0.5059980000000  0.4532610000000  0.5880430000000 1.0
C      1  0.4634640000000  0.5687090000000  0.4867580000000 1.0
C      1  0.5872580000000  0.5099450000000  0.5233840000000 1.0
C      1  0.5101590000000  0.5771280000000  0.5111760000000 1.0
C      1  0.4862640000000  0.5140510000000  0.3994880000000 1.0
C      1  0.5794700000000  0.5328120000000  0.5402920000000 1.0
C      1  0.5351230000000  0.4197600000000  0.5144330000000 1.0
C      1  0.6038440000000  0.5143190000000  0.5002790000000 1.0
C      1  0.4287220000000  0.5372580000000  0.4908420000000 1.0
C      1  0.5489890000000  0.4837650000000  0.4283280000000 1.0
C      1  0.5215260000000  0.4855280000000  0.4178940000000 1.0
C      1  0.5033700000000  0.4511470000000  0.4968940000000 1.0
C      1  0.4092580000000  0.4827220000000  0.4853200000000 1.0
C      1  0.4015270000000  0.5310970000000  0.4877450000000 1.0
C      1  0.4609710000000  0.5340010000000  0.5288180000000 1.0
C      1  0.5203720000000  0.5362930000000  0.4247880000000 1.0
C      1  0.4488420000000  0.5739080000000  0.5134530000000 1.0
C      1  0.4122010000000  0.4585470000000  0.5024500000000 1.0
C      1  0.5895380000000  0.4843510000000  0.5355020000000 1.0
C      1  0.5124580000000  0.5648610000000  0.5385560000000 1.0
C      1  0.4448000000000  0.4832710000000  0.5559930000000 1.0
C      1  0.5555570000000  0.5509550000000  0.4603660000000 1.0
C      1  0.5483130000000  0.4980830000000  0.5555070000000 1.0
C      1  0.5309230000000  0.4935460000000  0.4772430000000 1.0
C      1  0.4293640000000  0.4426830000000  0.4572650000000 1.0
C      1  0.4932100000000  0.4840960000000  0.4566940000000 1.0
C      1  0.5639420000000  0.5080230000000  0.4358940000000 1.0
C      1  0.4517960000000  0.5812330000000  0.4631100000000 1.0
END
