TITL C-950536-5891-313 -1.71779195179469e-06 125000 -214.414543801443 0 0 37 (C1) n - 1
REM
REM in /home/bkarasulu/work/CARBON/AIRSS/Generating-Clusters/EDIP-Nigel-Params/with-SteepDescent/Only-C1/SD-CG/HFTN-CG
REM
REM
REM
REM
REM
REM ./C.cell (11c1c37f851c82e70ff6c80c92926a4b)
REM
REM compiler GCC version 9.2.1 20190827 (Red Hat 9.2.1-1)
REM options -cpp -mtune=generic -march=x86-64 -g -O0 -fpre-include=/usr/include/finclude/math-vector-fortran.h
REM seed -82247622 -2056483020 2045117720 982812237 1524297790 -1169846049 2048986154 771180029 753473760 -1394639180 -1576852471 -902366314 -1079603411 1846040669 1475455801 -648575661 408689204 444396293 1481592378 1471141461 1342737366 308170654 76178941 -659557563 -1586433607 833932882 1598371933 2002113136 226154135 -351522866 -495773263 -2049385957 -1846940676
REM
CELL 1.54180   50.00000   50.00000   50.00000   90.00000   90.00000   90.00000
LATT -1
SFAC C  
C      1  0.5247450000000  0.4518210000000  0.5120090000000 1.0
C      1  0.5313500000000  0.5488420000000  0.5123920000000 1.0
C      1  0.5586000000000  0.4814730000000  0.5310260000000 1.0
C      1  0.5436960000000  0.5276890000000  0.5534180000000 1.0
C      1  0.4544080000000  0.4734110000000  0.5276320000000 1.0
C      1  0.5050370000000  0.5386160000000  0.5081720000000 1.0
C      1  0.4564730000000  0.4777500000000  0.4996870000000 1.0
C      1  0.5115450000000  0.5069570000000  0.5552700000000 1.0
C      1  0.5304110000000  0.5324300000000  0.4674830000000 1.0
C      1  0.4414460000000  0.4987700000000  0.4858900000000 1.0
C      1  0.4823190000000  0.5459930000000  0.5232510000000 1.0
C      1  0.5205610000000  0.4857780000000  0.4461460000000 1.0
C      1  0.4807370000000  0.5053470000000  0.5239450000000 1.0
C      1  0.5185020000000  0.5321230000000  0.5643460000000 1.0
C      1  0.4688800000000  0.4768240000000  0.5508020000000 1.0
C      1  0.4890940000000  0.4462820000000  0.4865160000000 1.0
C      1  0.5092830000000  0.4537390000000  0.4651390000000 1.0
C      1  0.5478680000000  0.5007060000000  0.5138810000000 1.0
C      1  0.5469210000000  0.5442810000000  0.4885750000000 1.0
C      1  0.4600120000000  0.5283020000000  0.5217240000000 1.0
C      1  0.5355210000000  0.5030240000000  0.4650910000000 1.0
C      1  0.4630180000000  0.4562760000000  0.4799350000000 1.0
C      1  0.5029340000000  0.5362540000000  0.4795050000000 1.0
C      1  0.4784930000000  0.5042090000000  0.4624420000000 1.0
C      1  0.4920190000000  0.4872180000000  0.4426410000000 1.0
C      1  0.5285030000000  0.4915170000000  0.4917750000000 1.0
C      1  0.4480950000000  0.5279760000000  0.4943670000000 1.0
C      1  0.4508960000000  0.4929270000000  0.4586060000000 1.0
C      1  0.4756660000000  0.5322270000000  0.4533050000000 1.0
C      1  0.4880510000000  0.4933130000000  0.5619650000000 1.0
C      1  0.4967280000000  0.4624450000000  0.5099150000000 1.0
C      1  0.5413720000000  0.4609390000000  0.5322890000000 1.0
C      1  0.4733190000000  0.4626540000000  0.4498570000000 1.0
C      1  0.5507080000000  0.5287840000000  0.5242540000000 1.0
C      1  0.4958750000000  0.4970970000000  0.4960940000000 1.0
C      1  0.5321410000000  0.4615740000000  0.4844460000000 1.0
C      1  0.4647710000000  0.5444340000000  0.4762080000000 1.0
END
