TITL C-951335-1172-190 -2.79608137421457e-07 125000 -878.080359194692 0 0 144 (C1) n - 1
REM
REM in /home/bkarasulu/work/CARBON/AIRSS/Generating-Clusters/EDIP-Nigel-Params/with-SteepDescent/Only-C1/SD-CG/HFTN-CG
REM
REM
REM
REM
REM
REM ./C.cell (11c1c37f851c82e70ff6c80c92926a4b)
REM
REM compiler GCC version 9.2.1 20190827 (Red Hat 9.2.1-1)
REM options -cpp -mtune=generic -march=x86-64 -g -O0 -fpre-include=/usr/include/finclude/math-vector-fortran.h
REM seed -1298176008 887677505 -184045442 -717545566 -58538143 303355592 1028455512 -511111539 197821330 440118827 1562922341 1933630207 1673947192 1384812576 890778112 -424462354 -143331299 1107484464 1481853884 1131481265 1912925494 1256032342 1046138542 1451401588 1519595913 -1942859173 -677318294 -132553989 -404368816 1982019758 1705459523 -1147860211 -2035182988
REM
CELL 1.54180   50.00000   50.00000   50.00000   90.00000   90.00000   90.00000
LATT -1
SFAC C  
C      1  0.3994590000000  0.5511310000000  0.5126070000000 1.0
C      1  0.6001170000000  0.4918990000000  0.5413280000000 1.0
C      1  0.6069220000000  0.5106790000000  0.5194420000000 1.0
C      1  0.4861160000000  0.4045000000000  0.4674880000000 1.0
C      1  0.4923930000000  0.4807390000000  0.5515570000000 1.0
C      1  0.5289800000000  0.5188360000000  0.4304600000000 1.0
C      1  0.5945690000000  0.4678560000000  0.5255910000000 1.0
C      1  0.5296220000000  0.4597160000000  0.4000300000000 1.0
C      1  0.5822780000000  0.5378890000000  0.5519700000000 1.0
C      1  0.5460410000000  0.4773880000000  0.4991960000000 1.0
C      1  0.5179380000000  0.5198800000000  0.5941140000000 1.0
C      1  0.5581960000000  0.5255660000000  0.5161350000000 1.0
C      1  0.4653850000000  0.5187210000000  0.5855520000000 1.0
C      1  0.4877940000000  0.6116600000000  0.4872920000000 1.0
C      1  0.5095030000000  0.4191950000000  0.4582300000000 1.0
C      1  0.5595610000000  0.5168820000000  0.4321240000000 1.0
C      1  0.4693040000000  0.5656110000000  0.5071500000000 1.0
C      1  0.4616830000000  0.4084100000000  0.4555040000000 1.0
C      1  0.5015290000000  0.5880680000000  0.5257780000000 1.0
C      1  0.5038000000000  0.5910390000000  0.4972030000000 1.0
C      1  0.5110270000000  0.5026420000000  0.3888010000000 1.0
C      1  0.5556000000000  0.4690810000000  0.5630610000000 1.0
C      1  0.4586810000000  0.4566270000000  0.4695870000000 1.0
C      1  0.4669620000000  0.5791600000000  0.4569090000000 1.0
C      1  0.4905190000000  0.4982560000000  0.4562600000000 1.0
C      1  0.4229470000000  0.5088990000000  0.5474720000000 1.0
C      1  0.4469150000000  0.4356960000000  0.5124050000000 1.0
C      1  0.4491510000000  0.4992350000000  0.4872730000000 1.0
C      1  0.4261110000000  0.4472850000000  0.5551570000000 1.0
C      1  0.4569610000000  0.4197810000000  0.5342730000000 1.0
C      1  0.5559050000000  0.4422320000000  0.4339960000000 1.0
C      1  0.4515630000000  0.5108590000000  0.4453150000000 1.0
C      1  0.5105600000000  0.5262860000000  0.5374920000000 1.0
C      1  0.4557260000000  0.4453680000000  0.4263020000000 1.0
C      1  0.5157790000000  0.5714980000000  0.5673400000000 1.0
C      1  0.5719860000000  0.5362250000000  0.4512180000000 1.0
C      1  0.4288980000000  0.5416260000000  0.5631200000000 1.0
C      1  0.5457330000000  0.5619660000000  0.5268610000000 1.0
C      1  0.4838630000000  0.5731120000000  0.4336110000000 1.0
C      1  0.4244570000000  0.5759490000000  0.4756250000000 1.0
C      1  0.5180970000000  0.5476550000000  0.4958880000000 1.0
C      1  0.5118430000000  0.4425070000000  0.4397630000000 1.0
C      1  0.5205690000000  0.4237500000000  0.5033970000000 1.0
C      1  0.4703910000000  0.5700200000000  0.5394040000000 1.0
C      1  0.4073800000000  0.5288990000000  0.4752380000000 1.0
C      1  0.4694280000000  0.4488000000000  0.4973720000000 1.0
C      1  0.5546340000000  0.4373610000000  0.4663450000000 1.0
C      1  0.4798150000000  0.5372870000000  0.5676350000000 1.0
C      1  0.5318430000000  0.4205150000000  0.4757350000000 1.0
C      1  0.4039620000000  0.4859540000000  0.4512050000000 1.0
C      1  0.5641980000000  0.4651880000000  0.4155100000000 1.0
C      1  0.4051210000000  0.5155970000000  0.4490360000000 1.0
C      1  0.5522500000000  0.5057950000000  0.5384980000000 1.0
C      1  0.4134870000000  0.5017640000000  0.5207360000000 1.0
C      1  0.5716770000000  0.4884270000000  0.4308290000000 1.0
C      1  0.5920880000000  0.5599520000000  0.5046820000000 1.0
C      1  0.4553240000000  0.5389100000000  0.5059540000000 1.0
C      1  0.4490720000000  0.4329020000000  0.4523760000000 1.0
C      1  0.5411580000000  0.4004580000000  0.5423800000000 1.0
C      1  0.4376810000000  0.5530320000000  0.4302970000000 1.0
C      1  0.5723860000000  0.4446440000000  0.5635180000000 1.0
C      1  0.4929440000000  0.4069790000000  0.5386380000000 1.0
C      1  0.5387200000000  0.4982940000000  0.5906310000000 1.0
C      1  0.4418250000000  0.5377410000000  0.5893250000000 1.0
C      1  0.4664730000000  0.5515070000000  0.4207840000000 1.0
C      1  0.4691740000000  0.4440600000000  0.5758310000000 1.0
C      1  0.5135500000000  0.5668080000000  0.4357320000000 1.0
C      1  0.5245070000000  0.5792320000000  0.5403390000000 1.0
C      1  0.4717040000000  0.4920580000000  0.5054210000000 1.0
C      1  0.5264910000000  0.4293760000000  0.5722160000000 1.0
C      1  0.4408310000000  0.5121190000000  0.4047120000000 1.0
C      1  0.4948410000000  0.5633790000000  0.4866290000000 1.0
C      1  0.4869350000000  0.3906480000000  0.4914620000000 1.0
C      1  0.5339770000000  0.5229960000000  0.5543650000000 1.0
C      1  0.5673770000000  0.4988470000000  0.5830870000000 1.0
C      1  0.5539850000000  0.5490560000000  0.5541930000000 1.0
C      1  0.4726480000000  0.5222950000000  0.4247700000000 1.0
C      1  0.4856020000000  0.4832780000000  0.6034390000000 1.0
C      1  0.4412020000000  0.4533680000000  0.5785270000000 1.0
C      1  0.5666130000000  0.4538220000000  0.4911720000000 1.0
C      1  0.4278200000000  0.5245350000000  0.4297510000000 1.0
C      1  0.5218600000000  0.5244810000000  0.4022490000000 1.0
C      1  0.5116470000000  0.5240350000000  0.5095540000000 1.0
C      1  0.4647210000000  0.5987320000000  0.4782060000000 1.0
C      1  0.5849640000000  0.4428240000000  0.5363610000000 1.0
C      1  0.4352840000000  0.4847780000000  0.4005660000000 1.0
C      1  0.6010100000000  0.4684630000000  0.4974410000000 1.0
C      1  0.5549130000000  0.4226960000000  0.5706000000000 1.0
C      1  0.4887340000000  0.5806540000000  0.5714130000000 1.0
C      1  0.5343490000000  0.5386320000000  0.4744110000000 1.0
C      1  0.4817000000000  0.5377030000000  0.4599260000000 1.0
C      1  0.5309280000000  0.4367050000000  0.4180640000000 1.0
C      1  0.4697610000000  0.5171480000000  0.5221010000000 1.0
C      1  0.5821140000000  0.5577060000000  0.4683660000000 1.0
C      1  0.5284510000000  0.5482840000000  0.5835800000000 1.0
C      1  0.5182720000000  0.4723730000000  0.4859020000000 1.0
C      1  0.4651850000000  0.4757210000000  0.5368730000000 1.0
C      1  0.4866150000000  0.5152730000000  0.5468160000000 1.0
C      1  0.5428360000000  0.4216050000000  0.5224280000000 1.0
C      1  0.4372600000000  0.4786630000000  0.4702950000000 1.0
C      1  0.4123370000000  0.4732340000000  0.5127200000000 1.0
C      1  0.5413180000000  0.4759190000000  0.5311330000000 1.0
C      1  0.5160500000000  0.4519890000000  0.5871740000000 1.0
C      1  0.5777730000000  0.5069520000000  0.5561980000000 1.0
C      1  0.5875140000000  0.5343000000000  0.5210140000000 1.0
C      1  0.4903830000000  0.4652660000000  0.5811130000000 1.0
C      1  0.5713950000000  0.5038470000000  0.4722330000000 1.0
C      1  0.5265930000000  0.5676610000000  0.4110770000000 1.0
C      1  0.4270570000000  0.5624030000000  0.5179550000000 1.0
C      1  0.4287370000000  0.4534850000000  0.5274400000000 1.0
C      1  0.4386490000000  0.4691410000000  0.4237300000000 1.0
C      1  0.5650750000000  0.5764730000000  0.4821280000000 1.0
C      1  0.6006130000000  0.5095600000000  0.4717630000000 1.0
C      1  0.5035950000000  0.4515940000000  0.5058470000000 1.0
C      1  0.5162280000000  0.5397920000000  0.4499150000000 1.0
C      1  0.4128080000000  0.4685740000000  0.4841240000000 1.0
C      1  0.4396460000000  0.5628260000000  0.5450150000000 1.0
C      1  0.3984450000000  0.5205880000000  0.5041940000000 1.0
C      1  0.4705310000000  0.5622590000000  0.5823800000000 1.0
C      1  0.5604900000000  0.4798010000000  0.4567550000000 1.0
C      1  0.5670190000000  0.5769030000000  0.5114090000000 1.0
C      1  0.6087760000000  0.4959260000000  0.4942270000000 1.0
C      1  0.4845680000000  0.4552080000000  0.4295440000000 1.0
C      1  0.4742930000000  0.4402040000000  0.5467520000000 1.0
C      1  0.4515640000000  0.5280750000000  0.4764100000000 1.0
C      1  0.5151050000000  0.4923390000000  0.4365710000000 1.0
C      1  0.4018180000000  0.5583400000000  0.4818270000000 1.0
C      1  0.5120900000000  0.4816490000000  0.4075790000000 1.0
C      1  0.5026690000000  0.4017780000000  0.5112970000000 1.0
C      1  0.5269400000000  0.5495150000000  0.3911800000000 1.0
C      1  0.5287450000000  0.4707450000000  0.4545840000000 1.0
C      1  0.5495890000000  0.5152110000000  0.4893120000000 1.0
C      1  0.4105100000000  0.4711080000000  0.4269610000000 1.0
C      1  0.4894250000000  0.5108850000000  0.6018920000000 1.0
C      1  0.4418180000000  0.4813140000000  0.5835520000000 1.0
C      1  0.5359310000000  0.4701270000000  0.5960550000000 1.0
C      1  0.4452180000000  0.4918000000000  0.5569580000000 1.0
C      1  0.5118450000000  0.4676350000000  0.5320910000000 1.0
C      1  0.4414690000000  0.5904960000000  0.4955790000000 1.0
C      1  0.4422130000000  0.5658400000000  0.4553800000000 1.0
C      1  0.5675010000000  0.4337760000000  0.5145380000000 1.0
C      1  0.4986760000000  0.4964290000000  0.4873020000000 1.0
C      1  0.5159710000000  0.4054770000000  0.5577790000000 1.0
C      1  0.4802500000000  0.4698200000000  0.4545050000000 1.0
END
