TITL C-951341-1326-512 2.87744128801022e-06 125000 -363.579866644912 0 0 61 (C1) n - 1
REM
REM in /home/bkarasulu/work/CARBON/AIRSS/Generating-Clusters/EDIP-Nigel-Params/with-SteepDescent/Only-C1/SD-CG/HFTN-CG
REM
REM
REM
REM
REM
REM ./C.cell (11c1c37f851c82e70ff6c80c92926a4b)
REM
REM compiler GCC version 9.2.1 20190827 (Red Hat 9.2.1-1)
REM options -cpp -mtune=generic -march=x86-64 -g -O0 -fpre-include=/usr/include/finclude/math-vector-fortran.h
REM seed 165737455 -1810613918 -2066709219 1290429159 -56832857 -36447937 -1206478581 -1028887867 1859754630 937074820 962344025 1982569498 -1236921243 1497448171 -80798553 1066213366 671217263 932156604 -706939912 -664959982 -607972386 1130643339 -453608303 1381470612 -514757062 1081455789 -1991369717 -1360594504 -760380849 -348053133 -2146594037 -1868811751 -2073010420
REM
CELL 1.54180   50.00000   50.00000   50.00000   90.00000   90.00000   90.00000
LATT -1
SFAC C  
C      1  0.4273760000000  0.5333010000000  0.4852390000000 1.0
C      1  0.4940840000000  0.5462090000000  0.4568780000000 1.0
C      1  0.5362290000000  0.5322920000000  0.4324000000000 1.0
C      1  0.5151550000000  0.5251490000000  0.4926500000000 1.0
C      1  0.5108180000000  0.5718040000000  0.5253540000000 1.0
C      1  0.5431760000000  0.4535390000000  0.5235820000000 1.0
C      1  0.5079180000000  0.4300790000000  0.5334710000000 1.0
C      1  0.5427770000000  0.5515820000000  0.4956370000000 1.0
C      1  0.4340140000000  0.5208000000000  0.5331580000000 1.0
C      1  0.4736480000000  0.4294830000000  0.5141100000000 1.0
C      1  0.4482330000000  0.5015330000000  0.5517150000000 1.0
C      1  0.4982440000000  0.5677480000000  0.4784890000000 1.0
C      1  0.5643740000000  0.4781350000000  0.4887120000000 1.0
C      1  0.4774830000000  0.4416580000000  0.4679350000000 1.0
C      1  0.4441720000000  0.5383170000000  0.4632840000000 1.0
C      1  0.4379830000000  0.4914960000000  0.4481420000000 1.0
C      1  0.4748670000000  0.4964680000000  0.5110280000000 1.0
C      1  0.4824540000000  0.5243020000000  0.4961730000000 1.0
C      1  0.5377050000000  0.4674350000000  0.4487570000000 1.0
C      1  0.5138800000000  0.5266720000000  0.4485580000000 1.0
C      1  0.4704860000000  0.4584080000000  0.5519380000000 1.0
C      1  0.4728650000000  0.5271240000000  0.4663760000000 1.0
C      1  0.5098580000000  0.4733860000000  0.4538100000000 1.0
C      1  0.5032070000000  0.5004800000000  0.4494870000000 1.0
C      1  0.5325450000000  0.4549900000000  0.5509120000000 1.0
C      1  0.5757060000000  0.5058690000000  0.4889200000000 1.0
C      1  0.4743470000000  0.5513230000000  0.5124550000000 1.0
C      1  0.4438510000000  0.4778320000000  0.4715530000000 1.0
C      1  0.4507570000000  0.4431730000000  0.5036680000000 1.0
C      1  0.4351730000000  0.5146550000000  0.5045570000000 1.0
C      1  0.4459620000000  0.4720340000000  0.5457560000000 1.0
C      1  0.5286340000000  0.5179730000000  0.5199660000000 1.0
C      1  0.4871100000000  0.4509980000000  0.5283450000000 1.0
C      1  0.5430260000000  0.4821550000000  0.5574450000000 1.0
C      1  0.4440970000000  0.5474150000000  0.5362650000000 1.0
C      1  0.4968940000000  0.4739010000000  0.5062910000000 1.0
C      1  0.5199060000000  0.5683590000000  0.4990560000000 1.0
C      1  0.5474140000000  0.4499070000000  0.4691390000000 1.0
C      1  0.5616540000000  0.4926870000000  0.5343040000000 1.0
C      1  0.4735890000000  0.5747580000000  0.4921230000000 1.0
C      1  0.5133740000000  0.5264570000000  0.5441610000000 1.0
C      1  0.4432200000000  0.5179600000000  0.4426720000000 1.0
C      1  0.4958840000000  0.4954260000000  0.5605140000000 1.0
C      1  0.4757560000000  0.5045610000000  0.5410540000000 1.0
C      1  0.5242500000000  0.4376510000000  0.4820720000000 1.0
C      1  0.4466380000000  0.4697660000000  0.5160120000000 1.0
C      1  0.5662700000000  0.4698190000000  0.5165490000000 1.0
C      1  0.4518500000000  0.4495880000000  0.4749390000000 1.0
C      1  0.5724480000000  0.5159740000000  0.5170490000000 1.0
C      1  0.5638720000000  0.5231670000000  0.4696390000000 1.0
C      1  0.5265680000000  0.4864200000000  0.5085070000000 1.0
C      1  0.5584050000000  0.5417300000000  0.5177850000000 1.0
C      1  0.5300120000000  0.4300240000000  0.5103680000000 1.0
C      1  0.5337900000000  0.5003930000000  0.4778150000000 1.0
C      1  0.5004610000000  0.4564800000000  0.4772350000000 1.0
C      1  0.5042570000000  0.5535540000000  0.5440170000000 1.0
C      1  0.4345380000000  0.4875980000000  0.4970070000000 1.0
C      1  0.5531180000000  0.4886410000000  0.4396530000000 1.0
C      1  0.5565440000000  0.5159680000000  0.4431620000000 1.0
C      1  0.4440100000000  0.5635370000000  0.5130390000000 1.0
C      1  0.5230630000000  0.4998550000000  0.5691140000000 1.0
END
