TITL C-951342-2639-262 -2.63533957767806e-06 125000 -1097.87449831048 0 0 175 (C1) n - 1
REM
REM in /home/bkarasulu/work/CARBON/AIRSS/Generating-Clusters/EDIP-Nigel-Params/with-SteepDescent/Only-C1/SD-CG/HFTN-CG
REM
REM
REM
REM
REM
REM ./C.cell (11c1c37f851c82e70ff6c80c92926a4b)
REM
REM compiler GCC version 9.2.1 20190827 (Red Hat 9.2.1-1)
REM options -cpp -mtune=generic -march=x86-64 -g -O0 -fpre-include=/usr/include/finclude/math-vector-fortran.h
REM seed -1666590014 -1708408614 -1253927089 -682401200 1091873592 677416827 -1982842427 2084907731 338135680 1558528484 -1831325606 -1330100530 1143544217 -724436465 -1972075206 -798711369 280498758 2102831380 -1943178130 -1639588106 -2100676555 -834902847 -2042787671 -1398717299 944523678 -1447247941 466662037 626533925 -2080000885 1009105284 -1797999146 525393357 1904178096
REM
CELL 1.54180   50.00000   50.00000   50.00000   90.00000   90.00000   90.00000
LATT -1
SFAC C  
C      1  0.5347350000000  0.5977130000000  0.5085350000000 1.0
C      1  0.5110930000000  0.4023470000000  0.5057910000000 1.0
C      1  0.5375310000000  0.5408170000000  0.5895990000000 1.0
C      1  0.5053790000000  0.6006260000000  0.5045020000000 1.0
C      1  0.4884590000000  0.4828660000000  0.4426140000000 1.0
C      1  0.5192920000000  0.4255040000000  0.4889700000000 1.0
C      1  0.5310880000000  0.4059110000000  0.4370070000000 1.0
C      1  0.5930380000000  0.4667830000000  0.5555790000000 1.0
C      1  0.4641870000000  0.4166260000000  0.5173250000000 1.0
C      1  0.3964820000000  0.5601540000000  0.4997550000000 1.0
C      1  0.4959690000000  0.4323200000000  0.4721130000000 1.0
C      1  0.5917040000000  0.5752780000000  0.4735450000000 1.0
C      1  0.4617530000000  0.5367470000000  0.5085120000000 1.0
C      1  0.4981710000000  0.5485320000000  0.3975920000000 1.0
C      1  0.4678090000000  0.5602050000000  0.4362230000000 1.0
C      1  0.5455910000000  0.5050250000000  0.4604440000000 1.0
C      1  0.5763260000000  0.4766090000000  0.4454290000000 1.0
C      1  0.5599610000000  0.4329400000000  0.5643670000000 1.0
C      1  0.5713540000000  0.5818040000000  0.4429120000000 1.0
C      1  0.5129380000000  0.5155890000000  0.5646170000000 1.0
C      1  0.5099040000000  0.5756500000000  0.4027920000000 1.0
C      1  0.5558220000000  0.4062410000000  0.5056100000000 1.0
C      1  0.4451700000000  0.4317090000000  0.5823240000000 1.0
C      1  0.6050770000000  0.4557340000000  0.4821180000000 1.0
C      1  0.5769640000000  0.4566650000000  0.4691200000000 1.0
C      1  0.4868420000000  0.5309460000000  0.5529720000000 1.0
C      1  0.4351270000000  0.5186560000000  0.5532190000000 1.0
C      1  0.6224780000000  0.4750960000000  0.4717160000000 1.0
C      1  0.4617930000000  0.5333260000000  0.4764640000000 1.0
C      1  0.4308830000000  0.4475480000000  0.4744740000000 1.0
C      1  0.4890220000000  0.5852940000000  0.5508290000000 1.0
C      1  0.4986300000000  0.3912240000000  0.5484090000000 1.0
C      1  0.5533770000000  0.5195660000000  0.5084130000000 1.0
C      1  0.4535860000000  0.5050620000000  0.4711520000000 1.0
C      1  0.5426880000000  0.5118720000000  0.5972060000000 1.0
C      1  0.3899730000000  0.5007890000000  0.5436440000000 1.0
C      1  0.5285030000000  0.3936480000000  0.5458950000000 1.0
C      1  0.4788600000000  0.5877110000000  0.4395530000000 1.0
C      1  0.5489550000000  0.4959080000000  0.4893680000000 1.0
C      1  0.5700230000000  0.5282170000000  0.5548790000000 1.0
C      1  0.5016570000000  0.5613480000000  0.4764470000000 1.0
C      1  0.5004470000000  0.5009660000000  0.3954790000000 1.0
C      1  0.5172550000000  0.5253490000000  0.3924240000000 1.0
C      1  0.5101000000000  0.5678550000000  0.5611190000000 1.0
C      1  0.5985860000000  0.5329650000000  0.5422700000000 1.0
C      1  0.4948820000000  0.4357650000000  0.4065550000000 1.0
C      1  0.5275960000000  0.5890290000000  0.4463130000000 1.0
C      1  0.4259560000000  0.5083470000000  0.4571180000000 1.0
C      1  0.5093840000000  0.4875960000000  0.4645190000000 1.0
C      1  0.5371230000000  0.5239240000000  0.4165440000000 1.0
C      1  0.4759830000000  0.5049180000000  0.5426320000000 1.0
C      1  0.6061480000000  0.4597240000000  0.5101620000000 1.0
C      1  0.5274360000000  0.4653840000000  0.5776450000000 1.0
C      1  0.4353700000000  0.4936010000000  0.5099960000000 1.0
C      1  0.5550820000000  0.4566560000000  0.5815610000000 1.0
C      1  0.5549060000000  0.4758220000000  0.4250230000000 1.0
C      1  0.5725580000000  0.4775280000000  0.5738080000000 1.0
C      1  0.4731010000000  0.4271530000000  0.5700720000000 1.0
C      1  0.5600610000000  0.5675880000000  0.4192050000000 1.0
C      1  0.5536200000000  0.6033390000000  0.4862450000000 1.0
C      1  0.5474400000000  0.5779940000000  0.5255400000000 1.0
C      1  0.3949520000000  0.4750190000000  0.4894850000000 1.0
C      1  0.4316590000000  0.5301330000000  0.4379040000000 1.0
C      1  0.4212890000000  0.5326540000000  0.4113910000000 1.0
C      1  0.4742910000000  0.4539990000000  0.4408180000000 1.0
C      1  0.5778030000000  0.5492430000000  0.4717370000000 1.0
C      1  0.4156490000000  0.4838840000000  0.4436710000000 1.0
C      1  0.5245420000000  0.5425000000000  0.5124720000000 1.0
C      1  0.5238030000000  0.4719120000000  0.5488850000000 1.0
C      1  0.5524480000000  0.4107580000000  0.4773450000000 1.0
C      1  0.4884570000000  0.5384950000000  0.4255710000000 1.0
C      1  0.4798300000000  0.4508930000000  0.5403410000000 1.0
C      1  0.4146750000000  0.4720120000000  0.5117090000000 1.0
C      1  0.5820790000000  0.4412290000000  0.5473780000000 1.0
C      1  0.5348120000000  0.4244320000000  0.5489070000000 1.0
C      1  0.5092630000000  0.5116430000000  0.5092300000000 1.0
C      1  0.4283660000000  0.4777390000000  0.5818610000000 1.0
C      1  0.4629170000000  0.5825660000000  0.5629280000000 1.0
C      1  0.5914410000000  0.5522310000000  0.5195100000000 1.0
C      1  0.4491390000000  0.4533030000000  0.4209830000000 1.0
C      1  0.4463590000000  0.4595740000000  0.5961650000000 1.0
C      1  0.5085700000000  0.5499010000000  0.5847150000000 1.0
C      1  0.4912920000000  0.4077650000000  0.5257100000000 1.0
C      1  0.5654630000000  0.4295730000000  0.4601290000000 1.0
C      1  0.4917530000000  0.4883870000000  0.6050490000000 1.0
C      1  0.5885340000000  0.5030900000000  0.4516040000000 1.0
C      1  0.4463630000000  0.5502270000000  0.4545030000000 1.0
C      1  0.4210280000000  0.4189020000000  0.5122340000000 1.0
C      1  0.5628720000000  0.4554180000000  0.5172170000000 1.0
C      1  0.4319190000000  0.4778070000000  0.4184220000000 1.0
C      1  0.4583350000000  0.4191330000000  0.4473280000000 1.0
C      1  0.4204940000000  0.4617840000000  0.5586060000000 1.0
C      1  0.5529250000000  0.5500060000000  0.5658330000000 1.0
C      1  0.4020040000000  0.4728840000000  0.5388570000000 1.0
C      1  0.4853230000000  0.4132540000000  0.4539040000000 1.0
C      1  0.5348060000000  0.3881890000000  0.5168660000000 1.0
C      1  0.4706130000000  0.5419330000000  0.5865340000000 1.0
C      1  0.4865700000000  0.5829370000000  0.5215480000000 1.0
C      1  0.4545970000000  0.6036860000000  0.4906510000000 1.0
C      1  0.4316230000000  0.5106600000000  0.3983320000000 1.0
C      1  0.5142050000000  0.4392400000000  0.5855280000000 1.0
C      1  0.4915650000000  0.4025860000000  0.5741750000000 1.0
C      1  0.5112130000000  0.4499560000000  0.5343980000000 1.0
C      1  0.6033650000000  0.4789020000000  0.5310080000000 1.0
C      1  0.3833360000000  0.5157280000000  0.5175180000000 1.0
C      1  0.4380630000000  0.5723100000000  0.5200930000000 1.0
C      1  0.4628470000000  0.4471420000000  0.5114490000000 1.0
C      1  0.4377980000000  0.4046910000000  0.4918420000000 1.0
C      1  0.4468140000000  0.5006810000000  0.5745510000000 1.0
C      1  0.4784640000000  0.5085250000000  0.5136200000000 1.0
C      1  0.5359520000000  0.5655230000000  0.5485470000000 1.0
C      1  0.5372770000000  0.5357370000000  0.4619730000000 1.0
C      1  0.5492980000000  0.5828230000000  0.4647250000000 1.0
C      1  0.4829440000000  0.5047850000000  0.4204500000000 1.0
C      1  0.4319230000000  0.4148490000000  0.5385660000000 1.0
C      1  0.4368250000000  0.4201090000000  0.4667220000000 1.0
C      1  0.4591090000000  0.5174070000000  0.5967290000000 1.0
C      1  0.5708270000000  0.5014680000000  0.5902370000000 1.0
C      1  0.5301460000000  0.5698670000000  0.4244460000000 1.0
C      1  0.4535130000000  0.4999290000000  0.4135040000000 1.0
C      1  0.3868780000000  0.5037560000000  0.4896050000000 1.0
C      1  0.5809860000000  0.5933720000000  0.4949740000000 1.0
C      1  0.5544880000000  0.5093740000000  0.5363440000000 1.0
C      1  0.5021470000000  0.5854460000000  0.4592060000000 1.0
C      1  0.4063640000000  0.5205840000000  0.4755480000000 1.0
C      1  0.5034630000000  0.4017350000000  0.4334280000000 1.0
C      1  0.5083800000000  0.5151210000000  0.4784850000000 1.0
C      1  0.4677510000000  0.6118480000000  0.4682290000000 1.0
C      1  0.4925050000000  0.5496510000000  0.5246110000000 1.0
C      1  0.4755820000000  0.5073320000000  0.6165710000000 1.0
C      1  0.4034220000000  0.5382050000000  0.5193220000000 1.0
C      1  0.5013510000000  0.4725150000000  0.4898750000000 1.0
C      1  0.5805290000000  0.5346280000000  0.4981610000000 1.0
C      1  0.4946260000000  0.4072890000000  0.4072350000000 1.0
C      1  0.5178690000000  0.4936070000000  0.5899300000000 1.0
C      1  0.6074040000000  0.4990990000000  0.4734770000000 1.0
C      1  0.5220230000000  0.5426100000000  0.4354360000000 1.0
C      1  0.4963500000000  0.6089400000000  0.4761650000000 1.0
C      1  0.5192040000000  0.4512260000000  0.4023880000000 1.0
C      1  0.4308820000000  0.4469260000000  0.5044040000000 1.0
C      1  0.5652440000000  0.5382590000000  0.4201460000000 1.0
C      1  0.4081130000000  0.4633610000000  0.4640810000000 1.0
C      1  0.5257040000000  0.5009250000000  0.5403420000000 1.0
C      1  0.5290450000000  0.5558060000000  0.4841880000000 1.0
C      1  0.4246670000000  0.5677610000000  0.4665960000000 1.0
C      1  0.5877390000000  0.5205170000000  0.5775930000000 1.0
C      1  0.5208310000000  0.4530410000000  0.5043120000000 1.0
C      1  0.5369880000000  0.4976950000000  0.4317920000000 1.0
C      1  0.4344400000000  0.5220470000000  0.5214990000000 1.0
C      1  0.6026410000000  0.5149500000000  0.4976940000000 1.0
C      1  0.4908940000000  0.5937940000000  0.4137770000000 1.0
C      1  0.4300210000000  0.5669810000000  0.5484050000000 1.0
C      1  0.4261310000000  0.4330890000000  0.5604150000000 1.0
C      1  0.4872270000000  0.4438700000000  0.5893700000000 1.0
C      1  0.4013030000000  0.5493900000000  0.4730590000000 1.0
C      1  0.4534710000000  0.5562840000000  0.5674700000000 1.0
C      1  0.5403720000000  0.4508350000000  0.4224000000000 1.0
C      1  0.5139140000000  0.4767320000000  0.3926500000000 1.0
C      1  0.5765610000000  0.5779790000000  0.5209300000000 1.0
C      1  0.4064160000000  0.5217290000000  0.5606170000000 1.0
C      1  0.4753470000000  0.4697950000000  0.5885450000000 1.0
C      1  0.4038520000000  0.5494030000000  0.5478830000000 1.0
C      1  0.5596630000000  0.4683230000000  0.4915800000000 1.0
C      1  0.4898010000000  0.5362350000000  0.4696210000000 1.0
C      1  0.6081400000000  0.5078820000000  0.5258670000000 1.0
C      1  0.4610800000000  0.4884800000000  0.4952940000000 1.0
C      1  0.4183950000000  0.5795630000000  0.5002520000000 1.0
C      1  0.5495220000000  0.4270120000000  0.4358840000000 1.0
C      1  0.4737860000000  0.4777600000000  0.5571390000000 1.0
C      1  0.5783960000000  0.5311810000000  0.4470310000000 1.0
C      1  0.5166580000000  0.4105880000000  0.5863020000000 1.0
C      1  0.5482530000000  0.4304230000000  0.5213500000000 1.0
C      1  0.4705090000000  0.4497860000000  0.4020970000000 1.0
C      1  0.4780660000000  0.4549990000000  0.4834050000000 1.0
C      1  0.4590330000000  0.5901420000000  0.5143460000000 1.0
END
