TITL C-950523-3027-129 -7.09321383646242e-07 125000 -358.374197649652 0 0 59 (C1) n - 1
REM
REM in /home/bkarasulu/work/CARBON/AIRSS/Generating-Clusters/EDIP-Nigel-Params/with-SteepDescent/Only-C1/SD-CG/HFTN-CG
REM
REM
REM
REM
REM
REM ./C.cell (11c1c37f851c82e70ff6c80c92926a4b)
REM
REM compiler GCC version 9.2.1 20190827 (Red Hat 9.2.1-1)
REM options -cpp -mtune=generic -march=x86-64 -g -O0 -fpre-include=/usr/include/finclude/math-vector-fortran.h
REM seed -572405380 -1361001782 376499275 1892047412 1564764414 -458825407 1404947393 1992815557 -1488530755 -409071421 -1521560681 -1038196546 -158955464 -212713507 416867396 -1131124289 -294976074 -735894476 -1949547444 579548940 866169831 -12654653 -1109777403 -332024569 -1857474685 1293288799 1023700560 -595173483 -1944854107 1941737213 -1430118699 -1981645069 969624585
REM
CELL 1.54180   50.00000   50.00000   50.00000   90.00000   90.00000   90.00000
LATT -1
SFAC C  
C      1  0.5244680000000  0.5387460000000  0.4459880000000 1.0
C      1  0.4989910000000  0.5674220000000  0.5016520000000 1.0
C      1  0.4763300000000  0.5205920000000  0.5567940000000 1.0
C      1  0.4781610000000  0.5084750000000  0.4407100000000 1.0
C      1  0.5513690000000  0.4531100000000  0.4942260000000 1.0
C      1  0.5252810000000  0.5163860000000  0.4263860000000 1.0
C      1  0.4861200000000  0.4328380000000  0.5232360000000 1.0
C      1  0.5269640000000  0.5098870000000  0.5901180000000 1.0
C      1  0.5453710000000  0.4988380000000  0.5466890000000 1.0
C      1  0.4582590000000  0.4942910000000  0.4572030000000 1.0
C      1  0.4745310000000  0.4833970000000  0.5089880000000 1.0
C      1  0.5154460000000  0.5221790000000  0.5244000000000 1.0
C      1  0.4966960000000  0.5473320000000  0.4514950000000 1.0
C      1  0.5176930000000  0.4450060000000  0.5645250000000 1.0
C      1  0.4687650000000  0.5131180000000  0.5071880000000 1.0
C      1  0.4414880000000  0.4567670000000  0.4832580000000 1.0
C      1  0.4535110000000  0.5544580000000  0.5111220000000 1.0
C      1  0.5219070000000  0.4842300000000  0.5036450000000 1.0
C      1  0.5205900000000  0.4904160000000  0.5333200000000 1.0
C      1  0.5502290000000  0.5030690000000  0.4236850000000 1.0
C      1  0.5555420000000  0.5384210000000  0.5144290000000 1.0
C      1  0.4610550000000  0.4665480000000  0.4659740000000 1.0
C      1  0.4852680000000  0.5289610000000  0.5292400000000 1.0
C      1  0.4974350000000  0.4710940000000  0.4958380000000 1.0
C      1  0.4869290000000  0.5570880000000  0.4770500000000 1.0
C      1  0.5208210000000  0.5129910000000  0.4953930000000 1.0
C      1  0.4507940000000  0.4652230000000  0.5094190000000 1.0
C      1  0.5169310000000  0.4734300000000  0.4389480000000 1.0
C      1  0.4401710000000  0.5112260000000  0.4737370000000 1.0
C      1  0.5185920000000  0.5345680000000  0.5803730000000 1.0
C      1  0.5500000000000  0.5271970000000  0.5407940000000 1.0
C      1  0.5327750000000  0.4639710000000  0.5759530000000 1.0
C      1  0.5011430000000  0.4343240000000  0.5464990000000 1.0
C      1  0.4763400000000  0.5361610000000  0.4350660000000 1.0
C      1  0.5632490000000  0.4668050000000  0.4511530000000 1.0
C      1  0.4385240000000  0.5318880000000  0.5216630000000 1.0
C      1  0.4777180000000  0.4453490000000  0.4536840000000 1.0
C      1  0.5449490000000  0.4770280000000  0.4329230000000 1.0
C      1  0.5031250000000  0.4971690000000  0.4307920000000 1.0
C      1  0.5451490000000  0.5391180000000  0.4655120000000 1.0
C      1  0.4532360000000  0.5054820000000  0.5593850000000 1.0
C      1  0.5252900000000  0.5754560000000  0.5064260000000 1.0
C      1  0.5046120000000  0.4483920000000  0.4434890000000 1.0
C      1  0.5650820000000  0.4717540000000  0.4784410000000 1.0
C      1  0.5420610000000  0.4904750000000  0.5748820000000 1.0
C      1  0.5643010000000  0.4990110000000  0.4854110000000 1.0
C      1  0.4598910000000  0.5496580000000  0.4833010000000 1.0
C      1  0.4806940000000  0.5591180000000  0.5237720000000 1.0
C      1  0.4309840000000  0.5086130000000  0.5043190000000 1.0
C      1  0.5494540000000  0.5653810000000  0.5119350000000 1.0
C      1  0.4298470000000  0.4829780000000  0.5210740000000 1.0
C      1  0.4350050000000  0.4896630000000  0.5476150000000 1.0
C      1  0.5007140000000  0.4413340000000  0.4980080000000 1.0
C      1  0.5478210000000  0.5226650000000  0.4894360000000 1.0
C      1  0.4901980000000  0.4279060000000  0.4733050000000 1.0
C      1  0.4405180000000  0.5384050000000  0.4660180000000 1.0
C      1  0.5294180000000  0.4380130000000  0.4997420000000 1.0
C      1  0.4927200000000  0.5245620000000  0.5796990000000 1.0
C      1  0.4594770000000  0.4420180000000  0.5246760000000 1.0
END
