TITL C-951337-3020-718 -4.43021064823431e-06 125000 -617.892636530875 0 0 100 (C1) n - 1
REM
REM in /home/bkarasulu/work/CARBON/AIRSS/Generating-Clusters/EDIP-Nigel-Params/with-SteepDescent/Only-C1/SD-CG/HFTN-CG
REM
REM
REM
REM
REM
REM ./C.cell (11c1c37f851c82e70ff6c80c92926a4b)
REM
REM compiler GCC version 9.2.1 20190827 (Red Hat 9.2.1-1)
REM options -cpp -mtune=generic -march=x86-64 -g -O0 -fpre-include=/usr/include/finclude/math-vector-fortran.h
REM seed -1134047717 1351620231 590691016 1765115491 -1724728952 1903218062 1375766892 1764113507 864324511 -920272997 -2117447111 1766040557 1097530265 -1581722832 27977179 1353905456 250410568 1146182736 1573112610 1859776757 20497004 1303893417 21980678 -281484137 392043054 882386294 861163781 340426511 -781615030 1868250022 -1031906712 -328909597 -1486846651
REM
CELL 1.54180   50.00000   50.00000   50.00000   90.00000   90.00000   90.00000
LATT -1
SFAC C  
C      1  0.4848490000000  0.4301940000000  0.4528840000000 1.0
C      1  0.5723320000000  0.4733600000000  0.5589680000000 1.0
C      1  0.5003980000000  0.4660860000000  0.4938810000000 1.0
C      1  0.5414420000000  0.4353240000000  0.5223010000000 1.0
C      1  0.5438430000000  0.5257420000000  0.5607560000000 1.0
C      1  0.5058790000000  0.4871470000000  0.4731090000000 1.0
C      1  0.4688810000000  0.5013680000000  0.5292490000000 1.0
C      1  0.4552880000000  0.5224510000000  0.5730440000000 1.0
C      1  0.5435880000000  0.4745660000000  0.4934090000000 1.0
C      1  0.4682380000000  0.5351230000000  0.4105460000000 1.0
C      1  0.4702660000000  0.4605890000000  0.5002470000000 1.0
C      1  0.4179730000000  0.4956750000000  0.5365690000000 1.0
C      1  0.5062600000000  0.5758820000000  0.4555410000000 1.0
C      1  0.5460620000000  0.5475770000000  0.4517330000000 1.0
C      1  0.4384360000000  0.4908050000000  0.4426850000000 1.0
C      1  0.5371020000000  0.4812040000000  0.4352040000000 1.0
C      1  0.5084760000000  0.4751510000000  0.5201150000000 1.0
C      1  0.4780570000000  0.5710780000000  0.5216120000000 1.0
C      1  0.4048370000000  0.4754520000000  0.5205050000000 1.0
C      1  0.5346580000000  0.5165150000000  0.5098360000000 1.0
C      1  0.4849000000000  0.5595060000000  0.4094260000000 1.0
C      1  0.4883820000000  0.5239340000000  0.5367700000000 1.0
C      1  0.4818980000000  0.4874090000000  0.5758550000000 1.0
C      1  0.4309310000000  0.4880580000000  0.4953050000000 1.0
C      1  0.5845300000000  0.5060050000000  0.4736270000000 1.0
C      1  0.4487350000000  0.5575100000000  0.4520800000000 1.0
C      1  0.4731400000000  0.4245010000000  0.5252920000000 1.0
C      1  0.4508740000000  0.4454950000000  0.4795380000000 1.0
C      1  0.4604470000000  0.4742250000000  0.4387170000000 1.0
C      1  0.4462330000000  0.4459610000000  0.5267920000000 1.0
C      1  0.5342110000000  0.4883490000000  0.5286280000000 1.0
C      1  0.4222980000000  0.5348460000000  0.5002330000000 1.0
C      1  0.5630910000000  0.5542110000000  0.4750720000000 1.0
C      1  0.4454280000000  0.5383970000000  0.5497990000000 1.0
C      1  0.5354220000000  0.4356510000000  0.4604610000000 1.0
C      1  0.5234380000000  0.4182640000000  0.5054210000000 1.0
C      1  0.4937600000000  0.4231590000000  0.5028070000000 1.0
C      1  0.4182760000000  0.4502970000000  0.5127360000000 1.0
C      1  0.4709790000000  0.4788140000000  0.5498870000000 1.0
C      1  0.4491080000000  0.5539320000000  0.4234480000000 1.0
C      1  0.4296490000000  0.5642250000000  0.4761220000000 1.0
C      1  0.5584100000000  0.5606810000000  0.5211900000000 1.0
C      1  0.4177290000000  0.5110230000000  0.4820620000000 1.0
C      1  0.4275350000000  0.5240570000000  0.5294040000000 1.0
C      1  0.5619450000000  0.5316420000000  0.5155000000000 1.0
C      1  0.5583530000000  0.5027930000000  0.4601730000000 1.0
C      1  0.4851950000000  0.4843220000000  0.4280260000000 1.0
C      1  0.5491760000000  0.5716500000000  0.5450780000000 1.0
C      1  0.4520040000000  0.5395550000000  0.4957390000000 1.0
C      1  0.4813440000000  0.5057470000000  0.4783310000000 1.0
C      1  0.5274610000000  0.5661420000000  0.4367210000000 1.0
C      1  0.4275650000000  0.4822070000000  0.5609720000000 1.0
C      1  0.4861340000000  0.5590530000000  0.5671830000000 1.0
C      1  0.4527110000000  0.4160710000000  0.4842500000000 1.0
C      1  0.5432250000000  0.4709750000000  0.5560350000000 1.0
C      1  0.4732200000000  0.5502330000000  0.5431540000000 1.0
C      1  0.5149900000000  0.5967280000000  0.4721930000000 1.0
C      1  0.5719470000000  0.4744070000000  0.5101060000000 1.0
C      1  0.4610650000000  0.4484010000000  0.4519190000000 1.0
C      1  0.4912070000000  0.4607320000000  0.5387940000000 1.0
C      1  0.5122300000000  0.5607070000000  0.5732690000000 1.0
C      1  0.5101560000000  0.4446580000000  0.4490160000000 1.0
C      1  0.5345460000000  0.5016150000000  0.4819140000000 1.0
C      1  0.5344460000000  0.4429090000000  0.5501340000000 1.0
C      1  0.5521270000000  0.5730710000000  0.4957680000000 1.0
C      1  0.5800070000000  0.4324200000000  0.4889590000000 1.0
C      1  0.4324500000000  0.5137570000000  0.4572800000000 1.0
C      1  0.4247120000000  0.4584730000000  0.4847140000000 1.0
C      1  0.5033500000000  0.4672670000000  0.5823510000000 1.0
C      1  0.5663450000000  0.5166950000000  0.5410110000000 1.0
C      1  0.5121570000000  0.5235030000000  0.4209800000000 1.0
C      1  0.5780010000000  0.4897510000000  0.5366120000000 1.0
C      1  0.5518820000000  0.4607020000000  0.4649960000000 1.0
C      1  0.4394750000000  0.5005580000000  0.5786890000000 1.0
C      1  0.4857130000000  0.5128370000000  0.4214800000000 1.0
C      1  0.4553990000000  0.5312170000000  0.4651550000000 1.0
C      1  0.4627820000000  0.4911000000000  0.5008880000000 1.0
C      1  0.4810150000000  0.4130070000000  0.4780700000000 1.0
C      1  0.5127630000000  0.5517940000000  0.4145270000000 1.0
C      1  0.5345040000000  0.4152910000000  0.4798000000000 1.0
C      1  0.4943080000000  0.5311710000000  0.4866400000000 1.0
C      1  0.5243040000000  0.5837120000000  0.4953320000000 1.0
C      1  0.5079840000000  0.5328890000000  0.5130340000000 1.0
C      1  0.4866980000000  0.4235320000000  0.5510870000000 1.0
C      1  0.5914660000000  0.4797010000000  0.4870490000000 1.0
C      1  0.5691260000000  0.4437750000000  0.5127510000000 1.0
C      1  0.5812860000000  0.4547320000000  0.4712860000000 1.0
C      1  0.5363290000000  0.5537090000000  0.5616210000000 1.0
C      1  0.5089370000000  0.4741960000000  0.4444950000000 1.0
C      1  0.5559650000000  0.5238770000000  0.4384650000000 1.0
C      1  0.4472950000000  0.4613950000000  0.5529540000000 1.0
C      1  0.5067370000000  0.5710120000000  0.5150040000000 1.0
C      1  0.5059360000000  0.4447820000000  0.5604370000000 1.0
C      1  0.5795600000000  0.5315550000000  0.4896090000000 1.0
C      1  0.5287420000000  0.4820200000000  0.5796050000000 1.0
C      1  0.4589760000000  0.5682740000000  0.5002340000000 1.0
C      1  0.4926640000000  0.5157840000000  0.5708730000000 1.0
C      1  0.5369970000000  0.5085500000000  0.4221660000000 1.0
C      1  0.5233340000000  0.5104040000000  0.5756820000000 1.0
C      1  0.4954870000000  0.5531400000000  0.4690280000000 1.0
END
