TITL C-950528-5794-718 -3.88093411348312e-06 125000 -840.608020009033 0 0 134 (C1) n - 1
REM
REM in /home/bkarasulu/work/CARBON/AIRSS/Generating-Clusters/EDIP-Nigel-Params/with-SteepDescent/Only-C1/SD-CG/HFTN-CG
REM
REM
REM
REM
REM
REM ./C.cell (11c1c37f851c82e70ff6c80c92926a4b)
REM
REM compiler GCC version 9.2.1 20190827 (Red Hat 9.2.1-1)
REM options -cpp -mtune=generic -march=x86-64 -g -O0 -fpre-include=/usr/include/finclude/math-vector-fortran.h
REM seed -1507772632 1297726350 1883844975 1032824366 -1413021557 -1792430851 386342237 441548426 -500296803 -1780542175 19870071 -1152966627 -1575952099 -116840199 567361489 -1667342426 -1617093901 876751128 -1609426238 878756857 -1438540357 -1216602945 -2002438839 -1120487782 -1874270620 -1535922541 1963716049 1328750240 469869618 11724652 -442626434 1827558775 -765514231
REM
CELL 1.54180   50.00000   50.00000   50.00000   90.00000   90.00000   90.00000
LATT -1
SFAC C  
C      1  0.4337570000000  0.4317890000000  0.5163160000000 1.0
C      1  0.4843040000000  0.5561060000000  0.4599170000000 1.0
C      1  0.4595670000000  0.4182370000000  0.5521890000000 1.0
C      1  0.5418060000000  0.4721220000000  0.4300960000000 1.0
C      1  0.4438780000000  0.4635730000000  0.4594380000000 1.0
C      1  0.4176680000000  0.5108110000000  0.4434180000000 1.0
C      1  0.4755940000000  0.5104840000000  0.4268340000000 1.0
C      1  0.5745780000000  0.5594550000000  0.5357840000000 1.0
C      1  0.4303620000000  0.5045810000000  0.5663040000000 1.0
C      1  0.5061020000000  0.5798970000000  0.5623460000000 1.0
C      1  0.5042340000000  0.5501220000000  0.5678580000000 1.0
C      1  0.4656020000000  0.4683750000000  0.5200700000000 1.0
C      1  0.5730800000000  0.4716860000000  0.4338080000000 1.0
C      1  0.5838420000000  0.4396010000000  0.5255400000000 1.0
C      1  0.5411280000000  0.4811750000000  0.5415950000000 1.0
C      1  0.3997960000000  0.5380470000000  0.4993990000000 1.0
C      1  0.5980990000000  0.4906700000000  0.5367930000000 1.0
C      1  0.5015260000000  0.5859710000000  0.5183310000000 1.0
C      1  0.4017320000000  0.5085060000000  0.5042330000000 1.0
C      1  0.5302130000000  0.5618080000000  0.4408990000000 1.0
C      1  0.4225850000000  0.5492070000000  0.5447520000000 1.0
C      1  0.4747870000000  0.4654280000000  0.4232080000000 1.0
C      1  0.4700160000000  0.4504280000000  0.4681160000000 1.0
C      1  0.5593040000000  0.4759810000000  0.5648490000000 1.0
C      1  0.5195320000000  0.4706100000000  0.4998650000000 1.0
C      1  0.4747580000000  0.5447250000000  0.5718730000000 1.0
C      1  0.5425570000000  0.5252180000000  0.5416330000000 1.0
C      1  0.4951970000000  0.5326610000000  0.4176160000000 1.0
C      1  0.5048590000000  0.5488460000000  0.4401420000000 1.0
C      1  0.4331000000000  0.4981170000000  0.4219950000000 1.0
C      1  0.3986380000000  0.5450440000000  0.4721810000000 1.0
C      1  0.5192550000000  0.4182500000000  0.4876740000000 1.0
C      1  0.4547160000000  0.4100100000000  0.4790510000000 1.0
C      1  0.4945700000000  0.5209980000000  0.5262020000000 1.0
C      1  0.4518120000000  0.5172940000000  0.4105670000000 1.0
C      1  0.4651960000000  0.4467650000000  0.5524470000000 1.0
C      1  0.5634630000000  0.5695240000000  0.4815910000000 1.0
C      1  0.5061500000000  0.4371790000000  0.4456520000000 1.0
C      1  0.4596940000000  0.4227320000000  0.5063890000000 1.0
C      1  0.5839780000000  0.4931370000000  0.5631460000000 1.0
C      1  0.4019160000000  0.5346210000000  0.4467980000000 1.0
C      1  0.5149970000000  0.5348710000000  0.5428750000000 1.0
C      1  0.4885370000000  0.4832470000000  0.5344010000000 1.0
C      1  0.4088920000000  0.4724350000000  0.5352060000000 1.0
C      1  0.5784130000000  0.4454150000000  0.4495500000000 1.0
C      1  0.4991860000000  0.5192880000000  0.5997730000000 1.0
C      1  0.4735010000000  0.5482150000000  0.4032690000000 1.0
C      1  0.5240910000000  0.5660920000000  0.4861680000000 1.0
C      1  0.4734700000000  0.4215230000000  0.4596560000000 1.0
C      1  0.4286860000000  0.4188200000000  0.4723620000000 1.0
C      1  0.4458330000000  0.4707180000000  0.4298460000000 1.0
C      1  0.4130740000000  0.5576160000000  0.5177450000000 1.0
C      1  0.5858310000000  0.4964950000000  0.4461960000000 1.0
C      1  0.4904800000000  0.4616510000000  0.4485290000000 1.0
C      1  0.5166060000000  0.4884570000000  0.4075180000000 1.0
C      1  0.4551780000000  0.5383250000000  0.4987880000000 1.0
C      1  0.6006250000000  0.5394090000000  0.4818970000000 1.0
C      1  0.4555930000000  0.5874870000000  0.4915980000000 1.0
C      1  0.5190240000000  0.5177240000000  0.4036820000000 1.0
C      1  0.5136660000000  0.4326920000000  0.5569440000000 1.0
C      1  0.4756050000000  0.4475990000000  0.4991330000000 1.0
C      1  0.5986610000000  0.5456180000000  0.5257740000000 1.0
C      1  0.4383190000000  0.5234490000000  0.5438750000000 1.0
C      1  0.5721260000000  0.5407700000000  0.4725930000000 1.0
C      1  0.4609460000000  0.5683030000000  0.4470090000000 1.0
C      1  0.4913820000000  0.4683770000000  0.5894800000000 1.0
C      1  0.4088570000000  0.4897930000000  0.4814530000000 1.0
C      1  0.5058230000000  0.4431980000000  0.5017550000000 1.0
C      1  0.4662180000000  0.5094180000000  0.4592720000000 1.0
C      1  0.5021980000000  0.4961710000000  0.5815450000000 1.0
C      1  0.4791220000000  0.4980360000000  0.5601600000000 1.0
C      1  0.4458060000000  0.4593160000000  0.5707920000000 1.0
C      1  0.4400600000000  0.5679320000000  0.5573390000000 1.0
C      1  0.5466990000000  0.4215420000000  0.4782760000000 1.0
C      1  0.4853500000000  0.5862180000000  0.5418810000000 1.0
C      1  0.5313790000000  0.5881310000000  0.5524480000000 1.0
C      1  0.4686020000000  0.5262540000000  0.5499720000000 1.0
C      1  0.5410490000000  0.5766470000000  0.4625210000000 1.0
C      1  0.4852520000000  0.5917410000000  0.4942620000000 1.0
C      1  0.5025500000000  0.4908200000000  0.4869430000000 1.0
C      1  0.4873330000000  0.4876330000000  0.4109620000000 1.0
C      1  0.4707540000000  0.5270570000000  0.5951540000000 1.0
C      1  0.6084780000000  0.5575510000000  0.5020290000000 1.0
C      1  0.5577050000000  0.4833190000000  0.5169890000000 1.0
C      1  0.4608800000000  0.5699990000000  0.5383070000000 1.0
C      1  0.5506780000000  0.4049300000000  0.5211080000000 1.0
C      1  0.5513530000000  0.5228940000000  0.4896160000000 1.0
C      1  0.4207830000000  0.4453860000000  0.4665830000000 1.0
C      1  0.4436720000000  0.4909690000000  0.4736330000000 1.0
C      1  0.5841660000000  0.4926590000000  0.4760570000000 1.0
C      1  0.5855640000000  0.4692100000000  0.5184760000000 1.0
C      1  0.4516820000000  0.4900220000000  0.5031970000000 1.0
C      1  0.5415050000000  0.5189740000000  0.4419210000000 1.0
C      1  0.4520890000000  0.5029430000000  0.5876120000000 1.0
C      1  0.5656170000000  0.4064920000000  0.4949550000000 1.0
C      1  0.5710210000000  0.5243570000000  0.4433540000000 1.0
C      1  0.5417920000000  0.4435960000000  0.5551710000000 1.0
C      1  0.4482670000000  0.5652320000000  0.5108490000000 1.0
C      1  0.5326680000000  0.4437330000000  0.4368450000000 1.0
C      1  0.5047050000000  0.4877360000000  0.4583510000000 1.0
C      1  0.5150390000000  0.4676780000000  0.5308910000000 1.0
C      1  0.5602410000000  0.5143670000000  0.5181770000000 1.0
C      1  0.5314200000000  0.5865400000000  0.5241610000000 1.0
C      1  0.4141660000000  0.4521550000000  0.5144440000000 1.0
C      1  0.3960400000000  0.4975640000000  0.4563900000000 1.0
C      1  0.4742380000000  0.4098020000000  0.5300420000000 1.0
C      1  0.5517540000000  0.4930360000000  0.4797730000000 1.0
C      1  0.5343650000000  0.4918120000000  0.4526060000000 1.0
C      1  0.4760770000000  0.5314210000000  0.4780500000000 1.0
C      1  0.4471380000000  0.5848780000000  0.4646010000000 1.0
C      1  0.5166130000000  0.5410700000000  0.5930120000000 1.0
C      1  0.5581720000000  0.4297170000000  0.5351260000000 1.0
C      1  0.5622230000000  0.5406560000000  0.5565510000000 1.0
C      1  0.5033380000000  0.4153540000000  0.5344630000000 1.0
C      1  0.4593430000000  0.5660700000000  0.4192760000000 1.0
C      1  0.5214830000000  0.4035740000000  0.5138900000000 1.0
C      1  0.6002720000000  0.5129490000000  0.4924510000000 1.0
C      1  0.3943750000000  0.4952550000000  0.5277870000000 1.0
C      1  0.4280040000000  0.4776450000000  0.5565180000000 1.0
C      1  0.5958760000000  0.4692190000000  0.4899790000000 1.0
C      1  0.4442780000000  0.5160660000000  0.5142480000000 1.0
C      1  0.5910160000000  0.5165240000000  0.5205650000000 1.0
C      1  0.5794510000000  0.5210540000000  0.5676660000000 1.0
C      1  0.5560990000000  0.5716210000000  0.5137820000000 1.0
C      1  0.5536090000000  0.4295630000000  0.4510730000000 1.0
C      1  0.5444170000000  0.5254410000000  0.4143120000000 1.0
C      1  0.5243800000000  0.5357880000000  0.4885070000000 1.0
C      1  0.5939060000000  0.4439080000000  0.4767250000000 1.0
C      1  0.4056720000000  0.4599510000000  0.4873330000000 1.0
C      1  0.5897100000000  0.4237380000000  0.4999200000000 1.0
C      1  0.4986160000000  0.5762260000000  0.4750230000000 1.0
C      1  0.4610180000000  0.4737970000000  0.5921720000000 1.0
C      1  0.4922620000000  0.4511710000000  0.5648470000000 1.0
C      1  0.5000400000000  0.5200910000000  0.4950610000000 1.0
END
