TITL C-950534-5965-275 -1.4371570135563e-06 125000 -998.36086392154 0 0 159 (C1) n - 1
REM
REM in /home/bkarasulu/work/CARBON/AIRSS/Generating-Clusters/EDIP-Nigel-Params/with-SteepDescent/Only-C1/SD-CG/HFTN-CG
REM
REM
REM
REM
REM
REM ./C.cell (11c1c37f851c82e70ff6c80c92926a4b)
REM
REM compiler GCC version 9.2.1 20190827 (Red Hat 9.2.1-1)
REM options -cpp -mtune=generic -march=x86-64 -g -O0 -fpre-include=/usr/include/finclude/math-vector-fortran.h
REM seed -1152713254 1969727999 -1328899615 2019013863 1121866059 616071431 1295987190 2032177650 691071998 -1938098441 -503947077 1843759850 -854302325 -2068431889 -69240976 1688216890 -2132363121 425441689 2078886012 835002512 1809636177 -1371875444 1428623148 -1358045754 -1153503442 1247769142 -620671398 -1245026524 -1172489381 335194969 -1073091666 -1332197595 1348942064
REM
CELL 1.54180   50.00000   50.00000   50.00000   90.00000   90.00000   90.00000
LATT -1
SFAC C  
C      1  0.4883060000000  0.4396920000000  0.4222550000000 1.0
C      1  0.4743590000000  0.4519480000000  0.4720260000000 1.0
C      1  0.5456730000000  0.5895050000000  0.4650240000000 1.0
C      1  0.4483950000000  0.4639430000000  0.4718390000000 1.0
C      1  0.4640840000000  0.5407800000000  0.4541230000000 1.0
C      1  0.4479170000000  0.5202110000000  0.5345970000000 1.0
C      1  0.5375770000000  0.5274070000000  0.4514990000000 1.0
C      1  0.5760140000000  0.4428410000000  0.4683440000000 1.0
C      1  0.5197990000000  0.5507890000000  0.4605220000000 1.0
C      1  0.5253410000000  0.4747500000000  0.4116570000000 1.0
C      1  0.5624790000000  0.5398570000000  0.4248510000000 1.0
C      1  0.4692370000000  0.3931980000000  0.5273420000000 1.0
C      1  0.5225500000000  0.5289430000000  0.6015600000000 1.0
C      1  0.5229670000000  0.5717040000000  0.4396070000000 1.0
C      1  0.5438530000000  0.4191010000000  0.4931440000000 1.0
C      1  0.4608480000000  0.5123910000000  0.5800660000000 1.0
C      1  0.5242600000000  0.6026200000000  0.4809990000000 1.0
C      1  0.4594680000000  0.5867180000000  0.5107690000000 1.0
C      1  0.5189940000000  0.5216810000000  0.4019680000000 1.0
C      1  0.4662740000000  0.5019270000000  0.4952970000000 1.0
C      1  0.5696130000000  0.5765020000000  0.4786440000000 1.0
C      1  0.5015880000000  0.4707950000000  0.5988470000000 1.0
C      1  0.5031060000000  0.3923960000000  0.4802430000000 1.0
C      1  0.4031720000000  0.5425620000000  0.5224970000000 1.0
C      1  0.4800610000000  0.4538980000000  0.5350810000000 1.0
C      1  0.5807900000000  0.5333710000000  0.4458360000000 1.0
C      1  0.4119260000000  0.4659010000000  0.4469040000000 1.0
C      1  0.5020900000000  0.6067720000000  0.5225410000000 1.0
C      1  0.4005410000000  0.5506350000000  0.4944640000000 1.0
C      1  0.5567870000000  0.4193580000000  0.5199380000000 1.0
C      1  0.4545780000000  0.4931810000000  0.5210730000000 1.0
C      1  0.4278020000000  0.5550650000000  0.4333690000000 1.0
C      1  0.5694680000000  0.5765390000000  0.5082920000000 1.0
C      1  0.4200540000000  0.5313160000000  0.4828460000000 1.0
C      1  0.5295110000000  0.4665830000000  0.5219710000000 1.0
C      1  0.5500920000000  0.4905970000000  0.4218270000000 1.0
C      1  0.4759100000000  0.4817360000000  0.5400210000000 1.0
C      1  0.5076060000000  0.4940760000000  0.3986240000000 1.0
C      1  0.5376230000000  0.4451690000000  0.5749340000000 1.0
C      1  0.5796450000000  0.4562350000000  0.4431330000000 1.0
C      1  0.5976350000000  0.5149060000000  0.5477460000000 1.0
C      1  0.4704500000000  0.4629010000000  0.3974030000000 1.0
C      1  0.5314860000000  0.5598120000000  0.4875060000000 1.0
C      1  0.4718830000000  0.5837480000000  0.5532650000000 1.0
C      1  0.4501130000000  0.4091870000000  0.5114410000000 1.0
C      1  0.4083280000000  0.5155810000000  0.4604910000000 1.0
C      1  0.5495660000000  0.5190680000000  0.4096630000000 1.0
C      1  0.5119780000000  0.4299840000000  0.5776340000000 1.0
C      1  0.4981220000000  0.3929660000000  0.5181350000000 1.0
C      1  0.5047710000000  0.4916660000000  0.5362320000000 1.0
C      1  0.5485190000000  0.4826290000000  0.5435750000000 1.0
C      1  0.4338030000000  0.5034050000000  0.4179770000000 1.0
C      1  0.4627340000000  0.5622540000000  0.5702070000000 1.0
C      1  0.4930250000000  0.4434170000000  0.5952040000000 1.0
C      1  0.4389370000000  0.4333120000000  0.5255570000000 1.0
C      1  0.5427290000000  0.5139510000000  0.4782000000000 1.0
C      1  0.4315270000000  0.5731810000000  0.4648410000000 1.0
C      1  0.5642130000000  0.4410600000000  0.4255070000000 1.0
C      1  0.5302220000000  0.5485000000000  0.5557400000000 1.0
C      1  0.5335620000000  0.4094520000000  0.4470200000000 1.0
C      1  0.5463620000000  0.4434770000000  0.4771570000000 1.0
C      1  0.5235200000000  0.5345170000000  0.5274980000000 1.0
C      1  0.5426270000000  0.4682600000000  0.4934200000000 1.0
C      1  0.4483160000000  0.4415600000000  0.5735490000000 1.0
C      1  0.5284910000000  0.6049710000000  0.5099620000000 1.0
C      1  0.5019860000000  0.4202220000000  0.5065890000000 1.0
C      1  0.5045760000000  0.5115080000000  0.5145140000000 1.0
C      1  0.4219040000000  0.4748480000000  0.5496770000000 1.0
C      1  0.5315730000000  0.3993920000000  0.4735480000000 1.0
C      1  0.4158920000000  0.5038060000000  0.5502550000000 1.0
C      1  0.4530830000000  0.4017750000000  0.4627810000000 1.0
C      1  0.5803080000000  0.4733760000000  0.5706590000000 1.0
C      1  0.5447930000000  0.5837730000000  0.5520550000000 1.0
C      1  0.5850120000000  0.5014800000000  0.5696310000000 1.0
C      1  0.4831160000000  0.5595870000000  0.5246260000000 1.0
C      1  0.4314010000000  0.5805800000000  0.5154310000000 1.0
C      1  0.5594770000000  0.4892580000000  0.4805320000000 1.0
C      1  0.5031090000000  0.5708000000000  0.4189690000000 1.0
C      1  0.4991290000000  0.4633700000000  0.4859350000000 1.0
C      1  0.4784240000000  0.4901570000000  0.3978810000000 1.0
C      1  0.4327680000000  0.5228110000000  0.5701000000000 1.0
C      1  0.5652700000000  0.4504660000000  0.5604690000000 1.0
C      1  0.5915770000000  0.5057740000000  0.4473670000000 1.0
C      1  0.4767240000000  0.5806570000000  0.4291300000000 1.0
C      1  0.5869980000000  0.4616970000000  0.5126890000000 1.0
C      1  0.4764800000000  0.5308190000000  0.4950990000000 1.0
C      1  0.5614800000000  0.5443890000000  0.5635240000000 1.0
C      1  0.4294940000000  0.4635490000000  0.5223260000000 1.0
C      1  0.5860940000000  0.5545460000000  0.5182210000000 1.0
C      1  0.4491890000000  0.5955800000000  0.4617740000000 1.0
C      1  0.4479620000000  0.4549320000000  0.4125630000000 1.0
C      1  0.4511980000000  0.4284850000000  0.4219780000000 1.0
C      1  0.4144490000000  0.5769690000000  0.4905210000000 1.0
C      1  0.4757710000000  0.5974420000000  0.4538070000000 1.0
C      1  0.4972270000000  0.5080030000000  0.4592620000000 1.0
C      1  0.4751910000000  0.5333670000000  0.5389300000000 1.0
C      1  0.5111410000000  0.5312530000000  0.5735340000000 1.0
C      1  0.5445260000000  0.4018320000000  0.5377890000000 1.0
C      1  0.4984250000000  0.5433040000000  0.4083250000000 1.0
C      1  0.5801460000000  0.4909970000000  0.5045250000000 1.0
C      1  0.4259260000000  0.5576700000000  0.5334670000000 1.0
C      1  0.4726660000000  0.4977000000000  0.4469220000000 1.0
C      1  0.5063290000000  0.5154190000000  0.6192780000000 1.0
C      1  0.5182460000000  0.3927580000000  0.5416300000000 1.0
C      1  0.5674120000000  0.4454990000000  0.5300330000000 1.0
C      1  0.6019290000000  0.5092580000000  0.4940490000000 1.0
C      1  0.5385140000000  0.4304110000000  0.4286700000000 1.0
C      1  0.4413370000000  0.3975140000000  0.4878610000000 1.0
C      1  0.4892940000000  0.4941650000000  0.6141030000000 1.0
C      1  0.5143080000000  0.5040800000000  0.5617370000000 1.0
C      1  0.5019140000000  0.4081220000000  0.5604960000000 1.0
C      1  0.5861960000000  0.5524750000000  0.4682360000000 1.0
C      1  0.4898420000000  0.4333500000000  0.4528560000000 1.0
C      1  0.4207800000000  0.4406450000000  0.4587150000000 1.0
C      1  0.4979660000000  0.5938470000000  0.5482010000000 1.0
C      1  0.4377160000000  0.4205720000000  0.4457000000000 1.0
C      1  0.4583980000000  0.5555700000000  0.4294050000000 1.0
C      1  0.4464040000000  0.5481240000000  0.4769330000000 1.0
C      1  0.4660390000000  0.4367090000000  0.5946850000000 1.0
C      1  0.4791130000000  0.5357750000000  0.5685910000000 1.0
C      1  0.5666170000000  0.5038700000000  0.5291740000000 1.0
C      1  0.5015320000000  0.4490170000000  0.5144110000000 1.0
C      1  0.4700970000000  0.5362290000000  0.4104070000000 1.0
C      1  0.5673560000000  0.5219940000000  0.5813750000000 1.0
C      1  0.5939400000000  0.4489720000000  0.4888640000000 1.0
C      1  0.5191190000000  0.5084990000000  0.4385820000000 1.0
C      1  0.5205240000000  0.5897790000000  0.5640240000000 1.0
C      1  0.4638300000000  0.5075900000000  0.4177020000000 1.0
C      1  0.5107590000000  0.5550430000000  0.5103540000000 1.0
C      1  0.6096910000000  0.5022990000000  0.4683180000000 1.0
C      1  0.5477120000000  0.5153900000000  0.6007470000000 1.0
C      1  0.4602050000000  0.4342970000000  0.5470740000000 1.0
C      1  0.4055580000000  0.5135400000000  0.5244560000000 1.0
C      1  0.4651050000000  0.4856430000000  0.5677120000000 1.0
C      1  0.5297400000000  0.4690370000000  0.5897420000000 1.0
C      1  0.4352820000000  0.5522790000000  0.5617060000000 1.0
C      1  0.4832430000000  0.4046130000000  0.4604510000000 1.0
C      1  0.5543360000000  0.5375570000000  0.4928430000000 1.0
C      1  0.5505560000000  0.5279100000000  0.5195670000000 1.0
C      1  0.4085970000000  0.4698810000000  0.5019030000000 1.0
C      1  0.5699860000000  0.4844510000000  0.4468550000000 1.0
C      1  0.5937310000000  0.5384780000000  0.4938840000000 1.0
C      1  0.5173840000000  0.4469910000000  0.4173320000000 1.0
C      1  0.4811810000000  0.6041400000000  0.5020940000000 1.0
C      1  0.5377060000000  0.4915950000000  0.5725060000000 1.0
C      1  0.5493250000000  0.5901000000000  0.5242810000000 1.0
C      1  0.5845930000000  0.5410090000000  0.5445870000000 1.0
C      1  0.4550160000000  0.4919670000000  0.4702780000000 1.0
C      1  0.5088760000000  0.4953930000000  0.4860620000000 1.0
C      1  0.4033430000000  0.4863200000000  0.4676990000000 1.0
C      1  0.4403250000000  0.4695200000000  0.5723410000000 1.0
C      1  0.4640290000000  0.5058050000000  0.6082420000000 1.0
C      1  0.4947750000000  0.5990790000000  0.4764960000000 1.0
C      1  0.4193670000000  0.5251800000000  0.4342860000000 1.0
C      1  0.4732910000000  0.4075510000000  0.5522550000000 1.0
C      1  0.3954100000000  0.4948150000000  0.5046960000000 1.0
C      1  0.5176520000000  0.4466830000000  0.4643160000000 1.0
C      1  0.4903650000000  0.5358060000000  0.4666910000000 1.0
C      1  0.4303530000000  0.4747520000000  0.4255970000000 1.0
END
