TITL C-950530-3293-296 2.39662934109614e-07 125000 -176.360535254761 0 0 31 (C1) n - 1
REM
REM in /home/bkarasulu/work/CARBON/AIRSS/Generating-Clusters/EDIP-Nigel-Params/with-SteepDescent/Only-C1/SD-CG/HFTN-CG
REM
REM
REM
REM
REM
REM ./C.cell (11c1c37f851c82e70ff6c80c92926a4b)
REM
REM compiler GCC version 9.2.1 20190827 (Red Hat 9.2.1-1)
REM options -cpp -mtune=generic -march=x86-64 -g -O0 -fpre-include=/usr/include/finclude/math-vector-fortran.h
REM seed 713695859 628353900 -817175283 1197885470 -1761627842 1688373039 1818354943 66073014 1112098015 496246192 1455124290 -1084413918 1133771688 819128118 -1792713783 1744943137 719237167 473341212 -1823079469 -678044671 1952430930 1794224394 -835734932 -1507133082 1683179306 -177544973 53687278 688665589 -1460383636 -1249322417 1945554859 -1900428175 315744422
REM
CELL 1.54180   50.00000   50.00000   50.00000   90.00000   90.00000   90.00000
LATT -1
SFAC C  
C      1  0.5168950000000  0.4853080000000  0.5524820000000 1.0
C      1  0.5252870000000  0.5410060000000  0.4653020000000 1.0
C      1  0.5020400000000  0.5345450000000  0.5587940000000 1.0
C      1  0.4796820000000  0.5175860000000  0.5548260000000 1.0
C      1  0.5484200000000  0.4983690000000  0.4608950000000 1.0
C      1  0.4823840000000  0.4586800000000  0.4537340000000 1.0
C      1  0.4622730000000  0.5309890000000  0.4791330000000 1.0
C      1  0.5232780000000  0.5125180000000  0.4601840000000 1.0
C      1  0.4357000000000  0.5405310000000  0.4783550000000 1.0
C      1  0.5193200000000  0.4799550000000  0.4899770000000 1.0
C      1  0.5465910000000  0.4765100000000  0.4794470000000 1.0
C      1  0.4675610000000  0.5194460000000  0.5294290000000 1.0
C      1  0.5348410000000  0.5517640000000  0.4905260000000 1.0
C      1  0.5033660000000  0.5303330000000  0.4947320000000 1.0
C      1  0.4780850000000  0.4969860000000  0.5138490000000 1.0
C      1  0.5078700000000  0.5023710000000  0.5070130000000 1.0
C      1  0.4642780000000  0.4995350000000  0.4832230000000 1.0
C      1  0.4768400000000  0.4735040000000  0.5337890000000 1.0
C      1  0.4871890000000  0.4888260000000  0.5577830000000 1.0
C      1  0.5226490000000  0.5348230000000  0.5394060000000 1.0
C      1  0.5167110000000  0.5504580000000  0.5143590000000 1.0
C      1  0.5053640000000  0.4711610000000  0.4399950000000 1.0
C      1  0.4971260000000  0.4528980000000  0.5289500000000 1.0
C      1  0.4872530000000  0.4458270000000  0.4776950000000 1.0
C      1  0.4970640000000  0.4438440000000  0.5025240000000 1.0
C      1  0.4739880000000  0.4887930000000  0.4544130000000 1.0
C      1  0.5255410000000  0.5059100000000  0.5314210000000 1.0
C      1  0.5533040000000  0.4957420000000  0.4990630000000 1.0
C      1  0.5210270000000  0.4586130000000  0.5431400000000 1.0
C      1  0.4357050000000  0.5126170000000  0.4822810000000 1.0
C      1  0.5023680000000  0.5005530000000  0.4432810000000 1.0
END
