TITL C-950535-5962-399 -2.98798448641216e-07 125000 -218.958037266281 0 0 37 (C1) n - 1
REM
REM in /home/bkarasulu/work/CARBON/AIRSS/Generating-Clusters/EDIP-Nigel-Params/with-SteepDescent/Only-C1/SD-CG/HFTN-CG
REM
REM
REM
REM
REM
REM ./C.cell (11c1c37f851c82e70ff6c80c92926a4b)
REM
REM compiler GCC version 9.2.1 20190827 (Red Hat 9.2.1-1)
REM options -cpp -mtune=generic -march=x86-64 -g -O0 -fpre-include=/usr/include/finclude/math-vector-fortran.h
REM seed -114299495 -721882824 1737902957 130633221 -1617432479 -1969575615 -1803230948 -1639639053 -974388920 27697008 1670562680 -174681103 1575343634 1517425814 -1100512030 1648280445 130120936 -35688227 -1345485862 651855229 1930378702 1843512996 1883002868 262453465 -2010775222 1267191548 1882210558 1499948479 -635840293 -326298246 626424399 -1631624620 1287912502
REM
CELL 1.54180   50.00000   50.00000   50.00000   90.00000   90.00000   90.00000
LATT -1
SFAC C  
C      1  0.4723610000000  0.5063390000000  0.4775670000000 1.0
C      1  0.4403080000000  0.4795260000000  0.5215660000000 1.0
C      1  0.4750260000000  0.4491580000000  0.4686540000000 1.0
C      1  0.4805960000000  0.4870710000000  0.4994520000000 1.0
C      1  0.5354210000000  0.4837930000000  0.4473650000000 1.0
C      1  0.5072260000000  0.4834680000000  0.4503210000000 1.0
C      1  0.5598950000000  0.4542170000000  0.5213020000000 1.0
C      1  0.4932080000000  0.5625350000000  0.5003430000000 1.0
C      1  0.5122170000000  0.4878840000000  0.5001590000000 1.0
C      1  0.4711180000000  0.5573420000000  0.4821870000000 1.0
C      1  0.5459520000000  0.4544660000000  0.4824340000000 1.0
C      1  0.4672890000000  0.4921770000000  0.5274530000000 1.0
C      1  0.5239600000000  0.4958040000000  0.5275100000000 1.0
C      1  0.4879740000000  0.5583660000000  0.5484540000000 1.0
C      1  0.4404590000000  0.5259530000000  0.5104610000000 1.0
C      1  0.4874870000000  0.5336560000000  0.5334520000000 1.0
C      1  0.5513350000000  0.5076940000000  0.5208970000000 1.0
C      1  0.5680670000000  0.4654900000000  0.4964470000000 1.0
C      1  0.5654200000000  0.4956950000000  0.4936660000000 1.0
C      1  0.5071520000000  0.5327570000000  0.4575740000000 1.0
C      1  0.5211720000000  0.4707220000000  0.5441750000000 1.0
C      1  0.4254090000000  0.5013220000000  0.5106060000000 1.0
C      1  0.5441700000000  0.5274940000000  0.5013580000000 1.0
C      1  0.4687490000000  0.4603850000000  0.4931680000000 1.0
C      1  0.5042770000000  0.5115870000000  0.5450680000000 1.0
C      1  0.5268520000000  0.5125710000000  0.4824530000000 1.0
C      1  0.5482120000000  0.5003680000000  0.4662220000000 1.0
C      1  0.4559290000000  0.5306770000000  0.4844670000000 1.0
C      1  0.5223500000000  0.4588530000000  0.4980420000000 1.0
C      1  0.4896330000000  0.5733450000000  0.5256920000000 1.0
C      1  0.4921370000000  0.5564540000000  0.4619350000000 1.0
C      1  0.4437740000000  0.4569100000000  0.5052920000000 1.0
C      1  0.4929470000000  0.4596480000000  0.4517010000000 1.0
C      1  0.4609510000000  0.5209160000000  0.5314210000000 1.0
C      1  0.4920590000000  0.5082130000000  0.4557050000000 1.0
C      1  0.5316560000000  0.4512990000000  0.5253060000000 1.0
C      1  0.4872520000000  0.4858420000000  0.5501240000000 1.0
END
