TITL C-950536-5891-458 -9.34993506896439e-07 125000 -1063.40986956509 0 0 170 (C1) n - 1
REM
REM in /home/bkarasulu/work/CARBON/AIRSS/Generating-Clusters/EDIP-Nigel-Params/with-SteepDescent/Only-C1/SD-CG/HFTN-CG
REM
REM
REM
REM
REM
REM ./C.cell (11c1c37f851c82e70ff6c80c92926a4b)
REM
REM compiler GCC version 9.2.1 20190827 (Red Hat 9.2.1-1)
REM options -cpp -mtune=generic -march=x86-64 -g -O0 -fpre-include=/usr/include/finclude/math-vector-fortran.h
REM seed 4076542 -1328734613 -1176332520 -352737924 -603204628 -2142908113 -2076390310 -863733420 -1291748838 -868348417 -654816157 1717832392 -2043715515 -1622180417 -258935727 834975181 -957053192 1875260715 -1634760096 800832392 526817951 1697746850 2011709154 -1926439703 -211480167 167734176 742577879 1862121866 -1987559010 1768235210 -2043923032 1216353537 1222378222
REM
CELL 1.54180   50.00000   50.00000   50.00000   90.00000   90.00000   90.00000
LATT -1
SFAC C  
C      1  0.5605660000000  0.4159920000000  0.5486330000000 1.0
C      1  0.4883810000000  0.5558620000000  0.4280130000000 1.0
C      1  0.3811050000000  0.5080660000000  0.5364860000000 1.0
C      1  0.4945310000000  0.5295570000000  0.5178090000000 1.0
C      1  0.5611090000000  0.4474940000000  0.4528840000000 1.0
C      1  0.4445470000000  0.5650280000000  0.4199860000000 1.0
C      1  0.5375520000000  0.4274270000000  0.5652370000000 1.0
C      1  0.5161560000000  0.4448670000000  0.4078310000000 1.0
C      1  0.4972910000000  0.6125200000000  0.4716080000000 1.0
C      1  0.4966060000000  0.4882480000000  0.4822430000000 1.0
C      1  0.4130020000000  0.4710970000000  0.5483820000000 1.0
C      1  0.4228560000000  0.5567880000000  0.4369960000000 1.0
C      1  0.4980590000000  0.3828190000000  0.5042640000000 1.0
C      1  0.4868460000000  0.4703410000000  0.6125700000000 1.0
C      1  0.4001210000000  0.4766260000000  0.4959730000000 1.0
C      1  0.4880920000000  0.4870910000000  0.4115650000000 1.0
C      1  0.4844390000000  0.4466230000000  0.5604060000000 1.0
C      1  0.5042450000000  0.5027610000000  0.4346450000000 1.0
C      1  0.4982610000000  0.6097540000000  0.5003510000000 1.0
C      1  0.4049980000000  0.5088510000000  0.4561120000000 1.0
C      1  0.5648200000000  0.4465170000000  0.5058550000000 1.0
C      1  0.4559970000000  0.4512170000000  0.5088540000000 1.0
C      1  0.5139570000000  0.4526630000000  0.4363090000000 1.0
C      1  0.4029890000000  0.5495960000000  0.5136850000000 1.0
C      1  0.4730810000000  0.5166210000000  0.5368630000000 1.0
C      1  0.5580660000000  0.4702530000000  0.5260940000000 1.0
C      1  0.5280840000000  0.5167000000000  0.3997710000000 1.0
C      1  0.5468410000000  0.5953100000000  0.4953110000000 1.0
C      1  0.5097300000000  0.5403510000000  0.4640510000000 1.0
C      1  0.4403560000000  0.5519620000000  0.5788820000000 1.0
C      1  0.5786430000000  0.4880740000000  0.5942090000000 1.0
C      1  0.5218000000000  0.5874910000000  0.4551770000000 1.0
C      1  0.4976550000000  0.5790110000000  0.5037370000000 1.0
C      1  0.5814970000000  0.5418470000000  0.4537180000000 1.0
C      1  0.6000400000000  0.4975050000000  0.5085100000000 1.0
C      1  0.4952910000000  0.4375600000000  0.4860850000000 1.0
C      1  0.4559190000000  0.4028730000000  0.4926180000000 1.0
C      1  0.4240130000000  0.5242320000000  0.4374850000000 1.0
C      1  0.5067590000000  0.3900940000000  0.4774120000000 1.0
C      1  0.4837810000000  0.4559840000000  0.4405720000000 1.0
C      1  0.5462690000000  0.5812110000000  0.5490480000000 1.0
C      1  0.5389740000000  0.5572300000000  0.4204490000000 1.0
C      1  0.4703270000000  0.4193890000000  0.4472820000000 1.0
C      1  0.5456370000000  0.5056140000000  0.4627420000000 1.0
C      1  0.4865420000000  0.5506070000000  0.5860500000000 1.0
C      1  0.5281160000000  0.4855320000000  0.4440290000000 1.0
C      1  0.5700200000000  0.4604310000000  0.4781200000000 1.0
C      1  0.4741420000000  0.5777140000000  0.5456860000000 1.0
C      1  0.3875390000000  0.5053050000000  0.4981590000000 1.0
C      1  0.5690920000000  0.4620990000000  0.4288500000000 1.0
C      1  0.4170750000000  0.5175190000000  0.5644170000000 1.0
C      1  0.4468700000000  0.4225650000000  0.5406150000000 1.0
C      1  0.4528530000000  0.5204710000000  0.3957460000000 1.0
C      1  0.5321400000000  0.4985260000000  0.5847910000000 1.0
C      1  0.5327410000000  0.4569940000000  0.5588410000000 1.0
C      1  0.5256540000000  0.5756180000000  0.4864600000000 1.0
C      1  0.4968730000000  0.4160090000000  0.4644670000000 1.0
C      1  0.4350290000000  0.5058300000000  0.4148030000000 1.0
C      1  0.5846940000000  0.4360860000000  0.5448870000000 1.0
C      1  0.6009200000000  0.5330550000000  0.4738980000000 1.0
C      1  0.5170710000000  0.5343450000000  0.5585300000000 1.0
C      1  0.5663280000000  0.5581600000000  0.5883710000000 1.0
C      1  0.4833070000000  0.4607980000000  0.4721020000000 1.0
C      1  0.4532750000000  0.5856960000000  0.4723240000000 1.0
C      1  0.5924130000000  0.4390040000000  0.5153680000000 1.0
C      1  0.4157940000000  0.5471180000000  0.5629760000000 1.0
C      1  0.5343150000000  0.3926220000000  0.5120240000000 1.0
C      1  0.5225500000000  0.6146390000000  0.5171140000000 1.0
C      1  0.4448570000000  0.4393850000000  0.4573730000000 1.0
C      1  0.5753800000000  0.4638110000000  0.5510760000000 1.0
C      1  0.5023300000000  0.5754170000000  0.5334240000000 1.0
C      1  0.4547330000000  0.4443300000000  0.5586270000000 1.0
C      1  0.4548980000000  0.4586730000000  0.4794230000000 1.0
C      1  0.4786330000000  0.5007280000000  0.5658240000000 1.0
C      1  0.5658900000000  0.5196570000000  0.4400430000000 1.0
C      1  0.4273950000000  0.5679530000000  0.4652960000000 1.0
C      1  0.5660110000000  0.5655400000000  0.4606220000000 1.0
C      1  0.5007620000000  0.5277740000000  0.3890070000000 1.0
C      1  0.4135530000000  0.5494630000000  0.4855470000000 1.0
C      1  0.5097530000000  0.4708260000000  0.3955120000000 1.0
C      1  0.4153600000000  0.4842250000000  0.4713670000000 1.0
C      1  0.3950060000000  0.5267920000000  0.4763950000000 1.0
C      1  0.4218940000000  0.4252960000000  0.4682670000000 1.0
C      1  0.5411180000000  0.5494100000000  0.4933850000000 1.0
C      1  0.4300540000000  0.4152820000000  0.4931730000000 1.0
C      1  0.4486550000000  0.5535760000000  0.5119480000000 1.0
C      1  0.4701110000000  0.3870960000000  0.5119820000000 1.0
C      1  0.4961610000000  0.5835270000000  0.4378360000000 1.0
C      1  0.4974010000000  0.4750130000000  0.5587400000000 1.0
C      1  0.5454510000000  0.4177710000000  0.5227800000000 1.0
C      1  0.4564150000000  0.5955940000000  0.4989250000000 1.0
C      1  0.5824850000000  0.5345860000000  0.5389640000000 1.0
C      1  0.4988490000000  0.4227720000000  0.4043100000000 1.0
C      1  0.4626100000000  0.4793430000000  0.6049240000000 1.0
C      1  0.4542350000000  0.4988900000000  0.5067200000000 1.0
C      1  0.5283400000000  0.5252250000000  0.4809680000000 1.0
C      1  0.4884060000000  0.5203750000000  0.5896380000000 1.0
C      1  0.4737680000000  0.4205980000000  0.4169910000000 1.0
C      1  0.5221570000000  0.4448200000000  0.4950530000000 1.0
C      1  0.4940010000000  0.4331090000000  0.5852460000000 1.0
C      1  0.5138770000000  0.5131340000000  0.6034030000000 1.0
C      1  0.5859940000000  0.4879660000000  0.4350560000000 1.0
C      1  0.5272690000000  0.5074290000000  0.5565960000000 1.0
C      1  0.4025780000000  0.5201880000000  0.5196310000000 1.0
C      1  0.5113900000000  0.4126320000000  0.5722390000000 1.0
C      1  0.4793750000000  0.5511880000000  0.5008000000000 1.0
C      1  0.4641390000000  0.5501420000000  0.4501710000000 1.0
C      1  0.6048190000000  0.5466240000000  0.4997340000000 1.0
C      1  0.4675520000000  0.3988890000000  0.5389890000000 1.0
C      1  0.5106890000000  0.5358780000000  0.4352740000000 1.0
C      1  0.5587300000000  0.5201100000000  0.5282610000000 1.0
C      1  0.5214840000000  0.4276670000000  0.4508370000000 1.0
C      1  0.4541220000000  0.5810680000000  0.5231380000000 1.0
C      1  0.5303020000000  0.4682410000000  0.5870300000000 1.0
C      1  0.5489320000000  0.4843530000000  0.4221830000000 1.0
C      1  0.4595090000000  0.4446360000000  0.4124700000000 1.0
C      1  0.5226910000000  0.5959230000000  0.5399760000000 1.0
C      1  0.5761850000000  0.5642750000000  0.5335020000000 1.0
C      1  0.4662500000000  0.5575690000000  0.5663920000000 1.0
C      1  0.4590050000000  0.4984360000000  0.4549300000000 1.0
C      1  0.5117330000000  0.5076400000000  0.5021470000000 1.0
C      1  0.4463480000000  0.5330320000000  0.5353890000000 1.0
C      1  0.5390080000000  0.4275340000000  0.4761690000000 1.0
C      1  0.6056290000000  0.5049870000000  0.4795740000000 1.0
C      1  0.5248280000000  0.4406700000000  0.5245710000000 1.0
C      1  0.4862970000000  0.5537320000000  0.3973960000000 1.0
C      1  0.4971020000000  0.4750390000000  0.5284730000000 1.0
C      1  0.5583680000000  0.5349210000000  0.6028810000000 1.0
C      1  0.5070580000000  0.4541530000000  0.6019640000000 1.0
C      1  0.4360920000000  0.5144350000000  0.5852620000000 1.0
C      1  0.5341530000000  0.4880700000000  0.3957790000000 1.0
C      1  0.5145690000000  0.5468610000000  0.5333780000000 1.0
C      1  0.4315180000000  0.5104200000000  0.5231930000000 1.0
C      1  0.5684650000000  0.4957890000000  0.5110960000000 1.0
C      1  0.5196700000000  0.5534480000000  0.5820190000000 1.0
C      1  0.6047730000000  0.4841190000000  0.4591690000000 1.0
C      1  0.5260220000000  0.4906350000000  0.5300210000000 1.0
C      1  0.5437480000000  0.5468790000000  0.5222560000000 1.0
C      1  0.5290250000000  0.5385000000000  0.6067470000000 1.0
C      1  0.5681060000000  0.4664690000000  0.5794120000000 1.0
C      1  0.4770900000000  0.5973840000000  0.4562700000000 1.0
C      1  0.5457930000000  0.5749090000000  0.4417530000000 1.0
C      1  0.5884100000000  0.5703830000000  0.5068000000000 1.0
C      1  0.4527290000000  0.4902030000000  0.5802290000000 1.0
C      1  0.5594700000000  0.4885460000000  0.4827980000000 1.0
C      1  0.5442200000000  0.5706910000000  0.5759260000000 1.0
C      1  0.5708960000000  0.5815700000000  0.4853430000000 1.0
C      1  0.3979660000000  0.4963780000000  0.5567780000000 1.0
C      1  0.5595780000000  0.5082000000000  0.5905470000000 1.0
C      1  0.4487960000000  0.5246240000000  0.4524890000000 1.0
C      1  0.4672390000000  0.4758820000000  0.5214790000000 1.0
C      1  0.5998330000000  0.4609290000000  0.4771180000000 1.0
C      1  0.6055180000000  0.5257370000000  0.5218770000000 1.0
C      1  0.4181940000000  0.5603590000000  0.5362320000000 1.0
C      1  0.4828070000000  0.5442240000000  0.4730370000000 1.0
C      1  0.4775640000000  0.4299600000000  0.5092800000000 1.0
C      1  0.4793740000000  0.5076240000000  0.3912600000000 1.0
C      1  0.4533610000000  0.4849650000000  0.4284350000000 1.0
C      1  0.5491810000000  0.5311300000000  0.4158690000000 1.0
C      1  0.4564250000000  0.5503830000000  0.3976530000000 1.0
C      1  0.6094510000000  0.4614770000000  0.5054170000000 1.0
C      1  0.4385670000000  0.4681160000000  0.5637260000000 1.0
C      1  0.5348530000000  0.3973690000000  0.4837280000000 1.0
C      1  0.4871470000000  0.5028310000000  0.4589150000000 1.0
C      1  0.4250420000000  0.4303180000000  0.5190450000000 1.0
C      1  0.4412030000000  0.4562340000000  0.4315690000000 1.0
C      1  0.4953950000000  0.3972460000000  0.5518350000000 1.0
C      1  0.4965050000000  0.4314050000000  0.5347990000000 1.0
C      1  0.4445380000000  0.4861410000000  0.4782100000000 1.0
C      1  0.4141360000000  0.4603810000000  0.5193540000000 1.0
END
