TITL C-951342-2639-79 -8.22765327906107e-07 125000 -660.252071813737 0 0 107 (C1) n - 1
REM
REM in /home/bkarasulu/work/CARBON/AIRSS/Generating-Clusters/EDIP-Nigel-Params/with-SteepDescent/Only-C1/SD-CG/HFTN-CG
REM
REM
REM
REM
REM
REM ./C.cell (11c1c37f851c82e70ff6c80c92926a4b)
REM
REM compiler GCC version 9.2.1 20190827 (Red Hat 9.2.1-1)
REM options -cpp -mtune=generic -march=x86-64 -g -O0 -fpre-include=/usr/include/finclude/math-vector-fortran.h
REM seed -1243818803 2105655903 -1529973357 1119402061 -352669518 213723770 986362069 -771463385 954702412 -4807687 -60499026 974317895 1319261307 1392326018 1143707868 -2016290650 355417872 -264091911 -1051697804 951852441 -1176814797 -381206485 1334031546 -1154811091 1245131532 837949550 456904667 -578148751 -940487608 -876733530 1833132755 -882998529 -2124914863
REM
CELL 1.54180   50.00000   50.00000   50.00000   90.00000   90.00000   90.00000
LATT -1
SFAC C  
C      1  0.4885690000000  0.5306570000000  0.4956410000000 1.0
C      1  0.4565550000000  0.4956250000000  0.5210650000000 1.0
C      1  0.5168770000000  0.4894840000000  0.5847900000000 1.0
C      1  0.4177050000000  0.4823110000000  0.4779360000000 1.0
C      1  0.4978280000000  0.4849530000000  0.4467310000000 1.0
C      1  0.4848460000000  0.4233180000000  0.5390050000000 1.0
C      1  0.5538800000000  0.5068630000000  0.5561520000000 1.0
C      1  0.5294160000000  0.4206780000000  0.5124690000000 1.0
C      1  0.4269120000000  0.5104140000000  0.4810220000000 1.0
C      1  0.4342300000000  0.4895420000000  0.5673530000000 1.0
C      1  0.5366330000000  0.5027480000000  0.4206840000000 1.0
C      1  0.4388000000000  0.4455930000000  0.5478160000000 1.0
C      1  0.5322310000000  0.5423080000000  0.4783710000000 1.0
C      1  0.5766100000000  0.4946900000000  0.5419630000000 1.0
C      1  0.4646190000000  0.4669440000000  0.5191250000000 1.0
C      1  0.5353980000000  0.5513320000000  0.4187450000000 1.0
C      1  0.5775130000000  0.4509710000000  0.5223990000000 1.0
C      1  0.4329430000000  0.5627410000000  0.4927040000000 1.0
C      1  0.4460290000000  0.5296830000000  0.4617000000000 1.0
C      1  0.5541750000000  0.5278070000000  0.4231670000000 1.0
C      1  0.4943810000000  0.5618440000000  0.4427140000000 1.0
C      1  0.5712860000000  0.4671660000000  0.5442290000000 1.0
C      1  0.4406660000000  0.4505450000000  0.5050500000000 1.0
C      1  0.5066380000000  0.4082390000000  0.4973690000000 1.0
C      1  0.5508180000000  0.4618290000000  0.5651930000000 1.0
C      1  0.5112470000000  0.5501860000000  0.4960410000000 1.0
C      1  0.4742060000000  0.4382670000000  0.4362920000000 1.0
C      1  0.5540590000000  0.5636560000000  0.5132910000000 1.0
C      1  0.4971110000000  0.5607910000000  0.5620120000000 1.0
C      1  0.5141760000000  0.5357910000000  0.4543590000000 1.0
C      1  0.4330570000000  0.4648910000000  0.4589740000000 1.0
C      1  0.4712910000000  0.5235690000000  0.4188840000000 1.0
C      1  0.4485670000000  0.4451430000000  0.4756120000000 1.0
C      1  0.5437910000000  0.5162300000000  0.4880170000000 1.0
C      1  0.5246710000000  0.4470010000000  0.5634870000000 1.0
C      1  0.5032510000000  0.4632480000000  0.4666690000000 1.0
C      1  0.4457060000000  0.5241490000000  0.4325860000000 1.0
C      1  0.4656170000000  0.4618480000000  0.4230270000000 1.0
C      1  0.4563290000000  0.5318160000000  0.5684020000000 1.0
C      1  0.4416930000000  0.5408190000000  0.5098240000000 1.0
C      1  0.5119950000000  0.5415640000000  0.4029250000000 1.0
C      1  0.5445470000000  0.4364520000000  0.4910340000000 1.0
C      1  0.4739200000000  0.5709730000000  0.4672900000000 1.0
C      1  0.4657960000000  0.4408470000000  0.5544160000000 1.0
C      1  0.5704220000000  0.4502530000000  0.4952860000000 1.0
C      1  0.5016210000000  0.5161850000000  0.5861150000000 1.0
C      1  0.4595540000000  0.5732960000000  0.5372840000000 1.0
C      1  0.5621450000000  0.5340780000000  0.5650130000000 1.0
C      1  0.5922770000000  0.4960160000000  0.4897310000000 1.0
C      1  0.4762110000000  0.4606290000000  0.5736400000000 1.0
C      1  0.5521420000000  0.5660170000000  0.4827240000000 1.0
C      1  0.5414520000000  0.5462450000000  0.5790260000000 1.0
C      1  0.5375100000000  0.4755790000000  0.5102930000000 1.0
C      1  0.5416470000000  0.4453140000000  0.4417180000000 1.0
C      1  0.5133610000000  0.4614330000000  0.5098410000000 1.0
C      1  0.4813440000000  0.5823110000000  0.4926690000000 1.0
C      1  0.5241900000000  0.5693990000000  0.4391780000000 1.0
C      1  0.4464620000000  0.5591360000000  0.4678780000000 1.0
C      1  0.5719600000000  0.5363810000000  0.5155960000000 1.0
C      1  0.4809130000000  0.4126140000000  0.5117980000000 1.0
C      1  0.4894020000000  0.4376290000000  0.4605050000000 1.0
C      1  0.4734880000000  0.4949240000000  0.4591590000000 1.0
C      1  0.4224280000000  0.4687880000000  0.5501910000000 1.0
C      1  0.4858210000000  0.5487440000000  0.4164580000000 1.0
C      1  0.5758540000000  0.5294840000000  0.4412790000000 1.0
C      1  0.4908170000000  0.4759600000000  0.4183700000000 1.0
C      1  0.4966000000000  0.4651760000000  0.5351760000000 1.0
C      1  0.5089810000000  0.4157220000000  0.4673460000000 1.0
C      1  0.5393550000000  0.4963920000000  0.4670120000000 1.0
C      1  0.4405970000000  0.4182730000000  0.4838180000000 1.0
C      1  0.4566440000000  0.4042150000000  0.5011260000000 1.0
C      1  0.5285680000000  0.5092730000000  0.5393770000000 1.0
C      1  0.4513270000000  0.4817290000000  0.4418720000000 1.0
C      1  0.5518770000000  0.4693160000000  0.4315900000000 1.0
C      1  0.5001630000000  0.5035310000000  0.5051150000000 1.0
C      1  0.4223460000000  0.5512330000000  0.5284420000000 1.0
C      1  0.5838580000000  0.5398170000000  0.4661530000000 1.0
C      1  0.5869800000000  0.5241950000000  0.4916450000000 1.0
C      1  0.4767210000000  0.5126560000000  0.5347170000000 1.0
C      1  0.4741000000000  0.5115140000000  0.5786030000000 1.0
C      1  0.4820450000000  0.5830030000000  0.5215620000000 1.0
C      1  0.5367250000000  0.4281330000000  0.4639930000000 1.0
C      1  0.4304110000000  0.5185400000000  0.5621280000000 1.0
C      1  0.5462070000000  0.4882410000000  0.5787410000000 1.0
C      1  0.5295740000000  0.5030580000000  0.5111810000000 1.0
C      1  0.5206940000000  0.5056000000000  0.4466010000000 1.0
C      1  0.4131000000000  0.5273780000000  0.5409850000000 1.0
C      1  0.4158100000000  0.4669540000000  0.5034480000000 1.0
C      1  0.5625040000000  0.4842840000000  0.4546200000000 1.0
C      1  0.5247300000000  0.5583150000000  0.5205270000000 1.0
C      1  0.5808410000000  0.4729750000000  0.4769610000000 1.0
C      1  0.5767340000000  0.5665120000000  0.4696300000000 1.0
C      1  0.4870960000000  0.5017700000000  0.4042130000000 1.0
C      1  0.4079690000000  0.4788430000000  0.5277880000000 1.0
C      1  0.5069340000000  0.5750500000000  0.5372290000000 1.0
C      1  0.4315960000000  0.5112890000000  0.5110840000000 1.0
C      1  0.5144640000000  0.4300170000000  0.5399820000000 1.0
C      1  0.4609650000000  0.4853140000000  0.5791240000000 1.0
C      1  0.5048760000000  0.4628180000000  0.5782860000000 1.0
C      1  0.4745140000000  0.5229730000000  0.4687680000000 1.0
C      1  0.5139200000000  0.5416790000000  0.5770400000000 1.0
C      1  0.4927170000000  0.4748160000000  0.4933400000000 1.0
C      1  0.4706190000000  0.5407570000000  0.5195500000000 1.0
C      1  0.5024390000000  0.4953170000000  0.5487580000000 1.0
C      1  0.5739490000000  0.5477170000000  0.5426370000000 1.0
C      1  0.4680120000000  0.5577590000000  0.5601190000000 1.0
C      1  0.5148270000000  0.5119050000000  0.3994230000000 1.0
END
