TITL C-951346-9544-276 -2.82877044550565e-06 125000 -594.687236872307 0 0 95 (C1) n - 1
REM
REM in /home/bkarasulu/work/CARBON/AIRSS/Generating-Clusters/EDIP-Nigel-Params/with-SteepDescent/Only-C1/SD-CG/HFTN-CG
REM
REM
REM
REM
REM
REM ./C.cell (11c1c37f851c82e70ff6c80c92926a4b)
REM
REM compiler GCC version 9.2.1 20190827 (Red Hat 9.2.1-1)
REM options -cpp -mtune=generic -march=x86-64 -g -O0 -fpre-include=/usr/include/finclude/math-vector-fortran.h
REM seed 872636673 851927117 1101097410 27435661 -745154735 -1792575431 -2142476385 621394597 -377868542 -1491658427 504171402 875376661 1464609357 1852701873 -1903719718 -652002501 -1136394890 -1976829142 -398094276 -1224934913 499100576 -1758200707 -421918302 357730543 1320868015 -1014992578 -781534313 -321281158 -2006175038 -822705086 -1669276090 -1447348422 -1900990432
REM
CELL 1.54180   50.00000   50.00000   50.00000   90.00000   90.00000   90.00000
LATT -1
SFAC C  
C      1  0.4525400000000  0.4398930000000  0.4525970000000 1.0
C      1  0.4915400000000  0.5566830000000  0.5733370000000 1.0
C      1  0.5208750000000  0.5439510000000  0.5762210000000 1.0
C      1  0.4645530000000  0.5371570000000  0.4452700000000 1.0
C      1  0.4887590000000  0.5240520000000  0.5380900000000 1.0
C      1  0.4960160000000  0.5684780000000  0.4472500000000 1.0
C      1  0.4283120000000  0.4709020000000  0.4950020000000 1.0
C      1  0.4356550000000  0.5641390000000  0.4942140000000 1.0
C      1  0.5416310000000  0.4920940000000  0.5766410000000 1.0
C      1  0.4497310000000  0.4769560000000  0.4228390000000 1.0
C      1  0.4364260000000  0.4632650000000  0.4454750000000 1.0
C      1  0.4772390000000  0.4658230000000  0.4197620000000 1.0
C      1  0.4155280000000  0.5263450000000  0.4827230000000 1.0
C      1  0.5057830000000  0.5091970000000  0.5001270000000 1.0
C      1  0.5846510000000  0.5330590000000  0.5219820000000 1.0
C      1  0.5785540000000  0.4722090000000  0.5443630000000 1.0
C      1  0.5697560000000  0.4698840000000  0.4956950000000 1.0
C      1  0.4801430000000  0.4304320000000  0.5149100000000 1.0
C      1  0.4416900000000  0.5034660000000  0.4179790000000 1.0
C      1  0.4352430000000  0.5042780000000  0.5616940000000 1.0
C      1  0.5063330000000  0.4784120000000  0.5399140000000 1.0
C      1  0.5707060000000  0.5002150000000  0.4415870000000 1.0
C      1  0.4709350000000  0.5393040000000  0.5568800000000 1.0
C      1  0.5048380000000  0.4317730000000  0.5570510000000 1.0
C      1  0.5705130000000  0.5351250000000  0.5462030000000 1.0
C      1  0.5301110000000  0.4739700000000  0.5189160000000 1.0
C      1  0.5077150000000  0.5349020000000  0.4831180000000 1.0
C      1  0.5843990000000  0.4940080000000  0.4909620000000 1.0
C      1  0.4274240000000  0.4803560000000  0.4673470000000 1.0
C      1  0.4778490000000  0.4435070000000  0.4391440000000 1.0
C      1  0.5442690000000  0.4485910000000  0.5288640000000 1.0
C      1  0.5598870000000  0.4569180000000  0.4727240000000 1.0
C      1  0.4567480000000  0.5594460000000  0.5389890000000 1.0
C      1  0.5828590000000  0.5117070000000  0.4665020000000 1.0
C      1  0.5472980000000  0.5038790000000  0.5126290000000 1.0
C      1  0.5054490000000  0.5037260000000  0.4344510000000 1.0
C      1  0.4620450000000  0.5701120000000  0.4830840000000 1.0
C      1  0.4883120000000  0.4569460000000  0.5038500000000 1.0
C      1  0.4745410000000  0.4133530000000  0.4906880000000 1.0
C      1  0.4807380000000  0.4776030000000  0.5239190000000 1.0
C      1  0.5019780000000  0.4190610000000  0.5324720000000 1.0
C      1  0.5032160000000  0.4594730000000  0.5643470000000 1.0
C      1  0.4685140000000  0.5657420000000  0.4539670000000 1.0
C      1  0.5438090000000  0.5255530000000  0.5373960000000 1.0
C      1  0.5150920000000  0.4635780000000  0.4933560000000 1.0
C      1  0.5521750000000  0.4769860000000  0.4507550000000 1.0
C      1  0.5019090000000  0.5048060000000  0.5552690000000 1.0
C      1  0.5282060000000  0.5165040000000  0.5635840000000 1.0
C      1  0.4351600000000  0.5533390000000  0.5211150000000 1.0
C      1  0.4134310000000  0.5164840000000  0.5099260000000 1.0
C      1  0.4258260000000  0.5092050000000  0.4622960000000 1.0
C      1  0.4153130000000  0.5540230000000  0.4776670000000 1.0
C      1  0.5261470000000  0.5285770000000  0.4323350000000 1.0
C      1  0.5858600000000  0.5056860000000  0.5164360000000 1.0
C      1  0.5720170000000  0.5478850000000  0.5002230000000 1.0
C      1  0.4502330000000  0.4275980000000  0.4797630000000 1.0
C      1  0.5657370000000  0.4846250000000  0.5648290000000 1.0
C      1  0.5101120000000  0.5602320000000  0.5005270000000 1.0
C      1  0.4794610000000  0.5749140000000  0.5286580000000 1.0
C      1  0.5409990000000  0.5668180000000  0.4618380000000 1.0
C      1  0.4376160000000  0.5228780000000  0.4381260000000 1.0
C      1  0.4995340000000  0.4112610000000  0.4734000000000 1.0
C      1  0.4375650000000  0.4436650000000  0.5021360000000 1.0
C      1  0.4804340000000  0.4975970000000  0.5769540000000 1.0
C      1  0.5005210000000  0.4276950000000  0.4476520000000 1.0
C      1  0.4803900000000  0.5837410000000  0.5008280000000 1.0
C      1  0.4534020000000  0.4394930000000  0.5283670000000 1.0
C      1  0.5269380000000  0.4157610000000  0.4885360000000 1.0
C      1  0.4739150000000  0.4683810000000  0.5708000000000 1.0
C      1  0.5337630000000  0.5757140000000  0.4877560000000 1.0
C      1  0.4794620000000  0.5247900000000  0.4679480000000 1.0
C      1  0.4584870000000  0.4665560000000  0.5431190000000 1.0
C      1  0.5368910000000  0.4615760000000  0.4304020000000 1.0
C      1  0.4574060000000  0.5168580000000  0.5733300000000 1.0
C      1  0.5430280000000  0.5190120000000  0.4835320000000 1.0
C      1  0.5532540000000  0.5198980000000  0.4304260000000 1.0
C      1  0.4343710000000  0.4842340000000  0.5424820000000 1.0
C      1  0.4973520000000  0.5800450000000  0.5518770000000 1.0
C      1  0.5335140000000  0.4428670000000  0.4761590000000 1.0
C      1  0.5262200000000  0.4410660000000  0.4474570000000 1.0
C      1  0.5740820000000  0.5389130000000  0.4725300000000 1.0
C      1  0.5083380000000  0.4888280000000  0.4783760000000 1.0
C      1  0.5320350000000  0.4978060000000  0.4626290000000 1.0
C      1  0.5710480000000  0.4566460000000  0.5220420000000 1.0
C      1  0.5521480000000  0.5675550000000  0.5097780000000 1.0
C      1  0.4879010000000  0.4985110000000  0.4590010000000 1.0
C      1  0.5314640000000  0.5529920000000  0.5284000000000 1.0
C      1  0.4134260000000  0.5370660000000  0.5294130000000 1.0
C      1  0.5209370000000  0.5548720000000  0.4461200000000 1.0
C      1  0.5251480000000  0.5671550000000  0.5546790000000 1.0
C      1  0.4806690000000  0.5071230000000  0.5153910000000 1.0
C      1  0.4994840000000  0.4830320000000  0.4145180000000 1.0
C      1  0.5241060000000  0.4703950000000  0.5817430000000 1.0
C      1  0.5277160000000  0.4184230000000  0.5183710000000 1.0
C      1  0.4246470000000  0.4903900000000  0.5159720000000 1.0
END
