TITL C-951338-5626-18 -3.4883406959883e-06 125000 -889.403446907234 0 0 141 (C1) n - 1
REM
REM in /home/bkarasulu/work/CARBON/AIRSS/Generating-Clusters/EDIP-Nigel-Params/with-SteepDescent/Only-C1/SD-CG/HFTN-CG
REM
REM
REM
REM
REM
REM ./C.cell (11c1c37f851c82e70ff6c80c92926a4b)
REM
REM compiler GCC version 9.2.1 20190827 (Red Hat 9.2.1-1)
REM options -cpp -mtune=generic -march=x86-64 -g -O0 -fpre-include=/usr/include/finclude/math-vector-fortran.h
REM seed -217508218 1783164246 1932549386 1315473973 1241562602 1513770134 -892240667 1351633840 1738639775 727205384 -1424031231 446792096 404982846 -1262561398 1454036398 1189672452 45709544 -761393498 252991459 1443299580 955444273 -85105655 -1121992443 1586124040 -2004344932 -421286447 396436584 -394968016 1037644489 -389300124 75683224 -1565172756 -23773852
REM
CELL 1.54180   50.00000   50.00000   50.00000   90.00000   90.00000   90.00000
LATT -1
SFAC C  
C      1  0.5139270000000  0.5150030000000  0.5805430000000 1.0
C      1  0.4757680000000  0.4786810000000  0.5391790000000 1.0
C      1  0.4634980000000  0.4138780000000  0.4496610000000 1.0
C      1  0.4692400000000  0.4981110000000  0.4582990000000 1.0
C      1  0.4728460000000  0.4881630000000  0.4846310000000 1.0
C      1  0.5406610000000  0.4813850000000  0.4268890000000 1.0
C      1  0.4767760000000  0.4993180000000  0.4005120000000 1.0
C      1  0.6025610000000  0.5222890000000  0.4844610000000 1.0
C      1  0.4206050000000  0.5683230000000  0.5456240000000 1.0
C      1  0.4823240000000  0.5593230000000  0.4255230000000 1.0
C      1  0.4962460000000  0.5191540000000  0.5345550000000 1.0
C      1  0.4540420000000  0.5165650000000  0.4101960000000 1.0
C      1  0.4595230000000  0.4544520000000  0.5786790000000 1.0
C      1  0.5096720000000  0.4749260000000  0.4342960000000 1.0
C      1  0.5334340000000  0.5678880000000  0.5916520000000 1.0
C      1  0.5829130000000  0.4527570000000  0.4609520000000 1.0
C      1  0.4859470000000  0.5811360000000  0.4867160000000 1.0
C      1  0.4244440000000  0.5220280000000  0.4508920000000 1.0
C      1  0.4428800000000  0.4378560000000  0.5640230000000 1.0
C      1  0.4811400000000  0.4405290000000  0.4876550000000 1.0
C      1  0.4135410000000  0.4808060000000  0.4818830000000 1.0
C      1  0.4616230000000  0.5421410000000  0.5945670000000 1.0
C      1  0.4548930000000  0.5253800000000  0.4588170000000 1.0
C      1  0.4175520000000  0.4923570000000  0.5311290000000 1.0
C      1  0.4103580000000  0.5084420000000  0.4740160000000 1.0
C      1  0.5181110000000  0.4295220000000  0.4661420000000 1.0
C      1  0.5731560000000  0.4699200000000  0.5049960000000 1.0
C      1  0.5655580000000  0.5741190000000  0.5223280000000 1.0
C      1  0.5362340000000  0.5740300000000  0.5644070000000 1.0
C      1  0.4404240000000  0.4305030000000  0.5376680000000 1.0
C      1  0.5614900000000  0.4317790000000  0.4635730000000 1.0
C      1  0.5279520000000  0.4763130000000  0.4772520000000 1.0
C      1  0.5160520000000  0.5197510000000  0.4545620000000 1.0
C      1  0.4161110000000  0.4718210000000  0.5104280000000 1.0
C      1  0.5421330000000  0.5774340000000  0.4368710000000 1.0
C      1  0.4529300000000  0.5273650000000  0.5488260000000 1.0
C      1  0.5110660000000  0.5597750000000  0.4231380000000 1.0
C      1  0.4725410000000  0.5450460000000  0.5663040000000 1.0
C      1  0.5833490000000  0.4660840000000  0.4343280000000 1.0
C      1  0.5115550000000  0.5391620000000  0.4800110000000 1.0
C      1  0.4037480000000  0.5273200000000  0.4948930000000 1.0
C      1  0.5106470000000  0.5269910000000  0.5099360000000 1.0
C      1  0.4917070000000  0.4920120000000  0.5848790000000 1.0
C      1  0.4627770000000  0.4615000000000  0.4859860000000 1.0
C      1  0.5983740000000  0.5394250000000  0.5310530000000 1.0
C      1  0.5885710000000  0.5492910000000  0.4828630000000 1.0
C      1  0.4393820000000  0.5524680000000  0.5041870000000 1.0
C      1  0.5276110000000  0.5360800000000  0.4306360000000 1.0
C      1  0.5285760000000  0.4529360000000  0.5791890000000 1.0
C      1  0.4384060000000  0.5748810000000  0.5686790000000 1.0
C      1  0.5172240000000  0.5599670000000  0.5212040000000 1.0
C      1  0.5016290000000  0.5340480000000  0.5595560000000 1.0
C      1  0.4707890000000  0.5317860000000  0.4303970000000 1.0
C      1  0.4763460000000  0.4705610000000  0.4056480000000 1.0
C      1  0.5210750000000  0.4170540000000  0.5517810000000 1.0
C      1  0.5027060000000  0.5104040000000  0.3989030000000 1.0
C      1  0.5423850000000  0.5047200000000  0.5659670000000 1.0
C      1  0.5591590000000  0.5050850000000  0.4243230000000 1.0
C      1  0.4857430000000  0.4442320000000  0.5857370000000 1.0
C      1  0.4307420000000  0.5419700000000  0.5320580000000 1.0
C      1  0.4708610000000  0.5075190000000  0.5306750000000 1.0
C      1  0.5018290000000  0.5925490000000  0.4636600000000 1.0
C      1  0.4481660000000  0.5776610000000  0.4594120000000 1.0
C      1  0.4614410000000  0.5358970000000  0.4879430000000 1.0
C      1  0.4461790000000  0.5808160000000  0.5113950000000 1.0
C      1  0.5786940000000  0.4970220000000  0.5195530000000 1.0
C      1  0.4943180000000  0.5027870000000  0.4407310000000 1.0
C      1  0.5783470000000  0.4855520000000  0.5460620000000 1.0
C      1  0.5110700000000  0.4594610000000  0.4611520000000 1.0
C      1  0.4747080000000  0.4353000000000  0.4330440000000 1.0
C      1  0.4296240000000  0.4881380000000  0.5576100000000 1.0
C      1  0.5674830000000  0.5067130000000  0.5834250000000 1.0
C      1  0.5576670000000  0.4568180000000  0.4219630000000 1.0
C      1  0.5289160000000  0.4786380000000  0.5251740000000 1.0
C      1  0.4571940000000  0.4575770000000  0.4230970000000 1.0
C      1  0.4713020000000  0.4131810000000  0.4797610000000 1.0
C      1  0.4214900000000  0.4640880000000  0.4594760000000 1.0
C      1  0.5359840000000  0.5599150000000  0.4800010000000 1.0
C      1  0.4986460000000  0.4304080000000  0.4168190000000 1.0
C      1  0.4344640000000  0.4400210000000  0.4696500000000 1.0
C      1  0.4441110000000  0.5191720000000  0.5957060000000 1.0
C      1  0.5492710000000  0.4789010000000  0.5493900000000 1.0
C      1  0.5122520000000  0.4137940000000  0.5059010000000 1.0
C      1  0.4237600000000  0.4438190000000  0.5173070000000 1.0
C      1  0.5872660000000  0.4736690000000  0.4804410000000 1.0
C      1  0.6030960000000  0.5146910000000  0.5140900000000 1.0
C      1  0.4647900000000  0.5094940000000  0.5019410000000 1.0
C      1  0.4727300000000  0.5803460000000  0.4427010000000 1.0
C      1  0.5307570000000  0.5057830000000  0.5102240000000 1.0
C      1  0.4662570000000  0.4814590000000  0.5674350000000 1.0
C      1  0.5390820000000  0.5407420000000  0.5935340000000 1.0
C      1  0.4110660000000  0.5205180000000  0.5234040000000 1.0
C      1  0.5374680000000  0.4996240000000  0.4618420000000 1.0
C      1  0.5544730000000  0.5498660000000  0.4390300000000 1.0
C      1  0.5470420000000  0.4222510000000  0.4906670000000 1.0
C      1  0.4696250000000  0.5782400000000  0.5296200000000 1.0
C      1  0.5282640000000  0.5185140000000  0.4068120000000 1.0
C      1  0.5895180000000  0.5599460000000  0.5113750000000 1.0
C      1  0.5559010000000  0.5175760000000  0.5162500000000 1.0
C      1  0.5487960000000  0.5291060000000  0.5453320000000 1.0
C      1  0.5071120000000  0.4002190000000  0.5320410000000 1.0
C      1  0.5735960000000  0.5437410000000  0.5562630000000 1.0
C      1  0.4365810000000  0.5572030000000  0.5922390000000 1.0
C      1  0.4959850000000  0.3972470000000  0.4852830000000 1.0
C      1  0.4257530000000  0.4262290000000  0.4942620000000 1.0
C      1  0.4224150000000  0.5899550000000  0.5265530000000 1.0
C      1  0.5418280000000  0.4642260000000  0.5015000000000 1.0
C      1  0.4361040000000  0.4196680000000  0.4487890000000 1.0
C      1  0.5495870000000  0.4315780000000  0.4357520000000 1.0
C      1  0.5671520000000  0.5354310000000  0.5863570000000 1.0
C      1  0.4474550000000  0.4058330000000  0.4987790000000 1.0
C      1  0.4536940000000  0.4065810000000  0.5277220000000 1.0
C      1  0.4377850000000  0.4755030000000  0.4371160000000 1.0
C      1  0.4567110000000  0.5909840000000  0.4849530000000 1.0
C      1  0.5478830000000  0.4294710000000  0.5429510000000 1.0
C      1  0.5608290000000  0.4341680000000  0.5153890000000 1.0
C      1  0.4991900000000  0.4676200000000  0.5985400000000 1.0
C      1  0.5896100000000  0.4977940000000  0.5685860000000 1.0
C      1  0.4151460000000  0.5538010000000  0.4868930000000 1.0
C      1  0.5841200000000  0.4965910000000  0.4378590000000 1.0
C      1  0.5604150000000  0.5444270000000  0.4689760000000 1.0
C      1  0.5585000000000  0.5144600000000  0.4772300000000 1.0
C      1  0.5506360000000  0.4521930000000  0.5619250000000 1.0
C      1  0.5224440000000  0.4173950000000  0.4299570000000 1.0
C      1  0.5294580000000  0.5831400000000  0.4622110000000 1.0
C      1  0.5065450000000  0.4427240000000  0.5614320000000 1.0
C      1  0.4982530000000  0.4405730000000  0.5107030000000 1.0
C      1  0.5405560000000  0.5693410000000  0.5074440000000 1.0
C      1  0.4669060000000  0.5732730000000  0.5582320000000 1.0
C      1  0.5641880000000  0.5725110000000  0.5528390000000 1.0
C      1  0.5852460000000  0.5014740000000  0.4690330000000 1.0
C      1  0.4312830000000  0.5028490000000  0.4264270000000 1.0
C      1  0.4248080000000  0.5581310000000  0.4594750000000 1.0
C      1  0.5108740000000  0.3982040000000  0.4604460000000 1.0
C      1  0.5253120000000  0.5510770000000  0.5485500000000 1.0
C      1  0.4952190000000  0.5804380000000  0.5162210000000 1.0
C      1  0.5012930000000  0.4615240000000  0.5338710000000 1.0
C      1  0.4855030000000  0.5521030000000  0.4807600000000 1.0
C      1  0.5013460000000  0.4558840000000  0.4038020000000 1.0
C      1  0.4791750000000  0.3975770000000  0.5362660000000 1.0
C      1  0.4369260000000  0.5130360000000  0.5687090000000 1.0
END
