TITL C-951341-1326-290 -4.41625005910403e-06 125000 -1035.26742119422 0 0 166 (C1) n - 1
REM
REM in /home/bkarasulu/work/CARBON/AIRSS/Generating-Clusters/EDIP-Nigel-Params/with-SteepDescent/Only-C1/SD-CG/HFTN-CG
REM
REM
REM
REM
REM
REM ./C.cell (11c1c37f851c82e70ff6c80c92926a4b)
REM
REM compiler GCC version 9.2.1 20190827 (Red Hat 9.2.1-1)
REM options -cpp -mtune=generic -march=x86-64 -g -O0 -fpre-include=/usr/include/finclude/math-vector-fortran.h
REM seed 1773383280 157127051 1194032498 1715117811 -137859486 -1276069686 -506335276 -281743190 -244966725 210657717 -231610810 -739669836 -113897684 -1034618880 -1886382894 -716782779 -1756336388 -1121055350 927748478 513835254 -691738210 -1641970053 107444645 156835060 675801293 -1901777910 -1648932607 -1248343684 -368627847 241213331 996634320 1346031323 1312773437
REM
CELL 1.54180   50.00000   50.00000   50.00000   90.00000   90.00000   90.00000
LATT -1
SFAC C  
C      1  0.5956870000000  0.5600400000000  0.4984070000000 1.0
C      1  0.4286360000000  0.5217750000000  0.5216850000000 1.0
C      1  0.4628760000000  0.5965280000000  0.5347390000000 1.0
C      1  0.4646720000000  0.4541660000000  0.4348800000000 1.0
C      1  0.5151510000000  0.4394430000000  0.4385120000000 1.0
C      1  0.4756540000000  0.4831560000000  0.5372650000000 1.0
C      1  0.5468250000000  0.4399900000000  0.4407590000000 1.0
C      1  0.4778280000000  0.5063970000000  0.6069450000000 1.0
C      1  0.5028860000000  0.3950430000000  0.4572980000000 1.0
C      1  0.5031510000000  0.4694840000000  0.5361270000000 1.0
C      1  0.5515210000000  0.4683810000000  0.5192350000000 1.0
C      1  0.4810370000000  0.4811830000000  0.4517880000000 1.0
C      1  0.4756860000000  0.5317350000000  0.5925180000000 1.0
C      1  0.4647910000000  0.5818930000000  0.5618280000000 1.0
C      1  0.4841300000000  0.5777740000000  0.4440980000000 1.0
C      1  0.4718900000000  0.5342100000000  0.4529430000000 1.0
C      1  0.5137340000000  0.5796970000000  0.4479500000000 1.0
C      1  0.5100480000000  0.4453390000000  0.4689750000000 1.0
C      1  0.4905990000000  0.6012070000000  0.5236130000000 1.0
C      1  0.6022620000000  0.5396740000000  0.5178610000000 1.0
C      1  0.4710370000000  0.5531080000000  0.5301690000000 1.0
C      1  0.4261820000000  0.4480120000000  0.5104740000000 1.0
C      1  0.5602300000000  0.4248770000000  0.5158880000000 1.0
C      1  0.4990920000000  0.4137910000000  0.4340260000000 1.0
C      1  0.4182910000000  0.5591410000000  0.5544040000000 1.0
C      1  0.4784150000000  0.5104020000000  0.4923620000000 1.0
C      1  0.4138070000000  0.4756790000000  0.5481830000000 1.0
C      1  0.4938390000000  0.3851770000000  0.5240200000000 1.0
C      1  0.5402300000000  0.5071570000000  0.5431360000000 1.0
C      1  0.4542340000000  0.5255200000000  0.5390920000000 1.0
C      1  0.4667170000000  0.4987980000000  0.5648040000000 1.0
C      1  0.5325360000000  0.4782130000000  0.5414140000000 1.0
C      1  0.5600330000000  0.4457340000000  0.5630310000000 1.0
C      1  0.4240920000000  0.4965260000000  0.4567930000000 1.0
C      1  0.5066640000000  0.4585310000000  0.4154090000000 1.0
C      1  0.5537120000000  0.4569570000000  0.4140990000000 1.0
C      1  0.5356260000000  0.5171410000000  0.4915920000000 1.0
C      1  0.5717890000000  0.4947110000000  0.4589050000000 1.0
C      1  0.5711920000000  0.5500460000000  0.4287790000000 1.0
C      1  0.4430770000000  0.4509810000000  0.5784410000000 1.0
C      1  0.5247680000000  0.4047630000000  0.4751320000000 1.0
C      1  0.5448120000000  0.5108450000000  0.5917710000000 1.0
C      1  0.4982230000000  0.5507640000000  0.5891270000000 1.0
C      1  0.5532560000000  0.5724590000000  0.5247960000000 1.0
C      1  0.5645810000000  0.5265120000000  0.4149720000000 1.0
C      1  0.4897650000000  0.6019120000000  0.4929160000000 1.0
C      1  0.4747900000000  0.3953590000000  0.5045530000000 1.0
C      1  0.4359150000000  0.4238590000000  0.4723710000000 1.0
C      1  0.5527660000000  0.5605630000000  0.4734060000000 1.0
C      1  0.5127230000000  0.4178480000000  0.5016170000000 1.0
C      1  0.4962530000000  0.5352560000000  0.4699160000000 1.0
C      1  0.5682680000000  0.5624110000000  0.5480190000000 1.0
C      1  0.3978090000000  0.4862560000000  0.4974030000000 1.0
C      1  0.4990210000000  0.4967010000000  0.5699960000000 1.0
C      1  0.4660850000000  0.5596940000000  0.4996580000000 1.0
C      1  0.4640950000000  0.4384500000000  0.5939910000000 1.0
C      1  0.4703780000000  0.4232490000000  0.4357860000000 1.0
C      1  0.4779380000000  0.5100630000000  0.5232000000000 1.0
C      1  0.5895900000000  0.4435320000000  0.4517750000000 1.0
C      1  0.5179430000000  0.3857780000000  0.5075720000000 1.0
C      1  0.4487790000000  0.4692220000000  0.5111450000000 1.0
C      1  0.5131320000000  0.4419840000000  0.5857710000000 1.0
C      1  0.4367790000000  0.4930980000000  0.4090200000000 1.0
C      1  0.4873330000000  0.4294980000000  0.5778160000000 1.0
C      1  0.4668580000000  0.4611880000000  0.6099450000000 1.0
C      1  0.5279030000000  0.6017680000000  0.4938180000000 1.0
C      1  0.4575750000000  0.4863160000000  0.6001610000000 1.0
C      1  0.5662910000000  0.4274660000000  0.4875310000000 1.0
C      1  0.3936000000000  0.5190040000000  0.5374300000000 1.0
C      1  0.4347920000000  0.4586350000000  0.4369310000000 1.0
C      1  0.5821220000000  0.5381430000000  0.5392120000000 1.0
C      1  0.5593310000000  0.5011390000000  0.4310030000000 1.0
C      1  0.4932710000000  0.5765000000000  0.5737710000000 1.0
C      1  0.4439610000000  0.5595670000000  0.4241210000000 1.0
C      1  0.4031100000000  0.5358500000000  0.4784660000000 1.0
C      1  0.5234020000000  0.6077010000000  0.5433850000000 1.0
C      1  0.5159160000000  0.5812510000000  0.5543100000000 1.0
C      1  0.5263730000000  0.5033500000000  0.4347170000000 1.0
C      1  0.5973460000000  0.4665650000000  0.4360150000000 1.0
C      1  0.5136770000000  0.4817480000000  0.4519680000000 1.0
C      1  0.5321860000000  0.4249670000000  0.5222640000000 1.0
C      1  0.4610920000000  0.6011260000000  0.4838270000000 1.0
C      1  0.4067020000000  0.4583520000000  0.4898650000000 1.0
C      1  0.4215880000000  0.4489020000000  0.5393830000000 1.0
C      1  0.5244240000000  0.4142580000000  0.5479290000000 1.0
C      1  0.5408680000000  0.5336270000000  0.4682950000000 1.0
C      1  0.5382230000000  0.4618960000000  0.4884680000000 1.0
C      1  0.5001670000000  0.5283730000000  0.5323640000000 1.0
C      1  0.6137240000000  0.4839760000000  0.4821090000000 1.0
C      1  0.4677860000000  0.5075030000000  0.4422020000000 1.0
C      1  0.5928150000000  0.4880080000000  0.5350180000000 1.0
C      1  0.4386050000000  0.5089840000000  0.4345000000000 1.0
C      1  0.5396850000000  0.5985860000000  0.5206510000000 1.0
C      1  0.5214320000000  0.4866440000000  0.4820580000000 1.0
C      1  0.5913430000000  0.4395440000000  0.4801550000000 1.0
C      1  0.4210620000000  0.4479320000000  0.4626990000000 1.0
C      1  0.5176580000000  0.4712020000000  0.5931410000000 1.0
C      1  0.4451300000000  0.5600700000000  0.5651950000000 1.0
C      1  0.6106830000000  0.5097470000000  0.4954660000000 1.0
C      1  0.5171610000000  0.5329830000000  0.5090350000000 1.0
C      1  0.5244960000000  0.5367110000000  0.5794660000000 1.0
C      1  0.4090260000000  0.5757980000000  0.5340570000000 1.0
C      1  0.5756800000000  0.5623910000000  0.4535850000000 1.0
C      1  0.4132140000000  0.5495280000000  0.4546200000000 1.0
C      1  0.4599130000000  0.5895290000000  0.4568380000000 1.0
C      1  0.4454210000000  0.4385570000000  0.5528970000000 1.0
C      1  0.4782900000000  0.4658900000000  0.4106960000000 1.0
C      1  0.4929540000000  0.4451960000000  0.5215170000000 1.0
C      1  0.4497890000000  0.5100580000000  0.4823700000000 1.0
C      1  0.4651750000000  0.4905170000000  0.3983500000000 1.0
C      1  0.5859520000000  0.5203200000000  0.4813480000000 1.0
C      1  0.4279360000000  0.5170400000000  0.5737910000000 1.0
C      1  0.4226370000000  0.4691550000000  0.4137470000000 1.0
C      1  0.4943970000000  0.5643010000000  0.4844060000000 1.0
C      1  0.5701450000000  0.5135070000000  0.5524080000000 1.0
C      1  0.5987350000000  0.4625330000000  0.4964240000000 1.0
C      1  0.4954270000000  0.4041240000000  0.5492980000000 1.0
C      1  0.5320420000000  0.5831630000000  0.4715620000000 1.0
C      1  0.4749880000000  0.4285120000000  0.5413080000000 1.0
C      1  0.5591210000000  0.4640390000000  0.4642860000000 1.0
C      1  0.5637170000000  0.5193690000000  0.5040790000000 1.0
C      1  0.5270880000000  0.4992880000000  0.3959450000000 1.0
C      1  0.5179930000000  0.5458140000000  0.4080300000000 1.0
C      1  0.5958910000000  0.5489480000000  0.4704590000000 1.0
C      1  0.5038690000000  0.4938160000000  0.6082530000000 1.0
C      1  0.4032100000000  0.5062040000000  0.4743310000000 1.0
C      1  0.5704400000000  0.4467800000000  0.5335960000000 1.0
C      1  0.4225370000000  0.5443030000000  0.5001260000000 1.0
C      1  0.5345100000000  0.4316230000000  0.5687660000000 1.0
C      1  0.4214320000000  0.5733820000000  0.5094200000000 1.0
C      1  0.5159400000000  0.5182890000000  0.5563190000000 1.0
C      1  0.5419270000000  0.4826740000000  0.5793360000000 1.0
C      1  0.5705630000000  0.4914390000000  0.5150040000000 1.0
C      1  0.5981750000000  0.4594490000000  0.5267580000000 1.0
C      1  0.5295820000000  0.4713300000000  0.4041080000000 1.0
C      1  0.4729910000000  0.5536400000000  0.4295290000000 1.0
C      1  0.4496270000000  0.5851700000000  0.5077510000000 1.0
C      1  0.4890730000000  0.5399310000000  0.4070770000000 1.0
C      1  0.5148740000000  0.5613420000000  0.5059210000000 1.0
C      1  0.4765050000000  0.4591190000000  0.4994840000000 1.0
C      1  0.4469660000000  0.5414170000000  0.4823580000000 1.0
C      1  0.4267490000000  0.5372820000000  0.4318580000000 1.0
C      1  0.5573400000000  0.5537910000000  0.5737140000000 1.0
C      1  0.5000420000000  0.5724770000000  0.5298660000000 1.0
C      1  0.6025600000000  0.4896280000000  0.4543420000000 1.0
C      1  0.4342570000000  0.4966880000000  0.5042450000000 1.0
C      1  0.4508030000000  0.4046910000000  0.5146230000000 1.0
C      1  0.5275390000000  0.5631490000000  0.4288510000000 1.0
C      1  0.4272970000000  0.4862930000000  0.5733600000000 1.0
C      1  0.5654220000000  0.5573950000000  0.5015860000000 1.0
C      1  0.4797340000000  0.5153350000000  0.3962160000000 1.0
C      1  0.3979070000000  0.4918360000000  0.5289860000000 1.0
C      1  0.5745460000000  0.4767220000000  0.4178850000000 1.0
C      1  0.4495850000000  0.5364150000000  0.5809770000000 1.0
C      1  0.5501620000000  0.4177340000000  0.4649040000000 1.0
C      1  0.5385740000000  0.5260690000000  0.3989580000000 1.0
C      1  0.4356030000000  0.5790610000000  0.4446330000000 1.0
C      1  0.4077030000000  0.5320960000000  0.5588860000000 1.0
C      1  0.4910670000000  0.4842740000000  0.4892870000000 1.0
C      1  0.5655200000000  0.4662250000000  0.5814140000000 1.0
C      1  0.4806710000000  0.4436830000000  0.4748570000000 1.0
C      1  0.5202020000000  0.5313080000000  0.4491950000000 1.0
C      1  0.4329780000000  0.4210300000000  0.5010510000000 1.0
C      1  0.5667410000000  0.5261390000000  0.5797690000000 1.0
C      1  0.4774410000000  0.3953930000000  0.4745740000000 1.0
C      1  0.4645920000000  0.4205310000000  0.4647510000000 1.0
END
