TITL C-951344-124-106 -4.62439681247072e-07 125000 -1107.18629810138 0 0 175 (C1) n - 1
REM
REM in /home/bkarasulu/work/CARBON/AIRSS/Generating-Clusters/EDIP-Nigel-Params/with-SteepDescent/Only-C1/SD-CG/HFTN-CG
REM
REM
REM
REM
REM
REM ./C.cell (11c1c37f851c82e70ff6c80c92926a4b)
REM
REM compiler GCC version 9.2.1 20190827 (Red Hat 9.2.1-1)
REM options -cpp -mtune=generic -march=x86-64 -g -O0 -fpre-include=/usr/include/finclude/math-vector-fortran.h
REM seed 1792672227 -189230245 -96183991 665669362 647069127 -1759761524 -2133714489 215119550 2098071764 2107126860 -352607880 -1113316770 1670766086 1484347900 726044427 -302927679 -553459948 733249327 1035380273 1064839342 821681359 149582071 1677331828 1871661077 -983155714 327886503 -2085674988 -1143041324 930783912 -866261425 2091261614 -725114590 -709401471
REM
CELL 1.54180   50.00000   50.00000   50.00000   90.00000   90.00000   90.00000
LATT -1
SFAC C  
C      1  0.5452740000000  0.4360990000000  0.5025590000000 1.0
C      1  0.4308200000000  0.5156580000000  0.4989500000000 1.0
C      1  0.5208750000000  0.4878770000000  0.3932740000000 1.0
C      1  0.5607510000000  0.5308160000000  0.5345580000000 1.0
C      1  0.5749410000000  0.5550180000000  0.5481850000000 1.0
C      1  0.5674300000000  0.4842500000000  0.5920420000000 1.0
C      1  0.5824870000000  0.5429750000000  0.5771430000000 1.0
C      1  0.3994090000000  0.5316030000000  0.5146930000000 1.0
C      1  0.4623450000000  0.5840660000000  0.4818250000000 1.0
C      1  0.4313850000000  0.5763160000000  0.5220150000000 1.0
C      1  0.4269530000000  0.5531120000000  0.5802200000000 1.0
C      1  0.5476510000000  0.5135470000000  0.5573530000000 1.0
C      1  0.4534140000000  0.4685850000000  0.5134520000000 1.0
C      1  0.4664740000000  0.4937290000000  0.4361500000000 1.0
C      1  0.5135440000000  0.5994610000000  0.4666400000000 1.0
C      1  0.5758660000000  0.5502910000000  0.4858280000000 1.0
C      1  0.4554390000000  0.5119010000000  0.4577710000000 1.0
C      1  0.4553260000000  0.5550790000000  0.5535930000000 1.0
C      1  0.5422220000000  0.5573110000000  0.4144360000000 1.0
C      1  0.5130200000000  0.4926510000000  0.4722040000000 1.0
C      1  0.4661240000000  0.5528960000000  0.5826890000000 1.0
C      1  0.5594050000000  0.4608560000000  0.4105800000000 1.0
C      1  0.4766710000000  0.5210100000000  0.4756200000000 1.0
C      1  0.3982060000000  0.4868990000000  0.4912460000000 1.0
C      1  0.5072460000000  0.5455060000000  0.4485030000000 1.0
C      1  0.5041670000000  0.5031630000000  0.5185430000000 1.0
C      1  0.4002650000000  0.5508630000000  0.4808720000000 1.0
C      1  0.5838440000000  0.4754660000000  0.5483750000000 1.0
C      1  0.5025860000000  0.5298850000000  0.4198370000000 1.0
C      1  0.4643150000000  0.4785040000000  0.4875860000000 1.0
C      1  0.4712630000000  0.5670150000000  0.4351880000000 1.0
C      1  0.4391420000000  0.4945790000000  0.4759800000000 1.0
C      1  0.3871500000000  0.5283320000000  0.4653050000000 1.0
C      1  0.5368930000000  0.5388780000000  0.5168870000000 1.0
C      1  0.5510220000000  0.4816910000000  0.3908530000000 1.0
C      1  0.4765160000000  0.4463750000000  0.5946680000000 1.0
C      1  0.3994570000000  0.4919920000000  0.5404490000000 1.0
C      1  0.5494370000000  0.5066390000000  0.4292480000000 1.0
C      1  0.4959140000000  0.5776130000000  0.4206930000000 1.0
C      1  0.5087970000000  0.5202110000000  0.6203670000000 1.0
C      1  0.5145780000000  0.4252360000000  0.4609460000000 1.0
C      1  0.4528610000000  0.5833510000000  0.4535710000000 1.0
C      1  0.5419330000000  0.4065940000000  0.4956070000000 1.0
C      1  0.5535820000000  0.4848370000000  0.5088310000000 1.0
C      1  0.4896350000000  0.4992840000000  0.4905770000000 1.0
C      1  0.4245690000000  0.4900410000000  0.4226500000000 1.0
C      1  0.4530630000000  0.4402570000000  0.5262450000000 1.0
C      1  0.4089480000000  0.5376670000000  0.5428900000000 1.0
C      1  0.5290530000000  0.5780540000000  0.5475530000000 1.0
C      1  0.5133070000000  0.5551660000000  0.4061660000000 1.0
C      1  0.4295520000000  0.5428410000000  0.4192810000000 1.0
C      1  0.3902340000000  0.5261300000000  0.4368920000000 1.0
C      1  0.5995070000000  0.4992070000000  0.5556890000000 1.0
C      1  0.4492420000000  0.4838570000000  0.6054580000000 1.0
C      1  0.5811450000000  0.5424330000000  0.4383260000000 1.0
C      1  0.4803590000000  0.4481460000000  0.4238820000000 1.0
C      1  0.4572510000000  0.5496540000000  0.4154990000000 1.0
C      1  0.4611560000000  0.5090050000000  0.3919250000000 1.0
C      1  0.4467100000000  0.5637110000000  0.5005230000000 1.0
C      1  0.5857630000000  0.4384100000000  0.4653480000000 1.0
C      1  0.5327720000000  0.4866330000000  0.5547750000000 1.0
C      1  0.4959020000000  0.5589110000000  0.5775780000000 1.0
C      1  0.4909100000000  0.5535380000000  0.5190070000000 1.0
C      1  0.4945160000000  0.4711670000000  0.5964000000000 1.0
C      1  0.4250330000000  0.5743240000000  0.4503440000000 1.0
C      1  0.5776440000000  0.4697180000000  0.5196760000000 1.0
C      1  0.5949850000000  0.4385720000000  0.4939050000000 1.0
C      1  0.4624990000000  0.4267380000000  0.4375170000000 1.0
C      1  0.4626010000000  0.4158440000000  0.5117330000000 1.0
C      1  0.5864650000000  0.5133690000000  0.5781000000000 1.0
C      1  0.5093710000000  0.5352170000000  0.5644990000000 1.0
C      1  0.5333410000000  0.5136590000000  0.4758370000000 1.0
C      1  0.5095910000000  0.4440450000000  0.4108530000000 1.0
C      1  0.5571180000000  0.4264410000000  0.5439160000000 1.0
C      1  0.5538310000000  0.5734520000000  0.5624670000000 1.0
C      1  0.4514110000000  0.5177620000000  0.5225100000000 1.0
C      1  0.4738570000000  0.5276310000000  0.4087590000000 1.0
C      1  0.5493050000000  0.5902260000000  0.5030830000000 1.0
C      1  0.4522080000000  0.4371940000000  0.4646350000000 1.0
C      1  0.4676140000000  0.4626170000000  0.4006590000000 1.0
C      1  0.5362420000000  0.4479170000000  0.4239280000000 1.0
C      1  0.4192900000000  0.5221360000000  0.5829820000000 1.0
C      1  0.5598340000000  0.3980360000000  0.4745890000000 1.0
C      1  0.5566630000000  0.4422860000000  0.5690480000000 1.0
C      1  0.5420970000000  0.5958850000000  0.4751080000000 1.0
C      1  0.4960030000000  0.3918140000000  0.4881630000000 1.0
C      1  0.5462840000000  0.4578910000000  0.4709270000000 1.0
C      1  0.5028950000000  0.5808400000000  0.5601030000000 1.0
C      1  0.4783350000000  0.4295910000000  0.5698590000000 1.0
C      1  0.5008470000000  0.5613440000000  0.4913310000000 1.0
C      1  0.3994690000000  0.5144730000000  0.5600300000000 1.0
C      1  0.5401030000000  0.4363410000000  0.4508300000000 1.0
C      1  0.5227630000000  0.4476220000000  0.5255050000000 1.0
C      1  0.6037760000000  0.5099670000000  0.4704180000000 1.0
C      1  0.4743990000000  0.4017560000000  0.4430520000000 1.0
C      1  0.5861540000000  0.4686690000000  0.4243990000000 1.0
C      1  0.3943160000000  0.4636650000000  0.5427670000000 1.0
C      1  0.5361060000000  0.5295150000000  0.5796040000000 1.0
C      1  0.5817640000000  0.5207850000000  0.4892690000000 1.0
C      1  0.6074480000000  0.4805650000000  0.4714550000000 1.0
C      1  0.5362130000000  0.4069850000000  0.5395400000000 1.0
C      1  0.5089530000000  0.4845610000000  0.4440220000000 1.0
C      1  0.4328190000000  0.5741840000000  0.5501020000000 1.0
C      1  0.4393170000000  0.5291190000000  0.5481030000000 1.0
C      1  0.5828760000000  0.5168130000000  0.5188040000000 1.0
C      1  0.4258070000000  0.4537380000000  0.4665500000000 1.0
C      1  0.5606870000000  0.4713670000000  0.5662480000000 1.0
C      1  0.5865190000000  0.4670190000000  0.4542780000000 1.0
C      1  0.4427910000000  0.5407850000000  0.4558660000000 1.0
C      1  0.4445510000000  0.5057600000000  0.5852010000000 1.0
C      1  0.4750960000000  0.4572460000000  0.4699870000000 1.0
C      1  0.4720760000000  0.4469310000000  0.5476290000000 1.0
C      1  0.5796230000000  0.5621760000000  0.4599800000000 1.0
C      1  0.5913030000000  0.4970780000000  0.4177250000000 1.0
C      1  0.5436960000000  0.5831980000000  0.4289910000000 1.0
C      1  0.4815080000000  0.5166430000000  0.6171390000000 1.0
C      1  0.4534050000000  0.4881620000000  0.4104270000000 1.0
C      1  0.5217390000000  0.4674840000000  0.4829590000000 1.0
C      1  0.5425240000000  0.4865260000000  0.6067660000000 1.0
C      1  0.4060640000000  0.4484140000000  0.5194440000000 1.0
C      1  0.3924040000000  0.5027970000000  0.5149120000000 1.0
C      1  0.4638690000000  0.4900540000000  0.5303370000000 1.0
C      1  0.4021050000000  0.5758520000000  0.4662480000000 1.0
C      1  0.4296280000000  0.5433420000000  0.4842010000000 1.0
C      1  0.4828960000000  0.4708790000000  0.4436560000000 1.0
C      1  0.4989400000000  0.4858060000000  0.5684090000000 1.0
C      1  0.5537680000000  0.5534950000000  0.5862040000000 1.0
C      1  0.4997370000000  0.5993720000000  0.5158540000000 1.0
C      1  0.4254080000000  0.4329960000000  0.5351750000000 1.0
C      1  0.5196540000000  0.5017790000000  0.4212990000000 1.0
C      1  0.5312650000000  0.4413080000000  0.5828160000000 1.0
C      1  0.5647560000000  0.4193470000000  0.4556680000000 1.0
C      1  0.4533050000000  0.4131860000000  0.4838670000000 1.0
C      1  0.5282360000000  0.5946460000000  0.5238110000000 1.0
C      1  0.5233230000000  0.4637040000000  0.6015130000000 1.0
C      1  0.4954420000000  0.4050780000000  0.5637070000000 1.0
C      1  0.4920880000000  0.4093620000000  0.5128230000000 1.0
C      1  0.5312520000000  0.5138860000000  0.6051910000000 1.0
C      1  0.4717100000000  0.3944710000000  0.4705080000000 1.0
C      1  0.5029260000000  0.4642180000000  0.3894900000000 1.0
C      1  0.5105720000000  0.5319970000000  0.5298360000000 1.0
C      1  0.4934260000000  0.5900890000000  0.4878070000000 1.0
C      1  0.5271780000000  0.4811040000000  0.5248430000000 1.0
C      1  0.5596310000000  0.5841200000000  0.4540330000000 1.0
C      1  0.4766700000000  0.4877910000000  0.6166260000000 1.0
C      1  0.6072390000000  0.5137200000000  0.5326140000000 1.0
C      1  0.4695600000000  0.5225400000000  0.5895160000000 1.0
C      1  0.5659190000000  0.5043580000000  0.4036450000000 1.0
C      1  0.5961410000000  0.5168130000000  0.4418940000000 1.0
C      1  0.4779520000000  0.4747040000000  0.5503500000000 1.0
C      1  0.4864520000000  0.5803380000000  0.5352280000000 1.0
C      1  0.5138880000000  0.4378520000000  0.5583620000000 1.0
C      1  0.4184780000000  0.4317440000000  0.5624240000000 1.0
C      1  0.5601880000000  0.4832950000000  0.4577640000000 1.0
C      1  0.4213930000000  0.4709700000000  0.4441160000000 1.0
C      1  0.5581180000000  0.5012100000000  0.4834060000000 1.0
C      1  0.5021360000000  0.4456590000000  0.4801780000000 1.0
C      1  0.5164820000000  0.5829610000000  0.4411170000000 1.0
C      1  0.5339640000000  0.5397410000000  0.4626860000000 1.0
C      1  0.4503580000000  0.4562960000000  0.5993080000000 1.0
C      1  0.4017560000000  0.5023260000000  0.4672400000000 1.0
C      1  0.3998140000000  0.4508640000000  0.5672340000000 1.0
C      1  0.5210150000000  0.3995920000000  0.4737910000000 1.0
C      1  0.4165250000000  0.5186200000000  0.4286340000000 1.0
C      1  0.4903940000000  0.5139250000000  0.5704570000000 1.0
C      1  0.5519180000000  0.5369500000000  0.4356330000000 1.0
C      1  0.5714330000000  0.4386690000000  0.5174100000000 1.0
C      1  0.6058880000000  0.4668180000000  0.4978450000000 1.0
C      1  0.5012840000000  0.4370040000000  0.5079020000000 1.0
C      1  0.4650990000000  0.5427700000000  0.5123900000000 1.0
C      1  0.5320340000000  0.5558160000000  0.4906070000000 1.0
C      1  0.5082110000000  0.3995290000000  0.5381230000000 1.0
C      1  0.4836930000000  0.5482680000000  0.4675360000000 1.0
C      1  0.5684810000000  0.5683820000000  0.5065990000000 1.0
C      1  0.4141740000000  0.4626460000000  0.4935390000000 1.0
END
