TITL C-950521-2237-168 0.000220276536434868 125000 -957.74484538284 0 0 153 (C1) n - 1
REM
REM in /home/bkarasulu/work/CARBON/AIRSS/Generating-Clusters/EDIP-Nigel-Params/with-SteepDescent/Only-C1/SD-CG/HFTN-CG
REM
REM
REM
REM
REM
REM ./C.cell (11c1c37f851c82e70ff6c80c92926a4b)
REM
REM compiler GCC version 9.2.1 20190827 (Red Hat 9.2.1-1)
REM options -cpp -mtune=generic -march=x86-64 -g -O0 -fpre-include=/usr/include/finclude/math-vector-fortran.h
REM seed 2119937871 -275022815 1865376138 265598214 1374530851 -2011498097 481817759 1390872737 -1583774445 -1968068524 1032721363 -1946015166 2096685279 509672920 585177028 638141535 1171144191 1705332629 -525325271 -1264983538 -953803279 1047986616 -789044762 -42147773 -76450116 237878919 -1246222474 894465981 477147608 120838765 -1443917382 646543670 731677673
REM
CELL 1.54180   50.00000   50.00000   50.00000   90.00000   90.00000   90.00000
LATT -1
SFAC C  
C      1  0.5114330000000  0.5587200000000  0.4188330000000 1.0
C      1  0.4370000000000  0.4201560000000  0.5366850000000 1.0
C      1  0.4538420000000  0.4937200000000  0.5396890000000 1.0
C      1  0.4815600000000  0.4968290000000  0.4454030000000 1.0
C      1  0.5887300000000  0.5145300000000  0.4746300000000 1.0
C      1  0.5243080000000  0.4651400000000  0.4475180000000 1.0
C      1  0.4905510000000  0.3931540000000  0.4983270000000 1.0
C      1  0.4977090000000  0.4638890000000  0.4042820000000 1.0
C      1  0.5664930000000  0.5207250000000  0.4956740000000 1.0
C      1  0.5381170000000  0.5393350000000  0.4475830000000 1.0
C      1  0.4763290000000  0.4699330000000  0.4636680000000 1.0
C      1  0.4642630000000  0.5648970000000  0.4500310000000 1.0
C      1  0.4210890000000  0.4605870000000  0.5663120000000 1.0
C      1  0.3951610000000  0.5041210000000  0.5364020000000 1.0
C      1  0.5902110000000  0.5410180000000  0.4584920000000 1.0
C      1  0.5327290000000  0.5415050000000  0.5293340000000 1.0
C      1  0.5333420000000  0.5868160000000  0.4577310000000 1.0
C      1  0.5527100000000  0.5145370000000  0.5757710000000 1.0
C      1  0.5077660000000  0.3493420000000  0.4758670000000 1.0
C      1  0.4048280000000  0.4555190000000  0.5440270000000 1.0
C      1  0.5123570000000  0.4934240000000  0.4342050000000 1.0
C      1  0.4724880000000  0.5023380000000  0.3891820000000 1.0
C      1  0.5944460000000  0.5193420000000  0.5525970000000 1.0
C      1  0.5361950000000  0.4394810000000  0.5861160000000 1.0
C      1  0.5831640000000  0.4837220000000  0.5227640000000 1.0
C      1  0.5281390000000  0.3865860000000  0.4500730000000 1.0
C      1  0.4650930000000  0.5220150000000  0.5376370000000 1.0
C      1  0.4214160000000  0.5594410000000  0.4677000000000 1.0
C      1  0.5089510000000  0.5508950000000  0.5462590000000 1.0
C      1  0.4319830000000  0.4307540000000  0.4807810000000 1.0
C      1  0.5629350000000  0.4632160000000  0.5142380000000 1.0
C      1  0.5344500000000  0.5890980000000  0.5537480000000 1.0
C      1  0.4597830000000  0.6037130000000  0.5249910000000 1.0
C      1  0.4710100000000  0.4721860000000  0.5196490000000 1.0
C      1  0.5107950000000  0.5338400000000  0.4656540000000 1.0
C      1  0.4428620000000  0.5036220000000  0.5042710000000 1.0
C      1  0.5206320000000  0.5673060000000  0.5690840000000 1.0
C      1  0.4353670000000  0.6021190000000  0.5092030000000 1.0
C      1  0.5628050000000  0.5527400000000  0.4174870000000 1.0
C      1  0.4338720000000  0.4763520000000  0.4925280000000 1.0
C      1  0.5465260000000  0.4485150000000  0.4211970000000 1.0
C      1  0.5619470000000  0.4856960000000  0.5696470000000 1.0
C      1  0.5400360000000  0.5059450000000  0.5017010000000 1.0
C      1  0.5868430000000  0.4906260000000  0.5512220000000 1.0
C      1  0.4956160000000  0.5726390000000  0.5295170000000 1.0
C      1  0.5346540000000  0.5555530000000  0.5900950000000 1.0
C      1  0.4206610000000  0.5333080000000  0.4760150000000 1.0
C      1  0.5822340000000  0.5680420000000  0.5005510000000 1.0
C      1  0.5573840000000  0.4955620000000  0.4066300000000 1.0
C      1  0.5407840000000  0.4758980000000  0.4958400000000 1.0
C      1  0.5851710000000  0.4937590000000  0.4524080000000 1.0
C      1  0.6125500000000  0.5053000000000  0.4888970000000 1.0
C      1  0.5083280000000  0.4424630000000  0.5766620000000 1.0
C      1  0.4596620000000  0.4321190000000  0.5650250000000 1.0
C      1  0.5171830000000  0.5940330000000  0.5299380000000 1.0
C      1  0.4910560000000  0.5252830000000  0.5519930000000 1.0
C      1  0.4797770000000  0.4302830000000  0.4355780000000 1.0
C      1  0.4141900000000  0.4433920000000  0.4990310000000 1.0
C      1  0.4238740000000  0.5440220000000  0.5446190000000 1.0
C      1  0.5201000000000  0.4758130000000  0.3900910000000 1.0
C      1  0.5783540000000  0.5416970000000  0.5155010000000 1.0
C      1  0.5368190000000  0.5525920000000  0.4087830000000 1.0
C      1  0.5133800000000  0.4643590000000  0.4983210000000 1.0
C      1  0.4673000000000  0.5203400000000  0.4874070000000 1.0
C      1  0.5558900000000  0.4250790000000  0.5682870000000 1.0
C      1  0.4793430000000  0.4121320000000  0.4792530000000 1.0
C      1  0.5072670000000  0.5001190000000  0.5409910000000 1.0
C      1  0.5363280000000  0.5064270000000  0.4507530000000 1.0
C      1  0.5447080000000  0.4658510000000  0.5967960000000 1.0
C      1  0.4724000000000  0.4771480000000  0.4011120000000 1.0
C      1  0.5610730000000  0.5797360000000  0.5425710000000 1.0
C      1  0.4608510000000  0.4523080000000  0.4431400000000 1.0
C      1  0.4969860000000  0.4257730000000  0.4596700000000 1.0
C      1  0.5412900000000  0.4736300000000  0.5505470000000 1.0
C      1  0.5221220000000  0.6002770000000  0.4817730000000 1.0
C      1  0.4478240000000  0.4576780000000  0.5746760000000 1.0
C      1  0.4148850000000  0.4663210000000  0.4481070000000 1.0
C      1  0.4472250000000  0.5123040000000  0.4359830000000 1.0
C      1  0.5594810000000  0.4256690000000  0.5374600000000 1.0
C      1  0.5709610000000  0.5336560000000  0.5632190000000 1.0
C      1  0.5789750000000  0.5344240000000  0.4314880000000 1.0
C      1  0.5739380000000  0.4352220000000  0.5130050000000 1.0
C      1  0.5264410000000  0.4279910000000  0.4236020000000 1.0
C      1  0.4964120000000  0.4849990000000  0.5148060000000 1.0
C      1  0.5341070000000  0.5281160000000  0.5940710000000 1.0
C      1  0.4866360000000  0.5820040000000  0.4549110000000 1.0
C      1  0.3947070000000  0.5149680000000  0.5090720000000 1.0
C      1  0.4784240000000  0.4461150000000  0.5337660000000 1.0
C      1  0.5064130000000  0.5197550000000  0.6033820000000 1.0
C      1  0.5455050000000  0.5613410000000  0.4688460000000 1.0
C      1  0.5192580000000  0.5027820000000  0.4042030000000 1.0
C      1  0.4173900000000  0.5160690000000  0.5520460000000 1.0
C      1  0.5282490000000  0.5565590000000  0.4996920000000 1.0
C      1  0.4638750000000  0.5502240000000  0.4966900000000 1.0
C      1  0.5143180000000  0.4780120000000  0.5624020000000 1.0
C      1  0.4538240000000  0.4712060000000  0.4218820000000 1.0
C      1  0.5032990000000  0.4556880000000  0.4689850000000 1.0
C      1  0.4331340000000  0.5593810000000  0.5673490000000 1.0
C      1  0.5343020000000  0.5870470000000  0.5060920000000 1.0
C      1  0.4432500000000  0.5169360000000  0.5965100000000 1.0
C      1  0.4793860000000  0.3985840000000  0.5247800000000 1.0
C      1  0.5758350000000  0.5643380000000  0.4715390000000 1.0
C      1  0.4272440000000  0.4814060000000  0.4256690000000 1.0
C      1  0.4709800000000  0.6091870000000  0.4946050000000 1.0
C      1  0.6045350000000  0.4815920000000  0.5026160000000 1.0
C      1  0.4335500000000  0.4434810000000  0.4539210000000 1.0
C      1  0.4997110000000  0.4373060000000  0.4153340000000 1.0
C      1  0.4258840000000  0.5115440000000  0.4584400000000 1.0
C      1  0.5158770000000  0.5161330000000  0.4877600000000 1.0
C      1  0.5081400000000  0.4355060000000  0.5313520000000 1.0
C      1  0.5356060000000  0.4448440000000  0.5424400000000 1.0
C      1  0.4682740000000  0.5795690000000  0.5384650000000 1.0
C      1  0.4217120000000  0.5262030000000  0.5043210000000 1.0
C      1  0.4475260000000  0.5434330000000  0.5247240000000 1.0
C      1  0.4612400000000  0.4629290000000  0.4908290000000 1.0
C      1  0.4589730000000  0.5428290000000  0.5900420000000 1.0
C      1  0.3923400000000  0.4759420000000  0.5281580000000 1.0
C      1  0.4917740000000  0.5083930000000  0.4987440000000 1.0
C      1  0.4620490000000  0.4230770000000  0.5216700000000 1.0
C      1  0.4452770000000  0.5973340000000  0.4822930000000 1.0
C      1  0.4943490000000  0.3666410000000  0.4912830000000 1.0
C      1  0.4146840000000  0.4351320000000  0.5264820000000 1.0
C      1  0.5232000000000  0.3616730000000  0.4578400000000 1.0
C      1  0.4966410000000  0.4893150000000  0.6077270000000 1.0
C      1  0.4943420000000  0.5188130000000  0.3954350000000 1.0
C      1  0.4810010000000  0.5249080000000  0.4589470000000 1.0
C      1  0.4210860000000  0.5124350000000  0.5798020000000 1.0
C      1  0.4583180000000  0.5719740000000  0.5645350000000 1.0
C      1  0.4933160000000  0.5640210000000  0.5001320000000 1.0
C      1  0.6027820000000  0.5312520000000  0.5279080000000 1.0
C      1  0.4629560000000  0.5429100000000  0.4290370000000 1.0
C      1  0.4633140000000  0.4813120000000  0.5667990000000 1.0
C      1  0.4147380000000  0.4861490000000  0.4709700000000 1.0
C      1  0.5737740000000  0.5059830000000  0.4282970000000 1.0
C      1  0.3917140000000  0.4903500000000  0.4926380000000 1.0
C      1  0.5643360000000  0.5886050000000  0.5139210000000 1.0
C      1  0.5105490000000  0.5789820000000  0.4399000000000 1.0
C      1  0.5761320000000  0.4674760000000  0.4619810000000 1.0
C      1  0.4477370000000  0.5683520000000  0.4743040000000 1.0
C      1  0.5328120000000  0.5117400000000  0.5298080000000 1.0
C      1  0.4890370000000  0.4220510000000  0.5690970000000 1.0
C      1  0.4930090000000  0.5899930000000  0.4829660000000 1.0
C      1  0.4592900000000  0.4307740000000  0.4923240000000 1.0
C      1  0.4843790000000  0.5259400000000  0.5821030000000 1.0
C      1  0.4689120000000  0.4991010000000  0.5903940000000 1.0
C      1  0.4882870000000  0.5422220000000  0.4120750000000 1.0
C      1  0.5603390000000  0.5495760000000  0.5393960000000 1.0
C      1  0.5473230000000  0.4758210000000  0.4664840000000 1.0
C      1  0.5904410000000  0.4585110000000  0.4873890000000 1.0
C      1  0.5473240000000  0.4686880000000  0.4002230000000 1.0
C      1  0.5232420000000  0.4137230000000  0.4494190000000 1.0
C      1  0.5222490000000  0.4863100000000  0.5905120000000 1.0
C      1  0.5000400000000  0.4087910000000  0.5439380000000 1.0
END
