TITL C-951341-1326-21 -2.2722826669363e-06 125000 -486.952103282689 0 0 79 (C1) n - 1
REM
REM in /home/bkarasulu/work/CARBON/AIRSS/Generating-Clusters/EDIP-Nigel-Params/with-SteepDescent/Only-C1/SD-CG/HFTN-CG
REM
REM
REM
REM
REM
REM ./C.cell (11c1c37f851c82e70ff6c80c92926a4b)
REM
REM compiler GCC version 9.2.1 20190827 (Red Hat 9.2.1-1)
REM options -cpp -mtune=generic -march=x86-64 -g -O0 -fpre-include=/usr/include/finclude/math-vector-fortran.h
REM seed 353415217 -1659480581 -627730586 -684504939 -691662268 -264295077 -1065028294 -1000811059 -1077862124 -1577837028 1035194121 890888053 -2120242412 -1933369948 -1410096067 2112237361 187651887 738246461 1612745084 -109157014 -1453610953 -456261698 -1323902592 1401240981 -188869194 -1725684662 1003493446 -383089725 -784784711 1551590285 1968649860 -1735052877 1754684383
REM
CELL 1.54180   50.00000   50.00000   50.00000   90.00000   90.00000   90.00000
LATT -1
SFAC C  
C      1  0.4871840000000  0.4932790000000  0.5777080000000 1.0
C      1  0.5409670000000  0.5233060000000  0.5058200000000 1.0
C      1  0.5199420000000  0.5289270000000  0.5723090000000 1.0
C      1  0.5003510000000  0.4766790000000  0.4094450000000 1.0
C      1  0.4326570000000  0.5247600000000  0.4537800000000 1.0
C      1  0.4451830000000  0.4531730000000  0.5417430000000 1.0
C      1  0.5549650000000  0.5032690000000  0.5571460000000 1.0
C      1  0.4311770000000  0.5283860000000  0.5033850000000 1.0
C      1  0.4410240000000  0.4955140000000  0.5699760000000 1.0
C      1  0.5032080000000  0.5714440000000  0.4801580000000 1.0
C      1  0.4744170000000  0.4675640000000  0.4533500000000 1.0
C      1  0.4773900000000  0.5128830000000  0.4796480000000 1.0
C      1  0.4719360000000  0.4485120000000  0.5289670000000 1.0
C      1  0.5530990000000  0.4473500000000  0.4847030000000 1.0
C      1  0.5195180000000  0.4202030000000  0.5113470000000 1.0
C      1  0.5385680000000  0.4992320000000  0.4848270000000 1.0
C      1  0.5822790000000  0.5180890000000  0.4891280000000 1.0
C      1  0.4281620000000  0.4672650000000  0.5228680000000 1.0
C      1  0.4854480000000  0.5671460000000  0.4366520000000 1.0
C      1  0.5126660000000  0.5155930000000  0.5170870000000 1.0
C      1  0.5233190000000  0.4655110000000  0.5446540000000 1.0
C      1  0.4604510000000  0.5332980000000  0.5370710000000 1.0
C      1  0.4471750000000  0.5053520000000  0.4335970000000 1.0
C      1  0.4701960000000  0.4415080000000  0.4670940000000 1.0
C      1  0.5469590000000  0.5317530000000  0.5604300000000 1.0
C      1  0.4843670000000  0.4892890000000  0.5390820000000 1.0
C      1  0.5011400000000  0.4373360000000  0.4981980000000 1.0
C      1  0.4948570000000  0.4496170000000  0.5517750000000 1.0
C      1  0.5154330000000  0.5009930000000  0.5828330000000 1.0
C      1  0.4966150000000  0.4284880000000  0.4703850000000 1.0
C      1  0.5268870000000  0.5620050000000  0.4915140000000 1.0
C      1  0.4481350000000  0.4800650000000  0.4497000000000 1.0
C      1  0.5183660000000  0.4348350000000  0.4531650000000 1.0
C      1  0.5493660000000  0.5152490000000  0.4333250000000 1.0
C      1  0.4240210000000  0.5059570000000  0.5493510000000 1.0
C      1  0.4872720000000  0.4633000000000  0.4283620000000 1.0
C      1  0.4744500000000  0.5178440000000  0.4193350000000 1.0
C      1  0.4634820000000  0.5127640000000  0.5806670000000 1.0
C      1  0.4577650000000  0.4441250000000  0.4936570000000 1.0
C      1  0.4973890000000  0.5627260000000  0.5335960000000 1.0
C      1  0.4626410000000  0.5306950000000  0.4592730000000 1.0
C      1  0.5341710000000  0.4844470000000  0.5670530000000 1.0
C      1  0.4906850000000  0.4862050000000  0.4734120000000 1.0
C      1  0.4926680000000  0.5546160000000  0.5628920000000 1.0
C      1  0.4368640000000  0.4845770000000  0.4764200000000 1.0
C      1  0.5181970000000  0.4929660000000  0.4634710000000 1.0
C      1  0.5653630000000  0.4916790000000  0.4462510000000 1.0
C      1  0.5200370000000  0.5108800000000  0.4398110000000 1.0
C      1  0.4498420000000  0.5542220000000  0.4993060000000 1.0
C      1  0.5549190000000  0.4656760000000  0.4405540000000 1.0
C      1  0.5567490000000  0.5417470000000  0.4444540000000 1.0
C      1  0.4661860000000  0.5389120000000  0.5650150000000 1.0
C      1  0.5688150000000  0.4709020000000  0.5213960000000 1.0
C      1  0.5485990000000  0.4516080000000  0.5319400000000 1.0
C      1  0.4800210000000  0.4637380000000  0.5743450000000 1.0
C      1  0.4237800000000  0.5112870000000  0.4788130000000 1.0
C      1  0.5253270000000  0.5606680000000  0.5215060000000 1.0
C      1  0.5476200000000  0.5469860000000  0.5353250000000 1.0
C      1  0.5721860000000  0.4683180000000  0.4915890000000 1.0
C      1  0.4756610000000  0.5479300000000  0.5162530000000 1.0
C      1  0.4569450000000  0.5579850000000  0.4705580000000 1.0
C      1  0.5096770000000  0.4838310000000  0.5216440000000 1.0
C      1  0.5655720000000  0.4980540000000  0.5309530000000 1.0
C      1  0.4780320000000  0.5455880000000  0.4222270000000 1.0
C      1  0.5009840000000  0.5039430000000  0.4168820000000 1.0
C      1  0.4603630000000  0.4872300000000  0.5197600000000 1.0
C      1  0.5437400000000  0.4338750000000  0.5093780000000 1.0
C      1  0.4909920000000  0.5275190000000  0.5004800000000 1.0
C      1  0.4350090000000  0.4618710000000  0.4951430000000 1.0
C      1  0.4927920000000  0.4696120000000  0.5002170000000 1.0
C      1  0.5443720000000  0.4451260000000  0.4568420000000 1.0
C      1  0.5665670000000  0.4945540000000  0.4768480000000 1.0
C      1  0.4422550000000  0.5125420000000  0.5274610000000 1.0
C      1  0.4810440000000  0.5738820000000  0.4633520000000 1.0
C      1  0.5760460000000  0.5437350000000  0.4776230000000 1.0
C      1  0.5014480000000  0.5209090000000  0.5462940000000 1.0
C      1  0.4505900000000  0.4667160000000  0.5677450000000 1.0
C      1  0.5776370000000  0.5198410000000  0.5174160000000 1.0
C      1  0.5478170000000  0.5505400000000  0.4722570000000 1.0
END
