TITL C-951339-9237-304 -1.12534201915218e-06 125000 -1227.31830788259 0 0 194 (C1) n - 1
REM
REM in /home/bkarasulu/work/CARBON/AIRSS/Generating-Clusters/EDIP-Nigel-Params/with-SteepDescent/Only-C1/SD-CG/HFTN-CG
REM
REM
REM
REM
REM
REM ./C.cell (11c1c37f851c82e70ff6c80c92926a4b)
REM
REM compiler GCC version 9.2.1 20190827 (Red Hat 9.2.1-1)
REM options -cpp -mtune=generic -march=x86-64 -g -O0 -fpre-include=/usr/include/finclude/math-vector-fortran.h
REM seed 548270426 640727400 -111484161 -1426358645 107899187 -896397689 -189560317 -191707943 115882271 -2141509983 520408397 -1010128572 -1817063602 -1682205617 1832434677 1724785007 -1266503405 1584018002 1805680927 1444894645 -498933694 -1426653830 1508961844 1439539266 -1707537740 -1210568843 -1320008180 2082886883 1733903465 -235546775 305324620 -611911091 -1781066571
REM
CELL 1.54180   50.00000   50.00000   50.00000   90.00000   90.00000   90.00000
LATT -1
SFAC C  
C      1  0.5043490000000  0.3828290000000  0.5256150000000 1.0
C      1  0.4122790000000  0.4750080000000  0.4578870000000 1.0
C      1  0.5513630000000  0.5162520000000  0.4007120000000 1.0
C      1  0.5431160000000  0.5067250000000  0.4628680000000 1.0
C      1  0.4700730000000  0.5142390000000  0.5955030000000 1.0
C      1  0.3893860000000  0.5154350000000  0.4640880000000 1.0
C      1  0.5655430000000  0.4742140000000  0.4270510000000 1.0
C      1  0.5034090000000  0.5737780000000  0.4112640000000 1.0
C      1  0.5363220000000  0.5330270000000  0.4452110000000 1.0
C      1  0.5503370000000  0.4698600000000  0.5053220000000 1.0
C      1  0.4675840000000  0.4121280000000  0.4593030000000 1.0
C      1  0.4372530000000  0.5308290000000  0.4038490000000 1.0
C      1  0.5170370000000  0.4928980000000  0.4654540000000 1.0
C      1  0.4459360000000  0.5137610000000  0.5486240000000 1.0
C      1  0.4589910000000  0.4258310000000  0.4341360000000 1.0
C      1  0.5560830000000  0.3963660000000  0.5245780000000 1.0
C      1  0.5840080000000  0.5119150000000  0.5859390000000 1.0
C      1  0.4861270000000  0.4530260000000  0.3798300000000 1.0
C      1  0.4813380000000  0.6114630000000  0.4340260000000 1.0
C      1  0.4570740000000  0.5515810000000  0.5101270000000 1.0
C      1  0.3965140000000  0.4400860000000  0.5210170000000 1.0
C      1  0.4594760000000  0.5132950000000  0.3929220000000 1.0
C      1  0.5597310000000  0.4488200000000  0.5247300000000 1.0
C      1  0.4021210000000  0.5439880000000  0.5476440000000 1.0
C      1  0.4494640000000  0.5116860000000  0.4740370000000 1.0
C      1  0.4789670000000  0.4346080000000  0.5119240000000 1.0
C      1  0.5535500000000  0.4218340000000  0.5093600000000 1.0
C      1  0.5713420000000  0.5908650000000  0.4623690000000 1.0
C      1  0.4280360000000  0.4422130000000  0.5846710000000 1.0
C      1  0.4726670000000  0.4422110000000  0.5608760000000 1.0
C      1  0.5533480000000  0.4054070000000  0.4643940000000 1.0
C      1  0.4260150000000  0.4329470000000  0.4799410000000 1.0
C      1  0.5061680000000  0.5515090000000  0.5978860000000 1.0
C      1  0.4917040000000  0.4717440000000  0.4008890000000 1.0
C      1  0.5165210000000  0.4589310000000  0.4209420000000 1.0
C      1  0.4544530000000  0.4494970000000  0.5835940000000 1.0
C      1  0.5476060000000  0.4289170000000  0.4425150000000 1.0
C      1  0.5949320000000  0.5199350000000  0.4624310000000 1.0
C      1  0.4748750000000  0.5703270000000  0.4439940000000 1.0
C      1  0.5329080000000  0.6180360000000  0.4702260000000 1.0
C      1  0.5579260000000  0.6024350000000  0.5095490000000 1.0
C      1  0.5195390000000  0.5743540000000  0.5277590000000 1.0
C      1  0.5628500000000  0.5299160000000  0.5888420000000 1.0
C      1  0.4870300000000  0.5452780000000  0.5482400000000 1.0
C      1  0.5946010000000  0.4474080000000  0.4515640000000 1.0
C      1  0.4823210000000  0.4408010000000  0.4814830000000 1.0
C      1  0.5907640000000  0.4457570000000  0.5472620000000 1.0
C      1  0.5063730000000  0.4291660000000  0.5248560000000 1.0
C      1  0.5547580000000  0.5942860000000  0.4372020000000 1.0
C      1  0.5936990000000  0.5668630000000  0.5189200000000 1.0
C      1  0.4239760000000  0.4483420000000  0.4550780000000 1.0
C      1  0.5277950000000  0.6018350000000  0.4455150000000 1.0
C      1  0.4257730000000  0.5202630000000  0.4320030000000 1.0
C      1  0.4648760000000  0.4620200000000  0.4671150000000 1.0
C      1  0.5502840000000  0.4407410000000  0.5772120000000 1.0
C      1  0.4308260000000  0.4806650000000  0.5078750000000 1.0
C      1  0.5546280000000  0.5164950000000  0.4904620000000 1.0
C      1  0.4953650000000  0.5466880000000  0.6230660000000 1.0
C      1  0.6104520000000  0.4919030000000  0.5323260000000 1.0
C      1  0.4758410000000  0.5174630000000  0.4625290000000 1.0
C      1  0.4837280000000  0.5324910000000  0.3880210000000 1.0
C      1  0.5596730000000  0.6103810000000  0.4813510000000 1.0
C      1  0.5293700000000  0.5321630000000  0.4143980000000 1.0
C      1  0.5268250000000  0.4053450000000  0.5634030000000 1.0
C      1  0.5331560000000  0.6158670000000  0.5211140000000 1.0
C      1  0.4990960000000  0.4079480000000  0.4566200000000 1.0
C      1  0.4809760000000  0.6036820000000  0.5315560000000 1.0
C      1  0.4285780000000  0.5100210000000  0.5205320000000 1.0
C      1  0.4294760000000  0.5042090000000  0.5816430000000 1.0
C      1  0.4600220000000  0.6065060000000  0.4502080000000 1.0
C      1  0.5916740000000  0.4806340000000  0.4940090000000 1.0
C      1  0.4925230000000  0.5038570000000  0.5729540000000 1.0
C      1  0.4874800000000  0.3714260000000  0.4833260000000 1.0
C      1  0.5023460000000  0.4974490000000  0.6220870000000 1.0
C      1  0.5323040000000  0.4968500000000  0.6110900000000 1.0
C      1  0.5983050000000  0.4739030000000  0.5526330000000 1.0
C      1  0.4510130000000  0.5593770000000  0.4036040000000 1.0
C      1  0.4237140000000  0.4356060000000  0.5358980000000 1.0
C      1  0.5796600000000  0.5896480000000  0.5218430000000 1.0
C      1  0.4613260000000  0.4714880000000  0.6004780000000 1.0
C      1  0.4808180000000  0.4266850000000  0.4153670000000 1.0
C      1  0.4292740000000  0.5542690000000  0.5532220000000 1.0
C      1  0.3965080000000  0.4698900000000  0.4827860000000 1.0
C      1  0.5099610000000  0.4791130000000  0.5301410000000 1.0
C      1  0.5168480000000  0.5507820000000  0.5461130000000 1.0
C      1  0.4426440000000  0.5708520000000  0.5326770000000 1.0
C      1  0.5557660000000  0.5693450000000  0.4217750000000 1.0
C      1  0.3840700000000  0.5162800000000  0.4920540000000 1.0
C      1  0.4662600000000  0.4878620000000  0.4081750000000 1.0
C      1  0.4746800000000  0.5030460000000  0.5470130000000 1.0
C      1  0.5300730000000  0.5610780000000  0.4067370000000 1.0
C      1  0.4770960000000  0.4289740000000  0.3877460000000 1.0
C      1  0.5193920000000  0.5525580000000  0.4617410000000 1.0
C      1  0.4117770000000  0.4433480000000  0.5626720000000 1.0
C      1  0.5620530000000  0.5485510000000  0.4431950000000 1.0
C      1  0.4232930000000  0.4907710000000  0.4342930000000 1.0
C      1  0.5128670000000  0.5999010000000  0.5407080000000 1.0
C      1  0.4664240000000  0.5808010000000  0.5755010000000 1.0
C      1  0.5916430000000  0.4902200000000  0.4649980000000 1.0
C      1  0.5134640000000  0.4670050000000  0.4506040000000 1.0
C      1  0.5383120000000  0.5133090000000  0.5860200000000 1.0
C      1  0.3932390000000  0.5443800000000  0.4977270000000 1.0
C      1  0.5123160000000  0.4301650000000  0.4760930000000 1.0
C      1  0.4783990000000  0.4891880000000  0.4993400000000 1.0
C      1  0.4083990000000  0.5335480000000  0.4528420000000 1.0
C      1  0.4081890000000  0.4964170000000  0.5637010000000 1.0
C      1  0.6082970000000  0.4722870000000  0.4489170000000 1.0
C      1  0.5313760000000  0.5287350000000  0.5334730000000 1.0
C      1  0.4463980000000  0.5817950000000  0.4509120000000 1.0
C      1  0.5071130000000  0.3812570000000  0.4660810000000 1.0
C      1  0.5689710000000  0.5041370000000  0.5398320000000 1.0
C      1  0.5546320000000  0.4035220000000  0.5532060000000 1.0
C      1  0.5407530000000  0.4722050000000  0.4113020000000 1.0
C      1  0.4904240000000  0.5581610000000  0.4675460000000 1.0
C      1  0.3856740000000  0.4673980000000  0.5295430000000 1.0
C      1  0.5006000000000  0.4494140000000  0.5672190000000 1.0
C      1  0.4532890000000  0.4841260000000  0.4859060000000 1.0
C      1  0.5172300000000  0.6122090000000  0.4948770000000 1.0
C      1  0.5548080000000  0.4617490000000  0.4763590000000 1.0
C      1  0.4246190000000  0.5897700000000  0.5196200000000 1.0
C      1  0.5608500000000  0.5503500000000  0.5673370000000 1.0
C      1  0.3980350000000  0.4694240000000  0.5567600000000 1.0
C      1  0.5810960000000  0.4459660000000  0.4780050000000 1.0
C      1  0.4447500000000  0.4745970000000  0.4224960000000 1.0
C      1  0.5436830000000  0.5736730000000  0.5712680000000 1.0
C      1  0.6167760000000  0.4806430000000  0.5076900000000 1.0
C      1  0.6030070000000  0.5203540000000  0.5308370000000 1.0
C      1  0.5217680000000  0.5006230000000  0.5466540000000 1.0
C      1  0.4809370000000  0.5213290000000  0.4329850000000 1.0
C      1  0.5836340000000  0.5288610000000  0.4367290000000 1.0
C      1  0.5748650000000  0.5084720000000  0.4172380000000 1.0
C      1  0.5191180000000  0.5886990000000  0.5694000000000 1.0
C      1  0.4007050000000  0.4421860000000  0.4922680000000 1.0
C      1  0.5130850000000  0.5291660000000  0.5786520000000 1.0
C      1  0.4448530000000  0.5591070000000  0.5794650000000 1.0
C      1  0.5314750000000  0.5333260000000  0.5029770000000 1.0
C      1  0.5017300000000  0.5198080000000  0.4082890000000 1.0
C      1  0.5888500000000  0.4878760000000  0.5747870000000 1.0
C      1  0.5089320000000  0.4662880000000  0.5888830000000 1.0
C      1  0.4619470000000  0.5881550000000  0.5474420000000 1.0
C      1  0.4329030000000  0.5754460000000  0.4755960000000 1.0
C      1  0.3920540000000  0.5542790000000  0.5238650000000 1.0
C      1  0.4466230000000  0.4106900000000  0.5360310000000 1.0
C      1  0.4714310000000  0.4127860000000  0.5545630000000 1.0
C      1  0.4380260000000  0.5304890000000  0.4958850000000 1.0
C      1  0.5629390000000  0.4842890000000  0.4566260000000 1.0
C      1  0.4394020000000  0.4596040000000  0.5276000000000 1.0
C      1  0.4174640000000  0.5478280000000  0.4797050000000 1.0
C      1  0.5321650000000  0.4473000000000  0.4619720000000 1.0
C      1  0.4949350000000  0.5060250000000  0.4814070000000 1.0
C      1  0.5361700000000  0.4710330000000  0.5971100000000 1.0
C      1  0.3993920000000  0.5157260000000  0.5449640000000 1.0
C      1  0.5366340000000  0.4922820000000  0.3916760000000 1.0
C      1  0.5046580000000  0.5985060000000  0.4272100000000 1.0
C      1  0.5011170000000  0.5315810000000  0.4959590000000 1.0
C      1  0.5242930000000  0.4231500000000  0.5025680000000 1.0
C      1  0.3930610000000  0.4887860000000  0.5059630000000 1.0
C      1  0.4409420000000  0.4916170000000  0.6046400000000 1.0
C      1  0.5741600000000  0.4268110000000  0.5636930000000 1.0
C      1  0.5588170000000  0.5332910000000  0.5420000000000 1.0
C      1  0.4397780000000  0.5957080000000  0.4962170000000 1.0
C      1  0.5325280000000  0.3805950000000  0.5114970000000 1.0
C      1  0.4644420000000  0.5368020000000  0.5731270000000 1.0
C      1  0.4610800000000  0.5451100000000  0.4312300000000 1.0
C      1  0.4809760000000  0.3832910000000  0.5078190000000 1.0
C      1  0.5968270000000  0.5405380000000  0.5100930000000 1.0
C      1  0.5075360000000  0.4952770000000  0.3920660000000 1.0
C      1  0.4479170000000  0.4128680000000  0.4831460000000 1.0
C      1  0.5034870000000  0.4126890000000  0.4269050000000 1.0
C      1  0.4706280000000  0.5984680000000  0.5018960000000 1.0
C      1  0.4494890000000  0.4525180000000  0.4428840000000 1.0
C      1  0.5155720000000  0.4530550000000  0.5425050000000 1.0
C      1  0.4807860000000  0.5369460000000  0.5195680000000 1.0
C      1  0.5801290000000  0.5348390000000  0.4847170000000 1.0
C      1  0.5329370000000  0.3866800000000  0.4791220000000 1.0
C      1  0.4860030000000  0.5723220000000  0.4941510000000 1.0
C      1  0.4840950000000  0.5213030000000  0.6214370000000 1.0
C      1  0.5474750000000  0.4886430000000  0.5580100000000 1.0
C      1  0.4895860000000  0.4759620000000  0.6066070000000 1.0
C      1  0.5653690000000  0.5614340000000  0.4715830000000 1.0
C      1  0.4675340000000  0.4555870000000  0.5322400000000 1.0
C      1  0.5296800000000  0.4216090000000  0.5857610000000 1.0
C      1  0.5663410000000  0.4939330000000  0.5087830000000 1.0
C      1  0.4958580000000  0.5709270000000  0.5777890000000 1.0
C      1  0.4623450000000  0.4083060000000  0.5098100000000 1.0
C      1  0.5724480000000  0.4449170000000  0.4328130000000 1.0
C      1  0.5153110000000  0.5801230000000  0.4994210000000 1.0
C      1  0.5350290000000  0.5601870000000  0.4852660000000 1.0
C      1  0.5440860000000  0.4569040000000  0.5508690000000 1.0
C      1  0.4819530000000  0.4821820000000  0.5273680000000 1.0
C      1  0.5021650000000  0.4058180000000  0.5442990000000 1.0
C      1  0.5702800000000  0.4187620000000  0.4847390000000 1.0
C      1  0.4799450000000  0.5615520000000  0.3946840000000 1.0
C      1  0.5262300000000  0.4290670000000  0.4209710000000 1.0
END
