TITL C-950533-5798-345 5.4346118171471e-07 125000 -418.951156590477 0 0 68 (C1) n - 1
REM
REM in /home/bkarasulu/work/CARBON/AIRSS/Generating-Clusters/EDIP-Nigel-Params/with-SteepDescent/Only-C1/SD-CG/HFTN-CG
REM
REM
REM
REM
REM
REM ./C.cell (11c1c37f851c82e70ff6c80c92926a4b)
REM
REM compiler GCC version 9.2.1 20190827 (Red Hat 9.2.1-1)
REM options -cpp -mtune=generic -march=x86-64 -g -O0 -fpre-include=/usr/include/finclude/math-vector-fortran.h
REM seed -593963486 1989413222 1658981444 1509109406 597321307 -1454297054 -148936434 -1461350023 1964613626 1932228679 1081796168 864792818 723591455 1452350764 901102521 1610875006 1449594339 -2010920509 -1645607916 -975915571 742938323 -371004914 -1359809653 -489644641 1305110401 -968056152 2031515156 -1404926806 1905902176 -694312320 632083098 -1006106391 394885280
REM
CELL 1.54180   50.00000   50.00000   50.00000   90.00000   90.00000   90.00000
LATT -1
SFAC C  
C      1  0.4770770000000  0.4586920000000  0.4991180000000 1.0
C      1  0.5499650000000  0.5003500000000  0.5342930000000 1.0
C      1  0.4924720000000  0.4927250000000  0.5795970000000 1.0
C      1  0.5281800000000  0.4229950000000  0.5115050000000 1.0
C      1  0.5499860000000  0.5246510000000  0.4543640000000 1.0
C      1  0.5628930000000  0.4842070000000  0.5121700000000 1.0
C      1  0.4671760000000  0.4507820000000  0.5274730000000 1.0
C      1  0.4865780000000  0.4692640000000  0.4524780000000 1.0
C      1  0.4629260000000  0.4849970000000  0.4962280000000 1.0
C      1  0.4984170000000  0.4936890000000  0.5350150000000 1.0
C      1  0.4284880000000  0.4913410000000  0.4517410000000 1.0
C      1  0.5306270000000  0.4652700000000  0.5629390000000 1.0
C      1  0.4580250000000  0.5445340000000  0.4705140000000 1.0
C      1  0.5508130000000  0.4367210000000  0.5238530000000 1.0
C      1  0.5069550000000  0.4695620000000  0.4938790000000 1.0
C      1  0.5585360000000  0.4984420000000  0.4646080000000 1.0
C      1  0.5069950000000  0.5206970000000  0.5480860000000 1.0
C      1  0.4756290000000  0.4837840000000  0.4282640000000 1.0
C      1  0.5698500000000  0.5029370000000  0.4911680000000 1.0
C      1  0.4785250000000  0.5610970000000  0.4557910000000 1.0
C      1  0.5155820000000  0.5176450000000  0.5016680000000 1.0
C      1  0.4536210000000  0.4749000000000  0.5390350000000 1.0
C      1  0.5219620000000  0.5359970000000  0.5247210000000 1.0
C      1  0.4899050000000  0.4434030000000  0.5436210000000 1.0
C      1  0.5486370000000  0.4716040000000  0.4578250000000 1.0
C      1  0.4250150000000  0.4860750000000  0.5007220000000 1.0
C      1  0.4415920000000  0.5205810000000  0.5500220000000 1.0
C      1  0.4864500000000  0.5607930000000  0.5674230000000 1.0
C      1  0.4837010000000  0.4389650000000  0.4560150000000 1.0
C      1  0.5522170000000  0.5442820000000  0.4760860000000 1.0
C      1  0.5313200000000  0.5268410000000  0.4338400000000 1.0
C      1  0.4563070000000  0.5250890000000  0.5245130000000 1.0
C      1  0.5655360000000  0.5314110000000  0.4996570000000 1.0
C      1  0.5077580000000  0.4264310000000  0.4637530000000 1.0
C      1  0.4257860000000  0.4805850000000  0.5298860000000 1.0
C      1  0.5016790000000  0.5728190000000  0.5485310000000 1.0
C      1  0.5104680000000  0.5645550000000  0.5232430000000 1.0
C      1  0.5013710000000  0.4698980000000  0.5565440000000 1.0
C      1  0.4888920000000  0.5484930000000  0.4330370000000 1.0
C      1  0.5292750000000  0.4295600000000  0.4819740000000 1.0
C      1  0.4926580000000  0.5037370000000  0.4188560000000 1.0
C      1  0.4569610000000  0.5162150000000  0.4588020000000 1.0
C      1  0.4652800000000  0.4404220000000  0.4783250000000 1.0
C      1  0.5526550000000  0.5726560000000  0.4719600000000 1.0
C      1  0.4698840000000  0.5123830000000  0.5742570000000 1.0
C      1  0.5185490000000  0.5903790000000  0.4689110000000 1.0
C      1  0.4199110000000  0.5027330000000  0.5468400000000 1.0
C      1  0.4893160000000  0.5672350000000  0.5025810000000 1.0
C      1  0.5519360000000  0.4488640000000  0.4766800000000 1.0
C      1  0.5193090000000  0.4900990000000  0.5128290000000 1.0
C      1  0.5118050000000  0.4771050000000  0.4658910000000 1.0
C      1  0.5059690000000  0.4253520000000  0.5288990000000 1.0
C      1  0.4266030000000  0.4734530000000  0.4743900000000 1.0
C      1  0.5460830000000  0.4465360000000  0.5494500000000 1.0
C      1  0.4825870000000  0.5342050000000  0.5586500000000 1.0
C      1  0.4476080000000  0.4914950000000  0.4301310000000 1.0
C      1  0.4901160000000  0.5207340000000  0.4896620000000 1.0
C      1  0.5197400000000  0.5086100000000  0.5730880000000 1.0
C      1  0.5396410000000  0.5861570000000  0.4515470000000 1.0
C      1  0.4688710000000  0.4968900000000  0.5239900000000 1.0
C      1  0.5520100000000  0.5305310000000  0.5273790000000 1.0
C      1  0.5420630000000  0.4919280000000  0.5629550000000 1.0
C      1  0.5052530000000  0.5277570000000  0.4243760000000 1.0
C      1  0.4717290000000  0.5422540000000  0.4988050000000 1.0
C      1  0.4984970000000  0.5709820000000  0.4750320000000 1.0
C      1  0.4765870000000  0.4997940000000  0.4745230000000 1.0
C      1  0.5614550000000  0.4557730000000  0.5041550000000 1.0
C      1  0.4397350000000  0.4490560000000  0.4718330000000 1.0
END
