TITL C-951344-124-675 1.70342161785965e-07 125000 -634.248911333492 0 0 104 (C1) n - 1
REM
REM in /home/bkarasulu/work/CARBON/AIRSS/Generating-Clusters/EDIP-Nigel-Params/with-SteepDescent/Only-C1/SD-CG/HFTN-CG
REM
REM
REM
REM
REM
REM ./C.cell (11c1c37f851c82e70ff6c80c92926a4b)
REM
REM compiler GCC version 9.2.1 20190827 (Red Hat 9.2.1-1)
REM options -cpp -mtune=generic -march=x86-64 -g -O0 -fpre-include=/usr/include/finclude/math-vector-fortran.h
REM seed 640197849 -600187965 1196790354 1820794341 1584057161 -903464939 1436942797 10462662 317560539 -861941023 -737662353 -1315298902 -1215500247 -1237875413 -1653346442 692130587 705111370 -2109798003 1493540238 -1608429818 549998953 1621502653 -1782299213 -1536150772 -34674003 837645764 -1650444317 1889456761 -65881049 1876250688 -1667076547 -264863600 -687147571
REM
CELL 1.54180   50.00000   50.00000   50.00000   90.00000   90.00000   90.00000
LATT -1
SFAC C  
C      1  0.4946550000000  0.5508430000000  0.5743780000000 1.0
C      1  0.4885660000000  0.4875570000000  0.4353840000000 1.0
C      1  0.5368030000000  0.4692700000000  0.4366270000000 1.0
C      1  0.4167480000000  0.4982260000000  0.4755370000000 1.0
C      1  0.5699430000000  0.5453250000000  0.5488160000000 1.0
C      1  0.5575680000000  0.4298140000000  0.4643020000000 1.0
C      1  0.4062370000000  0.4921460000000  0.5004220000000 1.0
C      1  0.5775900000000  0.4653480000000  0.5452990000000 1.0
C      1  0.4686340000000  0.5470200000000  0.4116050000000 1.0
C      1  0.4293630000000  0.4924980000000  0.5450330000000 1.0
C      1  0.5011310000000  0.4408300000000  0.4567060000000 1.0
C      1  0.5072150000000  0.4378190000000  0.5558510000000 1.0
C      1  0.4854120000000  0.5270770000000  0.4052550000000 1.0
C      1  0.4954690000000  0.4023810000000  0.5175680000000 1.0
C      1  0.5337970000000  0.4431530000000  0.5467260000000 1.0
C      1  0.4827870000000  0.5353270000000  0.4615990000000 1.0
C      1  0.4565880000000  0.4343790000000  0.5313410000000 1.0
C      1  0.5231350000000  0.4879490000000  0.5427990000000 1.0
C      1  0.4705720000000  0.4218950000000  0.4282950000000 1.0
C      1  0.4616960000000  0.4691350000000  0.5135800000000 1.0
C      1  0.4540720000000  0.5544480000000  0.4342170000000 1.0
C      1  0.5564510000000  0.5573170000000  0.5020350000000 1.0
C      1  0.5713080000000  0.5502430000000  0.4782350000000 1.0
C      1  0.5816440000000  0.4975240000000  0.4795420000000 1.0
C      1  0.5456090000000  0.4322080000000  0.4934150000000 1.0
C      1  0.5479850000000  0.5143400000000  0.5059690000000 1.0
C      1  0.5234350000000  0.5499480000000  0.5102530000000 1.0
C      1  0.4685200000000  0.4124300000000  0.5143120000000 1.0
C      1  0.4649200000000  0.4695810000000  0.4270030000000 1.0
C      1  0.5413490000000  0.4813590000000  0.5773860000000 1.0
C      1  0.4668650000000  0.4981490000000  0.5742900000000 1.0
C      1  0.4436260000000  0.5350650000000  0.5447570000000 1.0
C      1  0.4429030000000  0.5110110000000  0.4283050000000 1.0
C      1  0.5923220000000  0.4782390000000  0.5242330000000 1.0
C      1  0.5442320000000  0.5464750000000  0.4347720000000 1.0
C      1  0.4265590000000  0.5307010000000  0.5216870000000 1.0
C      1  0.5006840000000  0.5735380000000  0.5586280000000 1.0
C      1  0.4546620000000  0.5127180000000  0.4926760000000 1.0
C      1  0.5469050000000  0.4963680000000  0.4348480000000 1.0
C      1  0.5137750000000  0.5344420000000  0.4637800000000 1.0
C      1  0.5056400000000  0.5809100000000  0.4851990000000 1.0
C      1  0.4445470000000  0.5104340000000  0.5617070000000 1.0
C      1  0.5420060000000  0.5487590000000  0.5570910000000 1.0
C      1  0.5362580000000  0.5308800000000  0.5813910000000 1.0
C      1  0.4332710000000  0.4335060000000  0.4889630000000 1.0
C      1  0.5330910000000  0.5710600000000  0.4442020000000 1.0
C      1  0.5491740000000  0.4929110000000  0.5277640000000 1.0
C      1  0.4584690000000  0.4999320000000  0.5216090000000 1.0
C      1  0.5090910000000  0.4650440000000  0.5280650000000 1.0
C      1  0.4731740000000  0.5055220000000  0.4558220000000 1.0
C      1  0.4408470000000  0.4841000000000  0.4341020000000 1.0
C      1  0.5906960000000  0.5076880000000  0.5265740000000 1.0
C      1  0.5108050000000  0.4695090000000  0.4508280000000 1.0
C      1  0.5527730000000  0.4671460000000  0.5092350000000 1.0
C      1  0.5548670000000  0.4504050000000  0.4459980000000 1.0
C      1  0.5143810000000  0.4835610000000  0.4783560000000 1.0
C      1  0.5807540000000  0.4724600000000  0.4959190000000 1.0
C      1  0.5341420000000  0.4155300000000  0.4721610000000 1.0
C      1  0.4395450000000  0.5321950000000  0.4455450000000 1.0
C      1  0.4358740000000  0.4504170000000  0.5144580000000 1.0
C      1  0.5302980000000  0.5845630000000  0.5250810000000 1.0
C      1  0.4848390000000  0.4919710000000  0.4813840000000 1.0
C      1  0.5037310000000  0.3767630000000  0.5085620000000 1.0
C      1  0.5223700000000  0.4625520000000  0.5000980000000 1.0
C      1  0.5533580000000  0.4601230000000  0.5593060000000 1.0
C      1  0.4833230000000  0.4527730000000  0.5614630000000 1.0
C      1  0.4271510000000  0.5463540000000  0.4961140000000 1.0
C      1  0.4603420000000  0.4191860000000  0.4865430000000 1.0
C      1  0.5578250000000  0.5064580000000  0.4609980000000 1.0
C      1  0.4275240000000  0.4483840000000  0.4641200000000 1.0
C      1  0.4540550000000  0.5812630000000  0.4737230000000 1.0
C      1  0.5723410000000  0.5151530000000  0.5503770000000 1.0
C      1  0.4860730000000  0.4774220000000  0.5764270000000 1.0
C      1  0.5128160000000  0.4823530000000  0.5840500000000 1.0
C      1  0.4934910000000  0.5364040000000  0.5093710000000 1.0
C      1  0.5017610000000  0.5080030000000  0.4167570000000 1.0
C      1  0.5032980000000  0.3814660000000  0.5351080000000 1.0
C      1  0.5292670000000  0.5760790000000  0.5529560000000 1.0
C      1  0.4716100000000  0.5385210000000  0.4899230000000 1.0
C      1  0.5072350000000  0.5255170000000  0.5752560000000 1.0
C      1  0.4146710000000  0.5047890000000  0.5236770000000 1.0
C      1  0.5641380000000  0.5351430000000  0.4543560000000 1.0
C      1  0.5550150000000  0.5078550000000  0.5762130000000 1.0
C      1  0.4589600000000  0.4443750000000  0.4429820000000 1.0
C      1  0.5208220000000  0.5634250000000  0.4682190000000 1.0
C      1  0.4498430000000  0.5616130000000  0.5505630000000 1.0
C      1  0.4742450000000  0.4427680000000  0.4705200000000 1.0
C      1  0.5297900000000  0.5322910000000  0.5349380000000 1.0
C      1  0.5735350000000  0.5572840000000  0.5240960000000 1.0
C      1  0.5086520000000  0.5140950000000  0.5464900000000 1.0
C      1  0.4247270000000  0.5270250000000  0.4713610000000 1.0
C      1  0.5048830000000  0.5896720000000  0.5123930000000 1.0
C      1  0.4589790000000  0.5813940000000  0.5340440000000 1.0
C      1  0.4526140000000  0.5622940000000  0.4944480000000 1.0
C      1  0.5781390000000  0.5192890000000  0.5005370000000 1.0
C      1  0.4971370000000  0.4238970000000  0.4345340000000 1.0
C      1  0.4715750000000  0.4675470000000  0.4866740000000 1.0
C      1  0.4869570000000  0.5786100000000  0.5332470000000 1.0
C      1  0.4292320000000  0.4770560000000  0.4597520000000 1.0
C      1  0.4854210000000  0.5158490000000  0.5281650000000 1.0
C      1  0.5264870000000  0.5192480000000  0.4305940000000 1.0
C      1  0.4591880000000  0.4388990000000  0.5597030000000 1.0
C      1  0.4688240000000  0.5687890000000  0.4537460000000 1.0
C      1  0.5323150000000  0.5094210000000  0.4786770000000 1.0
END
