TITL C-950530-3293-117 -2.24669635270708e-06 125000 -633.029589508081 0 0 101 (C1) n - 1
REM
REM in /home/bkarasulu/work/CARBON/AIRSS/Generating-Clusters/EDIP-Nigel-Params/with-SteepDescent/Only-C1/SD-CG/HFTN-CG
REM
REM
REM
REM
REM
REM ./C.cell (11c1c37f851c82e70ff6c80c92926a4b)
REM
REM compiler GCC version 9.2.1 20190827 (Red Hat 9.2.1-1)
REM options -cpp -mtune=generic -march=x86-64 -g -O0 -fpre-include=/usr/include/finclude/math-vector-fortran.h
REM seed 701747153 -1557986965 -1213819183 1073818601 389527408 -84557908 -1085674719 313725150 -2110614532 445233399 1634812546 270259755 1695149598 798958575 -202265883 -1536921461 1655121943 -1888682882 -1281355948 -1718517884 -2057668063 1443970272 -2003144232 -1673903782 -2091821197 -1022300458 634818049 1586299874 -1622238665 -621305760 -1144328052 988616085 2076175124
REM
CELL 1.54180   50.00000   50.00000   50.00000   90.00000   90.00000   90.00000
LATT -1
SFAC C  
C      1  0.4767710000000  0.4624370000000  0.4953100000000 1.0
C      1  0.4967850000000  0.5712780000000  0.5679970000000 1.0
C      1  0.5632470000000  0.5299390000000  0.4383570000000 1.0
C      1  0.5851570000000  0.5428730000000  0.4894760000000 1.0
C      1  0.4823210000000  0.5669560000000  0.4268540000000 1.0
C      1  0.5237340000000  0.4801950000000  0.5237380000000 1.0
C      1  0.5656680000000  0.5597840000000  0.4770440000000 1.0
C      1  0.5446660000000  0.4100550000000  0.4907480000000 1.0
C      1  0.5229270000000  0.5824330000000  0.4956200000000 1.0
C      1  0.5841340000000  0.4605400000000  0.5130560000000 1.0
C      1  0.4854790000000  0.4459540000000  0.5384340000000 1.0
C      1  0.4487590000000  0.4685000000000  0.5738610000000 1.0
C      1  0.5051150000000  0.4531230000000  0.4853460000000 1.0
C      1  0.4276330000000  0.4868050000000  0.4291810000000 1.0
C      1  0.4740720000000  0.5102320000000  0.5020550000000 1.0
C      1  0.4775500000000  0.4209920000000  0.5238290000000 1.0
C      1  0.4964460000000  0.5137390000000  0.4498730000000 1.0
C      1  0.4817880000000  0.4780570000000  0.4159620000000 1.0
C      1  0.4818500000000  0.4879450000000  0.4533140000000 1.0
C      1  0.5493350000000  0.5704440000000  0.4991790000000 1.0
C      1  0.5352450000000  0.4941670000000  0.4439800000000 1.0
C      1  0.5010960000000  0.5234480000000  0.4231160000000 1.0
C      1  0.4745790000000  0.5779810000000  0.5022190000000 1.0
C      1  0.5310910000000  0.4202770000000  0.4677950000000 1.0
C      1  0.5295700000000  0.4845860000000  0.5797600000000 1.0
C      1  0.5784650000000  0.4844730000000  0.4522920000000 1.0
C      1  0.4839620000000  0.5367320000000  0.4934970000000 1.0
C      1  0.4759510000000  0.5540850000000  0.5563280000000 1.0
C      1  0.5776350000000  0.4477700000000  0.5366070000000 1.0
C      1  0.5360060000000  0.4378060000000  0.5287760000000 1.0
C      1  0.4183480000000  0.5271530000000  0.4901910000000 1.0
C      1  0.5448670000000  0.5434320000000  0.5696370000000 1.0
C      1  0.5284020000000  0.5209770000000  0.4855540000000 1.0
C      1  0.5645020000000  0.4881990000000  0.4798500000000 1.0
C      1  0.5694300000000  0.5065450000000  0.5193390000000 1.0
C      1  0.4748470000000  0.4236650000000  0.4644780000000 1.0
C      1  0.4361950000000  0.4532570000000  0.5550810000000 1.0
C      1  0.5694470000000  0.4536210000000  0.4616920000000 1.0
C      1  0.4735630000000  0.5089330000000  0.5324050000000 1.0
C      1  0.4185270000000  0.5038540000000  0.4726470000000 1.0
C      1  0.5507250000000  0.5508260000000  0.4530780000000 1.0
C      1  0.4722690000000  0.4755690000000  0.5876500000000 1.0
C      1  0.5004290000000  0.4097170000000  0.5062720000000 1.0
C      1  0.5371430000000  0.4965590000000  0.4741470000000 1.0
C      1  0.5065920000000  0.5524910000000  0.4266210000000 1.0
C      1  0.4225860000000  0.5093060000000  0.4446990000000 1.0
C      1  0.5009080000000  0.4625160000000  0.4549990000000 1.0
C      1  0.4410580000000  0.4545360000000  0.5265460000000 1.0
C      1  0.5192760000000  0.5050320000000  0.4105080000000 1.0
C      1  0.5023130000000  0.5433950000000  0.5167530000000 1.0
C      1  0.4359260000000  0.4565960000000  0.4680390000000 1.0
C      1  0.5166990000000  0.5769410000000  0.5457990000000 1.0
C      1  0.4575090000000  0.4411700000000  0.4829940000000 1.0
C      1  0.4569030000000  0.5438240000000  0.5748950000000 1.0
C      1  0.4814600000000  0.5033950000000  0.5838770000000 1.0
C      1  0.4676940000000  0.5678450000000  0.4508560000000 1.0
C      1  0.5895240000000  0.4875150000000  0.5162020000000 1.0
C      1  0.4307550000000  0.5352740000000  0.4378140000000 1.0
C      1  0.4589650000000  0.5076550000000  0.5603750000000 1.0
C      1  0.5295000000000  0.5285550000000  0.5145420000000 1.0
C      1  0.5238510000000  0.5341830000000  0.5855960000000 1.0
C      1  0.4317610000000  0.5409770000000  0.5343250000000 1.0
C      1  0.4820530000000  0.5804300000000  0.4731350000000 1.0
C      1  0.4929850000000  0.4570810000000  0.5895530000000 1.0
C      1  0.4658630000000  0.4567180000000  0.4270760000000 1.0
C      1  0.4350370000000  0.5502110000000  0.4834090000000 1.0
C      1  0.5514890000000  0.4835560000000  0.5600940000000 1.0
C      1  0.4735290000000  0.4883960000000  0.4828670000000 1.0
C      1  0.5022960000000  0.4234060000000  0.4796040000000 1.0
C      1  0.5132050000000  0.4551180000000  0.5443880000000 1.0
C      1  0.4850470000000  0.4401560000000  0.4420370000000 1.0
C      1  0.5624000000000  0.4604440000000  0.4929660000000 1.0
C      1  0.5292950000000  0.4115280000000  0.5149550000000 1.0
C      1  0.4166860000000  0.5224930000000  0.5184880000000 1.0
C      1  0.4125300000000  0.4960040000000  0.5263080000000 1.0
C      1  0.5165660000000  0.4589140000000  0.5745640000000 1.0
C      1  0.4692680000000  0.4657370000000  0.5246000000000 1.0
C      1  0.5113240000000  0.5810340000000  0.4687190000000 1.0
C      1  0.4882900000000  0.5334790000000  0.5397310000000 1.0
C      1  0.4362970000000  0.5300300000000  0.5608830000000 1.0
C      1  0.4500440000000  0.4283250000000  0.5102470000000 1.0
C      1  0.5060140000000  0.5325840000000  0.4707350000000 1.0
C      1  0.5431880000000  0.5003100000000  0.5348340000000 1.0
C      1  0.5032560000000  0.5741220000000  0.5169640000000 1.0
C      1  0.5253340000000  0.4653480000000  0.4378940000000 1.0
C      1  0.5196940000000  0.5555670000000  0.4541070000000 1.0
C      1  0.5504460000000  0.5499590000000  0.5205990000000 1.0
C      1  0.5113120000000  0.5081350000000  0.5791510000000 1.0
C      1  0.4443110000000  0.5515520000000  0.4561770000000 1.0
C      1  0.5108070000000  0.4770410000000  0.4120000000000 1.0
C      1  0.4215480000000  0.4765190000000  0.4840650000000 1.0
C      1  0.4528670000000  0.5566860000000  0.5062240000000 1.0
C      1  0.5070330000000  0.5561860000000  0.5897610000000 1.0
C      1  0.5625640000000  0.5018310000000  0.4342920000000 1.0
C      1  0.5426500000000  0.5611550000000  0.5478340000000 1.0
C      1  0.4440750000000  0.4682410000000  0.4424770000000 1.0
C      1  0.5435270000000  0.4428370000000  0.4509320000000 1.0
C      1  0.5328300000000  0.4583980000000  0.5045580000000 1.0
C      1  0.5756110000000  0.5347220000000  0.5150830000000 1.0
C      1  0.5584600000000  0.4554870000000  0.5546720000000 1.0
C      1  0.4212570000000  0.4731440000000  0.5129550000000 1.0
END
