TITL C-951333-8791-398 2.45274645965085e-06 125000 -504.303727398926 0 0 81 (C1) n - 1
REM
REM in /home/bkarasulu/work/CARBON/AIRSS/Generating-Clusters/EDIP-Nigel-Params/with-SteepDescent/Only-C1/SD-CG/HFTN-CG
REM
REM
REM
REM
REM
REM ./C.cell (11c1c37f851c82e70ff6c80c92926a4b)
REM
REM compiler GCC version 9.2.1 20190827 (Red Hat 9.2.1-1)
REM options -cpp -mtune=generic -march=x86-64 -g -O0 -fpre-include=/usr/include/finclude/math-vector-fortran.h
REM seed 117526115 -1111863968 2074436860 -313063805 -1468190003 -1044983643 -780142511 1899160028 297355818 1301000039 -594153378 -596578289 1279433588 285549593 2144062948 -2111885900 222476577 273205115 41525781 -1961985584 -1108723742 1772245339 -1560770321 -903948678 -1205570918 1265901216 -170461324 257777437 1455039515 -353169440 700845347 -705526961 86223124
REM
CELL 1.54180   50.00000   50.00000   50.00000   90.00000   90.00000   90.00000
LATT -1
SFAC C  
C      1  0.5507510000000  0.5215340000000  0.5224160000000 1.0
C      1  0.4968000000000  0.4911660000000  0.5780830000000 1.0
C      1  0.4795460000000  0.5171420000000  0.5743000000000 1.0
C      1  0.5577080000000  0.4996050000000  0.4349660000000 1.0
C      1  0.5181680000000  0.4616750000000  0.5367900000000 1.0
C      1  0.4921230000000  0.4236540000000  0.5391280000000 1.0
C      1  0.4769360000000  0.4659000000000  0.4272720000000 1.0
C      1  0.5565710000000  0.5212130000000  0.4576410000000 1.0
C      1  0.4576780000000  0.4918670000000  0.5010090000000 1.0
C      1  0.4851870000000  0.4627600000000  0.5708470000000 1.0
C      1  0.5291550000000  0.4703730000000  0.4095190000000 1.0
C      1  0.4940630000000  0.5415640000000  0.5634200000000 1.0
C      1  0.5222580000000  0.5796640000000  0.5245880000000 1.0
C      1  0.5628930000000  0.5155120000000  0.5489190000000 1.0
C      1  0.5060210000000  0.5392160000000  0.4417900000000 1.0
C      1  0.4980830000000  0.4510620000000  0.4415340000000 1.0
C      1  0.4359640000000  0.4708930000000  0.4939940000000 1.0
C      1  0.5413440000000  0.5198850000000  0.5693450000000 1.0
C      1  0.4882020000000  0.5707620000000  0.4760760000000 1.0
C      1  0.4976250000000  0.5136510000000  0.4882010000000 1.0
C      1  0.5178240000000  0.4907880000000  0.5449670000000 1.0
C      1  0.5249500000000  0.4539400000000  0.4319760000000 1.0
C      1  0.4354710000000  0.5208940000000  0.5435340000000 1.0
C      1  0.4493960000000  0.5281940000000  0.4900390000000 1.0
C      1  0.4759300000000  0.5708490000000  0.5037260000000 1.0
C      1  0.4757420000000  0.4947750000000  0.4785060000000 1.0
C      1  0.4225730000000  0.5044520000000  0.5243240000000 1.0
C      1  0.4552420000000  0.5105950000000  0.5608510000000 1.0
C      1  0.4648820000000  0.5438220000000  0.5118470000000 1.0
C      1  0.4602770000000  0.5328000000000  0.4618800000000 1.0
C      1  0.5227340000000  0.5407760000000  0.5563610000000 1.0
C      1  0.5335660000000  0.5673000000000  0.5484400000000 1.0
C      1  0.4448000000000  0.5470360000000  0.5342140000000 1.0
C      1  0.5300280000000  0.5123740000000  0.4671730000000 1.0
C      1  0.5548810000000  0.4426150000000  0.5031690000000 1.0
C      1  0.5764720000000  0.5135440000000  0.4793110000000 1.0
C      1  0.4597230000000  0.4621450000000  0.5593160000000 1.0
C      1  0.4788260000000  0.4961890000000  0.4297380000000 1.0
C      1  0.4398870000000  0.4468090000000  0.5118390000000 1.0
C      1  0.4424870000000  0.4372680000000  0.4523870000000 1.0
C      1  0.5446010000000  0.4524440000000  0.4535750000000 1.0
C      1  0.5763790000000  0.4663890000000  0.5025560000000 1.0
C      1  0.5242520000000  0.5362770000000  0.5260020000000 1.0
C      1  0.5312490000000  0.4963670000000  0.4201170000000 1.0
C      1  0.4909020000000  0.4304950000000  0.4615940000000 1.0
C      1  0.4854320000000  0.5458690000000  0.4613180000000 1.0
C      1  0.4137770000000  0.4889350000000  0.5020000000000 1.0
C      1  0.5060780000000  0.5103440000000  0.4304070000000 1.0
C      1  0.4321860000000  0.4958850000000  0.4574870000000 1.0
C      1  0.5274660000000  0.5611720000000  0.4499330000000 1.0
C      1  0.5774440000000  0.4910840000000  0.5510680000000 1.0
C      1  0.4616150000000  0.4304240000000  0.4997430000000 1.0
C      1  0.4984160000000  0.4617150000000  0.5133620000000 1.0
C      1  0.4804600000000  0.5656420000000  0.5529060000000 1.0
C      1  0.4941290000000  0.5252810000000  0.5170090000000 1.0
C      1  0.4202730000000  0.5311960000000  0.4884460000000 1.0
C      1  0.4517960000000  0.4554480000000  0.4344840000000 1.0
C      1  0.5223950000000  0.4967520000000  0.4897980000000 1.0
C      1  0.5713560000000  0.4842100000000  0.4798360000000 1.0
C      1  0.5327910000000  0.4467360000000  0.4821590000000 1.0
C      1  0.4523750000000  0.5649570000000  0.5544970000000 1.0
C      1  0.5649050000000  0.4743870000000  0.4525010000000 1.0
C      1  0.4899850000000  0.4323590000000  0.5107260000000 1.0
C      1  0.4135900000000  0.5056350000000  0.4774850000000 1.0
C      1  0.5549790000000  0.5517580000000  0.4582040000000 1.0
C      1  0.5168220000000  0.5773750000000  0.4739220000000 1.0
C      1  0.5145260000000  0.4694090000000  0.4899010000000 1.0
C      1  0.4445870000000  0.4540530000000  0.5386210000000 1.0
C      1  0.4893790000000  0.5025810000000  0.5372020000000 1.0
C      1  0.4919710000000  0.5799450000000  0.5279420000000 1.0
C      1  0.5690800000000  0.5329510000000  0.5017330000000 1.0
C      1  0.5466410000000  0.4525700000000  0.5318290000000 1.0
C      1  0.5096610000000  0.4256740000000  0.4847120000000 1.0
C      1  0.4756240000000  0.4807250000000  0.5225800000000 1.0
C      1  0.5034760000000  0.4441700000000  0.5558120000000 1.0
C      1  0.4634340000000  0.4326070000000  0.4707280000000 1.0
C      1  0.5276510000000  0.4940130000000  0.5740700000000 1.0
C      1  0.5312640000000  0.5687030000000  0.4979020000000 1.0
C      1  0.5664050000000  0.4755970000000  0.5300600000000 1.0
C      1  0.5572610000000  0.5577440000000  0.4881660000000 1.0
C      1  0.4606240000000  0.5038600000000  0.4541720000000 1.0
END
