TITL C-950534-5965-449 -3.74512738440366e-07 125000 -1025.03953155199 0 0 164 (C1) n - 1
REM
REM in /home/bkarasulu/work/CARBON/AIRSS/Generating-Clusters/EDIP-Nigel-Params/with-SteepDescent/Only-C1/SD-CG/HFTN-CG
REM
REM
REM
REM
REM
REM ./C.cell (11c1c37f851c82e70ff6c80c92926a4b)
REM
REM compiler GCC version 9.2.1 20190827 (Red Hat 9.2.1-1)
REM options -cpp -mtune=generic -march=x86-64 -g -O0 -fpre-include=/usr/include/finclude/math-vector-fortran.h
REM seed -1406264501 986289957 -304524526 -1525981344 -1401794664 426114387 -151942258 -571155160 -1476850979 -2019153808 -90135555 1894227228 -1986648316 -2111971567 1452473031 -839491488 -2124706063 373700351 1990800024 -1840100501 127516254 -1137167863 -1486405205 1756296129 1124794589 1531821245 -949600749 -1125342405 -431078401 771119440 -1895171366 1770806076 1794992292
REM
CELL 1.54180   50.00000   50.00000   50.00000   90.00000   90.00000   90.00000
LATT -1
SFAC C  
C      1  0.5067640000000  0.5505380000000  0.3952270000000 1.0
C      1  0.4570900000000  0.4416400000000  0.4519550000000 1.0
C      1  0.4238760000000  0.5724300000000  0.5106380000000 1.0
C      1  0.5363580000000  0.4769050000000  0.5560820000000 1.0
C      1  0.4485810000000  0.4759810000000  0.3955810000000 1.0
C      1  0.3986390000000  0.5153090000000  0.4390140000000 1.0
C      1  0.5278180000000  0.5934370000000  0.4778820000000 1.0
C      1  0.4350830000000  0.5304710000000  0.4797290000000 1.0
C      1  0.4802610000000  0.5987170000000  0.4912010000000 1.0
C      1  0.5495660000000  0.5643920000000  0.4105230000000 1.0
C      1  0.5848560000000  0.5049920000000  0.4372150000000 1.0
C      1  0.4114920000000  0.5070030000000  0.5635280000000 1.0
C      1  0.4154980000000  0.4695380000000  0.4453950000000 1.0
C      1  0.5782940000000  0.5593720000000  0.4492820000000 1.0
C      1  0.5709800000000  0.4761980000000  0.5160710000000 1.0
C      1  0.4846340000000  0.4074150000000  0.4286820000000 1.0
C      1  0.5336770000000  0.5865560000000  0.4500080000000 1.0
C      1  0.4588220000000  0.4483410000000  0.4007400000000 1.0
C      1  0.5353210000000  0.4470860000000  0.5516870000000 1.0
C      1  0.4979010000000  0.5187500000000  0.5947090000000 1.0
C      1  0.4777840000000  0.5604260000000  0.5777180000000 1.0
C      1  0.4470720000000  0.4877490000000  0.4511710000000 1.0
C      1  0.5617000000000  0.4893690000000  0.5439040000000 1.0
C      1  0.4445430000000  0.4199800000000  0.4648450000000 1.0
C      1  0.4680080000000  0.5490090000000  0.5016690000000 1.0
C      1  0.4514080000000  0.4382810000000  0.5508830000000 1.0
C      1  0.5799800000000  0.4236730000000  0.5186330000000 1.0
C      1  0.5634020000000  0.4470520000000  0.5082180000000 1.0
C      1  0.4905290000000  0.4279410000000  0.4997920000000 1.0
C      1  0.4662700000000  0.5389540000000  0.5287640000000 1.0
C      1  0.4107110000000  0.5341230000000  0.5514850000000 1.0
C      1  0.6034920000000  0.4976760000000  0.4853340000000 1.0
C      1  0.5212470000000  0.5740820000000  0.4055940000000 1.0
C      1  0.5431750000000  0.5266690000000  0.5932670000000 1.0
C      1  0.5007750000000  0.5512870000000  0.4725210000000 1.0
C      1  0.5467820000000  0.5161420000000  0.5203530000000 1.0
C      1  0.5406500000000  0.4473660000000  0.4327620000000 1.0
C      1  0.5292310000000  0.4246840000000  0.4196940000000 1.0
C      1  0.5874290000000  0.5496660000000  0.5221450000000 1.0
C      1  0.5483270000000  0.5343870000000  0.4146110000000 1.0
C      1  0.4581690000000  0.4236850000000  0.4283690000000 1.0
C      1  0.3845860000000  0.4923200000000  0.5103690000000 1.0
C      1  0.5245420000000  0.5069950000000  0.6019630000000 1.0
C      1  0.3945520000000  0.4748300000000  0.5308920000000 1.0
C      1  0.5678300000000  0.4438290000000  0.5876620000000 1.0
C      1  0.5501740000000  0.5232360000000  0.4622740000000 1.0
C      1  0.5038820000000  0.5789110000000  0.4907780000000 1.0
C      1  0.4366790000000  0.4959660000000  0.5192260000000 1.0
C      1  0.5342500000000  0.5585740000000  0.5227490000000 1.0
C      1  0.4187000000000  0.5146820000000  0.5034740000000 1.0
C      1  0.5378630000000  0.4104060000000  0.5248680000000 1.0
C      1  0.4941070000000  0.4656540000000  0.4299660000000 1.0
C      1  0.5077530000000  0.5733580000000  0.5230860000000 1.0
C      1  0.4198370000000  0.4853320000000  0.5430270000000 1.0
C      1  0.3904780000000  0.4933590000000  0.4821060000000 1.0
C      1  0.3987820000000  0.5557080000000  0.5065640000000 1.0
C      1  0.5640790000000  0.4122730000000  0.5415440000000 1.0
C      1  0.4457080000000  0.5278540000000  0.4250530000000 1.0
C      1  0.5591110000000  0.5779970000000  0.4358830000000 1.0
C      1  0.5048730000000  0.6022420000000  0.5343210000000 1.0
C      1  0.5533540000000  0.5401840000000  0.4840420000000 1.0
C      1  0.4342960000000  0.4148650000000  0.5127910000000 1.0
C      1  0.5288650000000  0.5427320000000  0.4984950000000 1.0
C      1  0.5823450000000  0.4060630000000  0.4966250000000 1.0
C      1  0.3940830000000  0.5189810000000  0.4672010000000 1.0
C      1  0.4553420000000  0.5895420000000  0.4768610000000 1.0
C      1  0.5096880000000  0.5314430000000  0.5517450000000 1.0
C      1  0.5519280000000  0.4935500000000  0.5016070000000 1.0
C      1  0.4336900000000  0.5513010000000  0.5561680000000 1.0
C      1  0.5114730000000  0.5827130000000  0.4322180000000 1.0
C      1  0.5688720000000  0.5839290000000  0.5001820000000 1.0
C      1  0.5548180000000  0.4964680000000  0.4727680000000 1.0
C      1  0.4631330000000  0.5877680000000  0.5397380000000 1.0
C      1  0.5678750000000  0.4136340000000  0.4738070000000 1.0
C      1  0.4982520000000  0.4198590000000  0.5426380000000 1.0
C      1  0.5784010000000  0.4908270000000  0.5842620000000 1.0
C      1  0.4993930000000  0.4272770000000  0.4715950000000 1.0
C      1  0.4254980000000  0.4332880000000  0.5351690000000 1.0
C      1  0.4772310000000  0.5874060000000  0.5652730000000 1.0
C      1  0.5635370000000  0.5691630000000  0.5274420000000 1.0
C      1  0.5753250000000  0.5357850000000  0.5626660000000 1.0
C      1  0.4007850000000  0.5314790000000  0.5230200000000 1.0
C      1  0.5360480000000  0.4419510000000  0.5208100000000 1.0
C      1  0.4710480000000  0.5415970000000  0.4240530000000 1.0
C      1  0.4185420000000  0.4549040000000  0.4928140000000 1.0
C      1  0.4515700000000  0.5460270000000  0.5791670000000 1.0
C      1  0.4740220000000  0.5043730000000  0.6054570000000 1.0
C      1  0.5353910000000  0.4506250000000  0.4620620000000 1.0
C      1  0.4891660000000  0.4700050000000  0.5435800000000 1.0
C      1  0.5567650000000  0.5587060000000  0.5603150000000 1.0
C      1  0.5487610000000  0.3964200000000  0.4632360000000 1.0
C      1  0.5981000000000  0.5484500000000  0.4948040000000 1.0
C      1  0.4584200000000  0.4827870000000  0.4787160000000 1.0
C      1  0.4697600000000  0.4171010000000  0.5413510000000 1.0
C      1  0.4879770000000  0.4477400000000  0.4066720000000 1.0
C      1  0.4977510000000  0.5197340000000  0.4775740000000 1.0
C      1  0.5493600000000  0.6018560000000  0.4929070000000 1.0
C      1  0.4861330000000  0.5958310000000  0.4372610000000 1.0
C      1  0.4709110000000  0.5238950000000  0.4876450000000 1.0
C      1  0.4773920000000  0.6060190000000  0.5206200000000 1.0
C      1  0.4419830000000  0.4731850000000  0.5003940000000 1.0
C      1  0.4364060000000  0.5748140000000  0.5382950000000 1.0
C      1  0.5238790000000  0.3902730000000  0.4549070000000 1.0
C      1  0.5748200000000  0.5606990000000  0.4802330000000 1.0
C      1  0.4851970000000  0.4499660000000  0.4579590000000 1.0
C      1  0.5578100000000  0.4325430000000  0.5637420000000 1.0
C      1  0.4549230000000  0.4544470000000  0.5761550000000 1.0
C      1  0.4795590000000  0.5586870000000  0.4475060000000 1.0
C      1  0.4320280000000  0.4972870000000  0.4085790000000 1.0
C      1  0.4310590000000  0.4999880000000  0.5853840000000 1.0
C      1  0.5308880000000  0.4800860000000  0.5900000000000 1.0
C      1  0.5015110000000  0.6015560000000  0.5624840000000 1.0
C      1  0.4478610000000  0.4817770000000  0.5670740000000 1.0
C      1  0.4767150000000  0.4746740000000  0.5991390000000 1.0
C      1  0.4272250000000  0.4265190000000  0.4866660000000 1.0
C      1  0.4730440000000  0.4943250000000  0.5526500000000 1.0
C      1  0.5050820000000  0.4637180000000  0.5988240000000 1.0
C      1  0.4789570000000  0.5515590000000  0.3989910000000 1.0
C      1  0.5376080000000  0.4942300000000  0.4305070000000 1.0
C      1  0.5065650000000  0.4405810000000  0.5611900000000 1.0
C      1  0.5049900000000  0.5025460000000  0.4011690000000 1.0
C      1  0.4897950000000  0.5526080000000  0.5419740000000 1.0
C      1  0.4984180000000  0.4023350000000  0.4558800000000 1.0
C      1  0.5831840000000  0.4888780000000  0.4638350000000 1.0
C      1  0.5603240000000  0.4699480000000  0.5957860000000 1.0
C      1  0.4853060000000  0.4713060000000  0.4792130000000 1.0
C      1  0.5952110000000  0.4838530000000  0.5610370000000 1.0
C      1  0.5857310000000  0.5258840000000  0.5379650000000 1.0
C      1  0.5298990000000  0.5473020000000  0.5756320000000 1.0
C      1  0.5319310000000  0.4818610000000  0.4596280000000 1.0
C      1  0.5150900000000  0.4843420000000  0.5354140000000 1.0
C      1  0.5191550000000  0.4657350000000  0.5118980000000 1.0
C      1  0.5054330000000  0.4918630000000  0.4713370000000 1.0
C      1  0.4912380000000  0.4573900000000  0.5063770000000 1.0
C      1  0.5197360000000  0.5275550000000  0.4074190000000 1.0
C      1  0.6100770000000  0.5246080000000  0.4869590000000 1.0
C      1  0.5190890000000  0.5138340000000  0.5298570000000 1.0
C      1  0.5009970000000  0.5497710000000  0.5934360000000 1.0
C      1  0.4751730000000  0.5015080000000  0.4059490000000 1.0
C      1  0.5067290000000  0.4262800000000  0.5871650000000 1.0
C      1  0.5646170000000  0.5156750000000  0.5790330000000 1.0
C      1  0.5816530000000  0.4591110000000  0.4586050000000 1.0
C      1  0.5672940000000  0.5307600000000  0.4393920000000 1.0
C      1  0.4089970000000  0.4908280000000  0.4262040000000 1.0
C      1  0.5159760000000  0.3986090000000  0.5377840000000 1.0
C      1  0.5091080000000  0.4382940000000  0.6116710000000 1.0
C      1  0.6031280000000  0.5014120000000  0.5378020000000 1.0
C      1  0.4350130000000  0.5164410000000  0.4506780000000 1.0
C      1  0.4718940000000  0.4866840000000  0.4312900000000 1.0
C      1  0.4017870000000  0.4681380000000  0.4712230000000 1.0
C      1  0.4628140000000  0.5090330000000  0.5287030000000 1.0
C      1  0.5169890000000  0.4803810000000  0.4152250000000 1.0
C      1  0.4442130000000  0.5640990000000  0.4900480000000 1.0
C      1  0.5664500000000  0.4868070000000  0.4218100000000 1.0
C      1  0.4498780000000  0.5201530000000  0.5950350000000 1.0
C      1  0.4620120000000  0.5840620000000  0.4487470000000 1.0
C      1  0.4623110000000  0.4078890000000  0.5153110000000 1.0
C      1  0.4045510000000  0.4499450000000  0.5192800000000 1.0
C      1  0.5693800000000  0.4579180000000  0.4308740000000 1.0
C      1  0.5998650000000  0.4847330000000  0.5119180000000 1.0
C      1  0.5025900000000  0.4217920000000  0.4101900000000 1.0
C      1  0.5619010000000  0.4430600000000  0.4757020000000 1.0
C      1  0.3939160000000  0.5445800000000  0.4803110000000 1.0
C      1  0.4937530000000  0.5122030000000  0.5665090000000 1.0
END
