TITL C-951340-9809-482 -8.3212240009453e-07 125000 -361.357217664004 0 0 59 (C1) n - 1
REM
REM in /home/bkarasulu/work/CARBON/AIRSS/Generating-Clusters/EDIP-Nigel-Params/with-SteepDescent/Only-C1/SD-CG/HFTN-CG
REM
REM
REM
REM
REM
REM ./C.cell (11c1c37f851c82e70ff6c80c92926a4b)
REM
REM compiler GCC version 9.2.1 20190827 (Red Hat 9.2.1-1)
REM options -cpp -mtune=generic -march=x86-64 -g -O0 -fpre-include=/usr/include/finclude/math-vector-fortran.h
REM seed -22930256 1002726337 131149434 438741499 1994630470 1664778631 -122285685 -692320361 1948964356 1414986995 981600062 -393506200 -2109064799 -598876288 -1389155473 -1710331995 1945335265 958521071 912682016 432000604 1969591272 25817756 127352622 -479364546 -224221859 1048053346 -1731643004 -1128654886 -1269680807 1961619618 332555925 -1547554424 1953992491
REM
CELL 1.54180   50.00000   50.00000   50.00000   90.00000   90.00000   90.00000
LATT -1
SFAC C  
C      1  0.5035430000000  0.4458390000000  0.4472380000000 1.0
C      1  0.5180280000000  0.5315910000000  0.4624640000000 1.0
C      1  0.4420400000000  0.5365030000000  0.4781910000000 1.0
C      1  0.5233360000000  0.4629840000000  0.4379200000000 1.0
C      1  0.5244080000000  0.5302590000000  0.5100510000000 1.0
C      1  0.4670680000000  0.4384200000000  0.5113110000000 1.0
C      1  0.5439840000000  0.5468010000000  0.4672450000000 1.0
C      1  0.4681170000000  0.5664770000000  0.5091040000000 1.0
C      1  0.4815580000000  0.4498720000000  0.5573340000000 1.0
C      1  0.4448100000000  0.4587240000000  0.5136460000000 1.0
C      1  0.4695580000000  0.5204980000000  0.5685200000000 1.0
C      1  0.5564980000000  0.4346420000000  0.4953750000000 1.0
C      1  0.5622210000000  0.5322280000000  0.4870310000000 1.0
C      1  0.4884230000000  0.5072340000000  0.4345240000000 1.0
C      1  0.5159450000000  0.5656480000000  0.5237820000000 1.0
C      1  0.4742720000000  0.4353390000000  0.4827010000000 1.0
C      1  0.5090880000000  0.5442600000000  0.5480620000000 1.0
C      1  0.5214410000000  0.4208430000000  0.4860000000000 1.0
C      1  0.4736640000000  0.5310650000000  0.4437290000000 1.0
C      1  0.4785390000000  0.4853210000000  0.4514730000000 1.0
C      1  0.5634240000000  0.5027770000000  0.4865140000000 1.0
C      1  0.4546480000000  0.4832290000000  0.4977260000000 1.0
C      1  0.5281290000000  0.4894780000000  0.4804750000000 1.0
C      1  0.5086640000000  0.4678850000000  0.4948020000000 1.0
C      1  0.5025830000000  0.4419700000000  0.4771740000000 1.0
C      1  0.5550620000000  0.4885720000000  0.5321190000000 1.0
C      1  0.5352190000000  0.5723410000000  0.4805880000000 1.0
C      1  0.4425420000000  0.5074560000000  0.5113700000000 1.0
C      1  0.4670590000000  0.5232640000000  0.5171700000000 1.0
C      1  0.4520190000000  0.4870930000000  0.4652710000000 1.0
C      1  0.4629860000000  0.4708760000000  0.5595240000000 1.0
C      1  0.4771570000000  0.4966890000000  0.5554160000000 1.0
C      1  0.4422300000000  0.4661130000000  0.5408230000000 1.0
C      1  0.4572760000000  0.4482790000000  0.4630670000000 1.0
C      1  0.4921330000000  0.5482560000000  0.4651250000000 1.0
C      1  0.5302680000000  0.4871840000000  0.4500550000000 1.0
C      1  0.4798760000000  0.5427680000000  0.5544300000000 1.0
C      1  0.5169540000000  0.5103450000000  0.5301890000000 1.0
C      1  0.4949390000000  0.5781880000000  0.5062110000000 1.0
C      1  0.5331060000000  0.4291310000000  0.5107680000000 1.0
C      1  0.5174440000000  0.4526620000000  0.5209900000000 1.0
C      1  0.4494640000000  0.5187560000000  0.4563560000000 1.0
C      1  0.5593420000000  0.5454220000000  0.5125120000000 1.0
C      1  0.4623970000000  0.5566450000000  0.5363580000000 1.0
C      1  0.4841760000000  0.4835040000000  0.5048630000000 1.0
C      1  0.5176310000000  0.5120300000000  0.4390270000000 1.0
C      1  0.5342940000000  0.4706900000000  0.5405670000000 1.0
C      1  0.4903180000000  0.4418820000000  0.5318100000000 1.0
C      1  0.4876080000000  0.5024700000000  0.5274700000000 1.0
C      1  0.5430900000000  0.5695810000000  0.5100610000000 1.0
C      1  0.4690760000000  0.5421520000000  0.4907930000000 1.0
C      1  0.5327610000000  0.4880630000000  0.5642480000000 1.0
C      1  0.5705280000000  0.4575980000000  0.5006410000000 1.0
C      1  0.5048920000000  0.5748580000000  0.4781700000000 1.0
C      1  0.4768240000000  0.4577370000000  0.4433840000000 1.0
C      1  0.4248800000000  0.5228600000000  0.4959280000000 1.0
C      1  0.5153050000000  0.5158430000000  0.4859040000000 1.0
C      1  0.5276050000000  0.5164080000000  0.5585140000000 1.0
C      1  0.5695520000000  0.4843940000000  0.5078840000000 1.0
END
