TITL C-950531-5884-404 5.79490299783942e-07 125000 -331.214305965697 0 0 54 (C1) n - 1
REM
REM in /home/bkarasulu/work/CARBON/AIRSS/Generating-Clusters/EDIP-Nigel-Params/with-SteepDescent/Only-C1/SD-CG/HFTN-CG
REM
REM
REM
REM
REM
REM ./C.cell (11c1c37f851c82e70ff6c80c92926a4b)
REM
REM compiler GCC version 9.2.1 20190827 (Red Hat 9.2.1-1)
REM options -cpp -mtune=generic -march=x86-64 -g -O0 -fpre-include=/usr/include/finclude/math-vector-fortran.h
REM seed -1569835366 2012720299 -2076766133 1890814860 -1946548160 -1069992649 -1082400260 -1243592361 -1878528100 2086516798 -1676628562 894134100 1492590072 -1334047734 -339962170 1886694769 310859972 -1778465486 -620426725 1572438362 -704613668 -2040414044 -1737546149 -1031177580 489758008 791033961 -981089512 -942900271 -914393637 315924163 -1530206973 -1295360593 -929735508
REM
CELL 1.54180   50.00000   50.00000   50.00000   90.00000   90.00000   90.00000
LATT -1
SFAC C  
C      1  0.4502820000000  0.4915710000000  0.5522750000000 1.0
C      1  0.5545280000000  0.5091120000000  0.5455590000000 1.0
C      1  0.4878000000000  0.5004090000000  0.5552510000000 1.0
C      1  0.4249390000000  0.4893010000000  0.5139820000000 1.0
C      1  0.4777490000000  0.4576720000000  0.5776440000000 1.0
C      1  0.5588760000000  0.4885230000000  0.4539810000000 1.0
C      1  0.5120080000000  0.4476430000000  0.5154820000000 1.0
C      1  0.5351570000000  0.4968710000000  0.5612810000000 1.0
C      1  0.5484630000000  0.5111320000000  0.5167830000000 1.0
C      1  0.5089570000000  0.5630600000000  0.5116190000000 1.0
C      1  0.5513420000000  0.5417920000000  0.5143280000000 1.0
C      1  0.4999180000000  0.5070650000000  0.4266030000000 1.0
C      1  0.5097540000000  0.5522980000000  0.4605830000000 1.0
C      1  0.5115630000000  0.4572950000000  0.5437860000000 1.0
C      1  0.4871160000000  0.5422800000000  0.5099920000000 1.0
C      1  0.4975380000000  0.4785090000000  0.4725410000000 1.0
C      1  0.5500320000000  0.5545050000000  0.4877720000000 1.0
C      1  0.4636280000000  0.4606880000000  0.5075880000000 1.0
C      1  0.4462960000000  0.5255160000000  0.4902170000000 1.0
C      1  0.5147690000000  0.4736750000000  0.4990490000000 1.0
C      1  0.4450680000000  0.4715510000000  0.5289790000000 1.0
C      1  0.4345550000000  0.5178800000000  0.5159370000000 1.0
C      1  0.5383530000000  0.4452460000000  0.4868500000000 1.0
C      1  0.5177580000000  0.4394930000000  0.4651380000000 1.0
C      1  0.5187870000000  0.4986880000000  0.5162590000000 1.0
C      1  0.4358580000000  0.5077800000000  0.4689540000000 1.0
C      1  0.4802170000000  0.5459290000000  0.4597290000000 1.0
C      1  0.5288410000000  0.5280970000000  0.4528790000000 1.0
C      1  0.4994730000000  0.5163400000000  0.5017000000000 1.0
C      1  0.4954320000000  0.4446380000000  0.5623860000000 1.0
C      1  0.4821820000000  0.5165670000000  0.4496040000000 1.0
C      1  0.5238180000000  0.5324620000000  0.5517410000000 1.0
C      1  0.5010500000000  0.5085040000000  0.4726780000000 1.0
C      1  0.4576090000000  0.4987820000000  0.4507410000000 1.0
C      1  0.5303810000000  0.5536810000000  0.5311530000000 1.0
C      1  0.4508820000000  0.5201910000000  0.5400140000000 1.0
C      1  0.4933480000000  0.4323870000000  0.4786690000000 1.0
C      1  0.4943870000000  0.5295270000000  0.5584470000000 1.0
C      1  0.5363580000000  0.5021460000000  0.4368710000000 1.0
C      1  0.4492720000000  0.4630710000000  0.4822860000000 1.0
C      1  0.4850440000000  0.4398170000000  0.5051300000000 1.0
C      1  0.5544700000000  0.5347890000000  0.4661730000000 1.0
C      1  0.5541360000000  0.4715960000000  0.4803880000000 1.0
C      1  0.4707990000000  0.4843510000000  0.5751620000000 1.0
C      1  0.4679190000000  0.4734080000000  0.4622090000000 1.0
C      1  0.5129230000000  0.4872420000000  0.5448510000000 1.0
C      1  0.5143920000000  0.4667120000000  0.4511270000000 1.0
C      1  0.5077970000000  0.4791290000000  0.4252490000000 1.0
C      1  0.4746610000000  0.5385950000000  0.5380820000000 1.0
C      1  0.5660910000000  0.4952220000000  0.4972020000000 1.0
C      1  0.5222720000000  0.5666200000000  0.4845710000000 1.0
C      1  0.5719720000000  0.5108820000000  0.4711270000000 1.0
C      1  0.4263710000000  0.4826930000000  0.4842440000000 1.0
C      1  0.4668110000000  0.5470660000000  0.4871540000000 1.0
END
