TITL C-951344-124-515 -3.01098262066889e-06 125000 -786.486905117242 0 0 125 (C1) n - 1
REM
REM in /home/bkarasulu/work/CARBON/AIRSS/Generating-Clusters/EDIP-Nigel-Params/with-SteepDescent/Only-C1/SD-CG/HFTN-CG
REM
REM
REM
REM
REM
REM ./C.cell (11c1c37f851c82e70ff6c80c92926a4b)
REM
REM compiler GCC version 9.2.1 20190827 (Red Hat 9.2.1-1)
REM options -cpp -mtune=generic -march=x86-64 -g -O0 -fpre-include=/usr/include/finclude/math-vector-fortran.h
REM seed -600593080 1310583666 -1221490899 1536385332 1569986545 -2002926620 -1510287728 -1015918321 -1495120369 929705837 -958346733 -2100314951 -148605975 -1115431008 -1279981376 148068031 -1191335258 674766200 1486307189 706854988 -2066304742 -2004590817 -585569679 -1987057421 930593650 -784569365 651753295 -729068414 1772011123 1436694698 1432024211 617428228 141068372
REM
CELL 1.54180   50.00000   50.00000   50.00000   90.00000   90.00000   90.00000
LATT -1
SFAC C  
C      1  0.5445850000000  0.4410430000000  0.5478180000000 1.0
C      1  0.5068240000000  0.5775870000000  0.4919550000000 1.0
C      1  0.4994350000000  0.5514980000000  0.5126280000000 1.0
C      1  0.5420560000000  0.4237360000000  0.4989650000000 1.0
C      1  0.4487200000000  0.4995860000000  0.5153970000000 1.0
C      1  0.4255660000000  0.4810340000000  0.5672270000000 1.0
C      1  0.4667160000000  0.5728670000000  0.4736350000000 1.0
C      1  0.6021970000000  0.4950570000000  0.4748620000000 1.0
C      1  0.4903640000000  0.5002590000000  0.5876770000000 1.0
C      1  0.4862060000000  0.4256170000000  0.4460860000000 1.0
C      1  0.5223910000000  0.4863740000000  0.5221880000000 1.0
C      1  0.4086340000000  0.5249300000000  0.5325560000000 1.0
C      1  0.4767030000000  0.5204070000000  0.4137720000000 1.0
C      1  0.4380620000000  0.5256150000000  0.4729850000000 1.0
C      1  0.4492580000000  0.4638820000000  0.5737060000000 1.0
C      1  0.4716580000000  0.4046220000000  0.5323020000000 1.0
C      1  0.5074780000000  0.4608700000000  0.5364470000000 1.0
C      1  0.5583890000000  0.5088100000000  0.4168740000000 1.0
C      1  0.4577810000000  0.4767010000000  0.3982490000000 1.0
C      1  0.4799480000000  0.4221200000000  0.4745570000000 1.0
C      1  0.5681530000000  0.4728830000000  0.4453790000000 1.0
C      1  0.4370900000000  0.5525780000000  0.5582650000000 1.0
C      1  0.5469230000000  0.4629120000000  0.4278580000000 1.0
C      1  0.5877330000000  0.4934890000000  0.5585240000000 1.0
C      1  0.5108870000000  0.6240390000000  0.4970190000000 1.0
C      1  0.5332790000000  0.4594980000000  0.4772820000000 1.0
C      1  0.4156740000000  0.4513300000000  0.5259450000000 1.0
C      1  0.5501810000000  0.5951500000000  0.5051710000000 1.0
C      1  0.4986780000000  0.4038650000000  0.4884680000000 1.0
C      1  0.5485430000000  0.4613780000000  0.5703710000000 1.0
C      1  0.4448830000000  0.5573360000000  0.4388450000000 1.0
C      1  0.4711110000000  0.5485820000000  0.4287780000000 1.0
C      1  0.4531140000000  0.4708450000000  0.4997150000000 1.0
C      1  0.5493450000000  0.5509270000000  0.5302160000000 1.0
C      1  0.5204280000000  0.4269450000000  0.5507290000000 1.0
C      1  0.5232190000000  0.5995760000000  0.5026340000000 1.0
C      1  0.4816640000000  0.5327570000000  0.4972590000000 1.0
C      1  0.4476370000000  0.4163550000000  0.5201810000000 1.0
C      1  0.4182210000000  0.4986020000000  0.5218010000000 1.0
C      1  0.5986040000000  0.4774920000000  0.5383280000000 1.0
C      1  0.4755400000000  0.4705880000000  0.4794400000000 1.0
C      1  0.4638290000000  0.4503560000000  0.5207110000000 1.0
C      1  0.5881560000000  0.5144310000000  0.4594220000000 1.0
C      1  0.4967030000000  0.5652450000000  0.4362340000000 1.0
C      1  0.4814960000000  0.5914510000000  0.4897380000000 1.0
C      1  0.4966420000000  0.4115720000000  0.5172290000000 1.0
C      1  0.5199910000000  0.5727880000000  0.5612150000000 1.0
C      1  0.4937570000000  0.5648880000000  0.5632570000000 1.0
C      1  0.4615080000000  0.5208060000000  0.4555920000000 1.0
C      1  0.4747310000000  0.4689940000000  0.5444730000000 1.0
C      1  0.5817430000000  0.4812080000000  0.4905870000000 1.0
C      1  0.5678510000000  0.5018710000000  0.4433570000000 1.0
C      1  0.4134900000000  0.4762990000000  0.5406820000000 1.0
C      1  0.5140840000000  0.5707230000000  0.4620250000000 1.0
C      1  0.4107560000000  0.5468180000000  0.5156430000000 1.0
C      1  0.4720910000000  0.4202920000000  0.5579100000000 1.0
C      1  0.5572070000000  0.5683530000000  0.5060120000000 1.0
C      1  0.4295590000000  0.5523630000000  0.4623440000000 1.0
C      1  0.4523720000000  0.5266650000000  0.5004740000000 1.0
C      1  0.5569500000000  0.4328710000000  0.5216550000000 1.0
C      1  0.5944430000000  0.4654270000000  0.5134450000000 1.0
C      1  0.4960670000000  0.4493260000000  0.4846710000000 1.0
C      1  0.5024090000000  0.4840740000000  0.4448470000000 1.0
C      1  0.5142360000000  0.5270280000000  0.4672800000000 1.0
C      1  0.4484610000000  0.4371290000000  0.5600440000000 1.0
C      1  0.5154860000000  0.4301230000000  0.4498020000000 1.0
C      1  0.5236340000000  0.4593970000000  0.4467510000000 1.0
C      1  0.4931500000000  0.4423020000000  0.5141390000000 1.0
C      1  0.5428780000000  0.5578700000000  0.5586080000000 1.0
C      1  0.5642450000000  0.4635820000000  0.4729040000000 1.0
C      1  0.5554860000000  0.5499660000000  0.4809140000000 1.0
C      1  0.4543110000000  0.5003200000000  0.4128890000000 1.0
C      1  0.5250500000000  0.5349730000000  0.5176490000000 1.0
C      1  0.5411570000000  0.5607190000000  0.4570750000000 1.0
C      1  0.4821050000000  0.5502840000000  0.5399470000000 1.0
C      1  0.5335030000000  0.5404030000000  0.4358680000000 1.0
C      1  0.4736990000000  0.4553010000000  0.4063340000000 1.0
C      1  0.5225040000000  0.4840150000000  0.4909410000000 1.0
C      1  0.4240800000000  0.4623130000000  0.4908460000000 1.0
C      1  0.4250740000000  0.5080630000000  0.5742480000000 1.0
C      1  0.5196480000000  0.4963090000000  0.5889670000000 1.0
C      1  0.5992170000000  0.5419800000000  0.4960830000000 1.0
C      1  0.5643770000000  0.5037710000000  0.5024950000000 1.0
C      1  0.4859570000000  0.6190360000000  0.4868200000000 1.0
C      1  0.5834850000000  0.5406290000000  0.4727120000000 1.0
C      1  0.5725200000000  0.5333240000000  0.5360490000000 1.0
C      1  0.5655800000000  0.4857610000000  0.5796880000000 1.0
C      1  0.5238690000000  0.4163090000000  0.4773930000000 1.0
C      1  0.5455380000000  0.5098550000000  0.5875110000000 1.0
C      1  0.5516770000000  0.4906440000000  0.5260930000000 1.0
C      1  0.5431240000000  0.4842410000000  0.4065790000000 1.0
C      1  0.4677150000000  0.4974860000000  0.5381270000000 1.0
C      1  0.4195020000000  0.5307500000000  0.5589450000000 1.0
C      1  0.4535820000000  0.4946260000000  0.4419030000000 1.0
C      1  0.4880020000000  0.5507690000000  0.5864000000000 1.0
C      1  0.4867640000000  0.5185720000000  0.5479780000000 1.0
C      1  0.5001100000000  0.4623020000000  0.4005830000000 1.0
C      1  0.5862510000000  0.5229830000000  0.5130180000000 1.0
C      1  0.5157040000000  0.5542670000000  0.4174950000000 1.0
C      1  0.4387060000000  0.5520910000000  0.5106280000000 1.0
C      1  0.4412210000000  0.4423500000000  0.4427480000000 1.0
C      1  0.5137910000000  0.5125410000000  0.5340120000000 1.0
C      1  0.5241690000000  0.4682990000000  0.5851160000000 1.0
C      1  0.4399920000000  0.5689380000000  0.4844830000000 1.0
C      1  0.5467080000000  0.5362100000000  0.5765690000000 1.0
C      1  0.4985580000000  0.4568950000000  0.5794650000000 1.0
C      1  0.5028960000000  0.5053430000000  0.4211870000000 1.0
C      1  0.4774160000000  0.5253980000000  0.5844810000000 1.0
C      1  0.4687350000000  0.4478950000000  0.4352740000000 1.0
C      1  0.4165710000000  0.5043050000000  0.4708030000000 1.0
C      1  0.4259500000000  0.4859050000000  0.4503020000000 1.0
C      1  0.5138010000000  0.4871310000000  0.4002220000000 1.0
C      1  0.5495520000000  0.5356720000000  0.4119650000000 1.0
C      1  0.4532250000000  0.5588780000000  0.5363650000000 1.0
C      1  0.4743070000000  0.4739670000000  0.4500520000000 1.0
C      1  0.4246520000000  0.4581700000000  0.4594410000000 1.0
C      1  0.5628800000000  0.5078440000000  0.5478590000000 1.0
C      1  0.4760450000000  0.4737640000000  0.5871440000000 1.0
C      1  0.5086690000000  0.4987060000000  0.4699640000000 1.0
C      1  0.4977880000000  0.4310530000000  0.5673030000000 1.0
C      1  0.5828500000000  0.4406920000000  0.5164710000000 1.0
C      1  0.4840080000000  0.5399000000000  0.4699160000000 1.0
C      1  0.4296520000000  0.4296710000000  0.5385710000000 1.0
C      1  0.5376190000000  0.5257910000000  0.4903390000000 1.0
C      1  0.4088440000000  0.4886260000000  0.4946210000000 1.0
END
