TITL C-951347-9520-6 8.63087850170797e-07 125000 -194.364029157358 0 0 33 (C1) n - 1
REM
REM in /home/bkarasulu/work/CARBON/AIRSS/Generating-Clusters/EDIP-Nigel-Params/with-SteepDescent/Only-C1/SD-CG/HFTN-CG
REM
REM
REM
REM
REM
REM ./C.cell (11c1c37f851c82e70ff6c80c92926a4b)
REM
REM compiler GCC version 9.2.1 20190827 (Red Hat 9.2.1-1)
REM options -cpp -mtune=generic -march=x86-64 -g -O0 -fpre-include=/usr/include/finclude/math-vector-fortran.h
REM seed -1948511554 756277667 -1193569065 -344776783 -457231194 1113222073 -1088709666 -811677763 -1668202031 2085184379 -281906620 -1959110505 1969246824 -617119473 -1205199905 536371949 -1430622935 888509121 636674757 -185345174 1137267111 357773194 1055584106 -2122556718 -20442270 -10455961 1412635685 -1324768637 2065301849 -477951736 -1697600015 2125563586 -1886737217
REM
CELL 1.54180   50.00000   50.00000   50.00000   90.00000   90.00000   90.00000
LATT -1
SFAC C  
C      1  0.5266020000000  0.5165010000000  0.4579690000000 1.0
C      1  0.5107760000000  0.5072640000000  0.5586710000000 1.0
C      1  0.4616140000000  0.5141250000000  0.5546690000000 1.0
C      1  0.4823640000000  0.5403780000000  0.4516980000000 1.0
C      1  0.4761740000000  0.4832840000000  0.5051260000000 1.0
C      1  0.5252910000000  0.4913420000000  0.4726830000000 1.0
C      1  0.4976750000000  0.5503190000000  0.5163260000000 1.0
C      1  0.4681160000000  0.5124460000000  0.4945660000000 1.0
C      1  0.4843600000000  0.4977230000000  0.5549070000000 1.0
C      1  0.5159910000000  0.5281730000000  0.5172810000000 1.0
C      1  0.5293750000000  0.5174470000000  0.5402700000000 1.0
C      1  0.4831160000000  0.4769570000000  0.5345770000000 1.0
C      1  0.5027860000000  0.5191150000000  0.4422500000000 1.0
C      1  0.5154840000000  0.4446920000000  0.4907030000000 1.0
C      1  0.4431830000000  0.5105020000000  0.5103470000000 1.0
C      1  0.4479380000000  0.4733420000000  0.5001960000000 1.0
C      1  0.5044740000000  0.4591570000000  0.5364630000000 1.0
C      1  0.4928090000000  0.5599550000000  0.4686690000000 1.0
C      1  0.5536890000000  0.4972550000000  0.5088960000000 1.0
C      1  0.4649740000000  0.5167250000000  0.4648090000000 1.0
C      1  0.4900870000000  0.4531340000000  0.4760390000000 1.0
C      1  0.4984820000000  0.4798500000000  0.4674230000000 1.0
C      1  0.5492320000000  0.4727200000000  0.4705780000000 1.0
C      1  0.5386570000000  0.4467560000000  0.4739890000000 1.0
C      1  0.4513620000000  0.5277800000000  0.5325870000000 1.0
C      1  0.4711370000000  0.5455590000000  0.5236930000000 1.0
C      1  0.5001960000000  0.5657840000000  0.4936040000000 1.0
C      1  0.5196390000000  0.4641510000000  0.5132860000000 1.0
C      1  0.4828730000000  0.4963010000000  0.4493620000000 1.0
C      1  0.5680130000000  0.4811070000000  0.4904130000000 1.0
C      1  0.5253010000000  0.4936030000000  0.5033220000000 1.0
C      1  0.5549010000000  0.5056460000000  0.5357710000000 1.0
C      1  0.4633280000000  0.4509050000000  0.4888570000000 1.0
END
