TITL C-951341-1326-723 -2.45882795113226e-07 125000 -465.186291766654 0 0 76 (C1) n - 1
REM
REM in /home/bkarasulu/work/CARBON/AIRSS/Generating-Clusters/EDIP-Nigel-Params/with-SteepDescent/Only-C1/SD-CG/HFTN-CG
REM
REM
REM
REM
REM
REM ./C.cell (11c1c37f851c82e70ff6c80c92926a4b)
REM
REM compiler GCC version 9.2.1 20190827 (Red Hat 9.2.1-1)
REM options -cpp -mtune=generic -march=x86-64 -g -O0 -fpre-include=/usr/include/finclude/math-vector-fortran.h
REM seed -1901175505 -1069646117 2089634941 -2135565241 482267253 -772914562 874292658 -1887986691 2072044652 444233680 -1287751590 787967458 -289757680 830340019 1016556113 -1079502715 755321083 756802992 -1376798466 -2114449573 -1426530444 -330955509 1425767938 -648623479 -2084923662 107933549 1101614331 428107264 -997168009 -495281855 -1799567705 2106338610 -1602619522
REM
CELL 1.54180   50.00000   50.00000   50.00000   90.00000   90.00000   90.00000
LATT -1
SFAC C  
C      1  0.4706580000000  0.5150860000000  0.5088790000000 1.0
C      1  0.5713340000000  0.4982620000000  0.4814760000000 1.0
C      1  0.4575170000000  0.4376120000000  0.5302150000000 1.0
C      1  0.5356020000000  0.5129020000000  0.4270700000000 1.0
C      1  0.4624760000000  0.4382560000000  0.4811290000000 1.0
C      1  0.4762520000000  0.5642020000000  0.4803540000000 1.0
C      1  0.4880450000000  0.4311110000000  0.4943810000000 1.0
C      1  0.4420750000000  0.5353910000000  0.4938900000000 1.0
C      1  0.5056150000000  0.5161640000000  0.4250550000000 1.0
C      1  0.4828430000000  0.5080580000000  0.5750380000000 1.0
C      1  0.5181460000000  0.5633160000000  0.5077280000000 1.0
C      1  0.5630740000000  0.4808520000000  0.5277870000000 1.0
C      1  0.4268810000000  0.4855820000000  0.5307480000000 1.0
C      1  0.5423010000000  0.5219320000000  0.5147620000000 1.0
C      1  0.5550700000000  0.4539240000000  0.4690730000000 1.0
C      1  0.5057170000000  0.4331610000000  0.5448410000000 1.0
C      1  0.5108390000000  0.4259240000000  0.4759410000000 1.0
C      1  0.5602100000000  0.5536100000000  0.5479170000000 1.0
C      1  0.5826920000000  0.5242330000000  0.4763880000000 1.0
C      1  0.4964110000000  0.5194220000000  0.5209000000000 1.0
C      1  0.4716500000000  0.5482240000000  0.5502550000000 1.0
C      1  0.4259480000000  0.4850430000000  0.4577590000000 1.0
C      1  0.4221170000000  0.4898440000000  0.4849100000000 1.0
C      1  0.5278370000000  0.4361730000000  0.5257020000000 1.0
C      1  0.5282990000000  0.4785160000000  0.4937500000000 1.0
C      1  0.5475190000000  0.5661660000000  0.5016890000000 1.0
C      1  0.4963280000000  0.5711070000000  0.4601580000000 1.0
C      1  0.4894990000000  0.5370680000000  0.5716010000000 1.0
C      1  0.5609020000000  0.5448900000000  0.5191330000000 1.0
C      1  0.4393670000000  0.4760280000000  0.5051640000000 1.0
C      1  0.4438150000000  0.4459530000000  0.5039150000000 1.0
C      1  0.4807810000000  0.4824860000000  0.4762390000000 1.0
C      1  0.5698210000000  0.5417360000000  0.5728310000000 1.0
C      1  0.5426370000000  0.5356470000000  0.5658520000000 1.0
C      1  0.4665510000000  0.5294630000000  0.4516150000000 1.0
C      1  0.4890010000000  0.4491460000000  0.4395580000000 1.0
C      1  0.5628220000000  0.4792780000000  0.4590660000000 1.0
C      1  0.5411590000000  0.5174630000000  0.4570700000000 1.0
C      1  0.4689650000000  0.4600260000000  0.4592420000000 1.0
C      1  0.5490720000000  0.5622130000000  0.4718130000000 1.0
C      1  0.5169480000000  0.5324150000000  0.5032580000000 1.0
C      1  0.4844600000000  0.4716240000000  0.5236830000000 1.0
C      1  0.4961060000000  0.5344630000000  0.4488430000000 1.0
C      1  0.4997710000000  0.4650380000000  0.4191490000000 1.0
C      1  0.5091960000000  0.4914910000000  0.4747300000000 1.0
C      1  0.5622510000000  0.5372620000000  0.4623980000000 1.0
C      1  0.5142780000000  0.5209890000000  0.4719530000000 1.0
C      1  0.4511830000000  0.5201010000000  0.4300680000000 1.0
C      1  0.5047690000000  0.4930030000000  0.5335280000000 1.0
C      1  0.5055800000000  0.4908850000000  0.5631700000000 1.0
C      1  0.4445470000000  0.4813880000000  0.5533490000000 1.0
C      1  0.4570090000000  0.5070800000000  0.5598480000000 1.0
C      1  0.4192840000000  0.5176400000000  0.4969750000000 1.0
C      1  0.4611550000000  0.4580680000000  0.5507700000000 1.0
C      1  0.5520670000000  0.4949270000000  0.5050350000000 1.0
C      1  0.5363590000000  0.4372710000000  0.4797560000000 1.0
C      1  0.4469210000000  0.5316940000000  0.5469610000000 1.0
C      1  0.4209270000000  0.5141050000000  0.5266630000000 1.0
C      1  0.5485630000000  0.4871190000000  0.4343030000000 1.0
C      1  0.4719520000000  0.5746500000000  0.5063230000000 1.0
C      1  0.4683250000000  0.4866030000000  0.5030490000000 1.0
C      1  0.5236590000000  0.5666830000000  0.4599880000000 1.0
C      1  0.4894390000000  0.4907190000000  0.4235910000000 1.0
C      1  0.4818520000000  0.5700300000000  0.5323080000000 1.0
C      1  0.5168710000000  0.5432070000000  0.5742020000000 1.0
C      1  0.5118950000000  0.4625620000000  0.5688220000000 1.0
C      1  0.5589490000000  0.4602330000000  0.5462840000000 1.0
C      1  0.4467780000000  0.4735820000000  0.4431820000000 1.0
C      1  0.5031810000000  0.4274200000000  0.4491960000000 1.0
C      1  0.5096050000000  0.5743170000000  0.5327740000000 1.0
C      1  0.4602530000000  0.4937080000000  0.4261400000000 1.0
C      1  0.5548770000000  0.4356080000000  0.5341780000000 1.0
C      1  0.5397760000000  0.4627250000000  0.5666070000000 1.0
C      1  0.5138440000000  0.4612370000000  0.5128530000000 1.0
C      1  0.4551010000000  0.5471160000000  0.4711250000000 1.0
C      1  0.4844170000000  0.4275680000000  0.5240410000000 1.0
END
