TITL C-951337-3020-590 2.07618576589634e-06 125000 -798.302541685032 0 0 128 (C1) n - 1
REM
REM in /home/bkarasulu/work/CARBON/AIRSS/Generating-Clusters/EDIP-Nigel-Params/with-SteepDescent/Only-C1/SD-CG/HFTN-CG
REM
REM
REM
REM
REM
REM ./C.cell (11c1c37f851c82e70ff6c80c92926a4b)
REM
REM compiler GCC version 9.2.1 20190827 (Red Hat 9.2.1-1)
REM options -cpp -mtune=generic -march=x86-64 -g -O0 -fpre-include=/usr/include/finclude/math-vector-fortran.h
REM seed 1148859696 1414563289 -987248686 -389655979 1090995981 417866791 -251613931 -1743929187 -1998990539 -1563425635 1857956194 1414232209 -1262028991 -1127896301 -1153097662 873211379 -1707393450 -1311974987 -1707410469 -2146255689 594194127 -1284011257 558365217 -2093699329 -408462475 906880335 -1173013897 1743122530 1948870905 -252445245 -1991911582 660278579 55043841
REM
CELL 1.54180   50.00000   50.00000   50.00000   90.00000   90.00000   90.00000
LATT -1
SFAC C  
C      1  0.3979560000000  0.4708430000000  0.5206440000000 1.0
C      1  0.5211690000000  0.5869370000000  0.4677850000000 1.0
C      1  0.4624010000000  0.4149700000000  0.4804720000000 1.0
C      1  0.5552440000000  0.5456580000000  0.4364680000000 1.0
C      1  0.5003930000000  0.5543220000000  0.5081480000000 1.0
C      1  0.5556420000000  0.5192940000000  0.4251430000000 1.0
C      1  0.5189360000000  0.5982310000000  0.5150010000000 1.0
C      1  0.4105920000000  0.4677370000000  0.4579350000000 1.0
C      1  0.4708960000000  0.4924320000000  0.5535200000000 1.0
C      1  0.4756720000000  0.5788350000000  0.5490580000000 1.0
C      1  0.5491440000000  0.4655450000000  0.5229170000000 1.0
C      1  0.4372390000000  0.4507870000000  0.4946620000000 1.0
C      1  0.5696580000000  0.4469280000000  0.4498770000000 1.0
C      1  0.4847470000000  0.4926600000000  0.5111720000000 1.0
C      1  0.5340000000000  0.4815010000000  0.4848230000000 1.0
C      1  0.5361760000000  0.5886660000000  0.4934280000000 1.0
C      1  0.5238550000000  0.4258150000000  0.5290320000000 1.0
C      1  0.4465870000000  0.4236660000000  0.5057550000000 1.0
C      1  0.5622640000000  0.5765740000000  0.4999650000000 1.0
C      1  0.4262250000000  0.5215810000000  0.5339310000000 1.0
C      1  0.4913320000000  0.5177470000000  0.5897680000000 1.0
C      1  0.5528600000000  0.4365040000000  0.5533180000000 1.0
C      1  0.4067640000000  0.4660990000000  0.5455440000000 1.0
C      1  0.5754990000000  0.5326380000000  0.5093290000000 1.0
C      1  0.4809200000000  0.5523480000000  0.4877720000000 1.0
C      1  0.5435220000000  0.5375900000000  0.5090790000000 1.0
C      1  0.5923690000000  0.5027150000000  0.4562270000000 1.0
C      1  0.5168420000000  0.4694930000000  0.4087320000000 1.0
C      1  0.5340540000000  0.5466520000000  0.4797730000000 1.0
C      1  0.4302970000000  0.5692300000000  0.5390480000000 1.0
C      1  0.5542410000000  0.4221880000000  0.4439300000000 1.0
C      1  0.4911810000000  0.5975250000000  0.5039380000000 1.0
C      1  0.4526150000000  0.5340980000000  0.4435550000000 1.0
C      1  0.4698210000000  0.5349940000000  0.5922540000000 1.0
C      1  0.4271920000000  0.5712080000000  0.4667140000000 1.0
C      1  0.4518910000000  0.5643210000000  0.5589890000000 1.0
C      1  0.4684770000000  0.5926170000000  0.5230980000000 1.0
C      1  0.4911640000000  0.4092930000000  0.5641610000000 1.0
C      1  0.4542400000000  0.5241190000000  0.5183640000000 1.0
C      1  0.5775200000000  0.5649660000000  0.4776100000000 1.0
C      1  0.4643200000000  0.4626470000000  0.4863930000000 1.0
C      1  0.4437110000000  0.5756740000000  0.5128260000000 1.0
C      1  0.4958920000000  0.5564480000000  0.4383840000000 1.0
C      1  0.6002300000000  0.5602880000000  0.5181730000000 1.0
C      1  0.5638270000000  0.5537520000000  0.5481390000000 1.0
C      1  0.4242510000000  0.4430840000000  0.4679870000000 1.0
C      1  0.5633590000000  0.4701400000000  0.4327060000000 1.0
C      1  0.5343080000000  0.4237220000000  0.4236860000000 1.0
C      1  0.5108170000000  0.4299770000000  0.4382170000000 1.0
C      1  0.6007740000000  0.5541530000000  0.4904220000000 1.0
C      1  0.5815690000000  0.5111180000000  0.5291980000000 1.0
C      1  0.4700350000000  0.4764850000000  0.5291870000000 1.0
C      1  0.5596710000000  0.5457780000000  0.4645280000000 1.0
C      1  0.4172370000000  0.4888100000000  0.4781360000000 1.0
C      1  0.4564020000000  0.5358310000000  0.5667360000000 1.0
C      1  0.5812190000000  0.4993170000000  0.4818280000000 1.0
C      1  0.4618430000000  0.4284410000000  0.5316740000000 1.0
C      1  0.5443800000000  0.4657530000000  0.4126780000000 1.0
C      1  0.5244250000000  0.4743960000000  0.5408800000000 1.0
C      1  0.4028260000000  0.5545430000000  0.5047740000000 1.0
C      1  0.5282250000000  0.5061510000000  0.5003540000000 1.0
C      1  0.4552610000000  0.4702030000000  0.4009580000000 1.0
C      1  0.4302550000000  0.4569200000000  0.4129890000000 1.0
C      1  0.5375330000000  0.4417260000000  0.5075580000000 1.0
C      1  0.5106930000000  0.4994770000000  0.5249010000000 1.0
C      1  0.4199850000000  0.5742730000000  0.4934230000000 1.0
C      1  0.4558370000000  0.4852630000000  0.5950430000000 1.0
C      1  0.4445990000000  0.4884340000000  0.5684060000000 1.0
C      1  0.4913320000000  0.4198890000000  0.4894070000000 1.0
C      1  0.5059610000000  0.5252110000000  0.5427800000000 1.0
C      1  0.4111630000000  0.5473750000000  0.5313370000000 1.0
C      1  0.5942570000000  0.4934860000000  0.5084840000000 1.0
C      1  0.4506580000000  0.4337640000000  0.4556350000000 1.0
C      1  0.4480660000000  0.5624400000000  0.4505490000000 1.0
C      1  0.5382260000000  0.5072610000000  0.5777240000000 1.0
C      1  0.4391950000000  0.5076580000000  0.4339860000000 1.0
C      1  0.4885610000000  0.4763910000000  0.4464370000000 1.0
C      1  0.4871390000000  0.5007170000000  0.4282870000000 1.0
C      1  0.4871450000000  0.5258930000000  0.4748550000000 1.0
C      1  0.5146550000000  0.5263830000000  0.5727840000000 1.0
C      1  0.4560770000000  0.5499440000000  0.5031230000000 1.0
C      1  0.5651000000000  0.5152120000000  0.5749410000000 1.0
C      1  0.4892720000000  0.4490200000000  0.4970890000000 1.0
C      1  0.4445580000000  0.4957820000000  0.4643310000000 1.0
C      1  0.4735100000000  0.5221300000000  0.5442900000000 1.0
C      1  0.5040890000000  0.4336420000000  0.5690730000000 1.0
C      1  0.5101450000000  0.4977800000000  0.4087010000000 1.0
C      1  0.5043100000000  0.5755560000000  0.5587090000000 1.0
C      1  0.4304360000000  0.4626920000000  0.5593710000000 1.0
C      1  0.4830500000000  0.4905470000000  0.5905890000000 1.0
C      1  0.4764950000000  0.5729860000000  0.4554730000000 1.0
C      1  0.4449880000000  0.4394990000000  0.5526580000000 1.0
C      1  0.5896560000000  0.4630960000000  0.5118160000000 1.0
C      1  0.4821570000000  0.5291370000000  0.4447790000000 1.0
C      1  0.4605530000000  0.4970620000000  0.4145670000000 1.0
C      1  0.4624100000000  0.4706930000000  0.4588830000000 1.0
C      1  0.5754140000000  0.5723890000000  0.5273760000000 1.0
C      1  0.4822300000000  0.4501890000000  0.5265720000000 1.0
C      1  0.5634320000000  0.4750450000000  0.4839630000000 1.0
C      1  0.5164650000000  0.5216310000000  0.4777670000000 1.0
C      1  0.5706220000000  0.4976740000000  0.4387690000000 1.0
C      1  0.5760540000000  0.4467230000000  0.4795830000000 1.0
C      1  0.4731660000000  0.4465210000000  0.4100510000000 1.0
C      1  0.5236510000000  0.5645740000000  0.4470350000000 1.0
C      1  0.5769990000000  0.5279890000000  0.5531870000000 1.0
C      1  0.5129470000000  0.4213960000000  0.4666250000000 1.0
C      1  0.4675900000000  0.5069220000000  0.4899870000000 1.0
C      1  0.4926260000000  0.5924130000000  0.4738160000000 1.0
C      1  0.4490650000000  0.4335000000000  0.4248320000000 1.0
C      1  0.5464540000000  0.4554620000000  0.5786730000000 1.0
C      1  0.4187450000000  0.4765490000000  0.4314900000000 1.0
C      1  0.5204530000000  0.5564210000000  0.5760390000000 1.0
C      1  0.5570630000000  0.4264170000000  0.4910920000000 1.0
C      1  0.5474490000000  0.5620650000000  0.5696170000000 1.0
C      1  0.5016570000000  0.4076660000000  0.5166920000000 1.0
C      1  0.5183080000000  0.4576210000000  0.4916840000000 1.0
C      1  0.4319930000000  0.5162060000000  0.5632870000000 1.0
C      1  0.5316350000000  0.4795290000000  0.5695670000000 1.0
C      1  0.5332180000000  0.5132410000000  0.4099320000000 1.0
C      1  0.5076150000000  0.4474270000000  0.5428630000000 1.0
C      1  0.5287460000000  0.4330300000000  0.5834790000000 1.0
C      1  0.4806300000000  0.4057870000000  0.5382430000000 1.0
C      1  0.5738250000000  0.4553860000000  0.5377490000000 1.0
C      1  0.4203430000000  0.4747440000000  0.5042800000000 1.0
C      1  0.4972650000000  0.4548020000000  0.4267230000000 1.0
C      1  0.5417210000000  0.4130050000000  0.4694110000000 1.0
C      1  0.5241780000000  0.5853150000000  0.5403100000000 1.0
C      1  0.5201920000000  0.5489910000000  0.5275260000000 1.0
END
