TITL C-951335-1172-506 -1.71535556922877e-06 125000 -800.48908196245 0 0 127 (C1) n - 1
REM
REM in /home/bkarasulu/work/CARBON/AIRSS/Generating-Clusters/EDIP-Nigel-Params/with-SteepDescent/Only-C1/SD-CG/HFTN-CG
REM
REM
REM
REM
REM
REM ./C.cell (11c1c37f851c82e70ff6c80c92926a4b)
REM
REM compiler GCC version 9.2.1 20190827 (Red Hat 9.2.1-1)
REM options -cpp -mtune=generic -march=x86-64 -g -O0 -fpre-include=/usr/include/finclude/math-vector-fortran.h
REM seed 1833070541 -641898814 1833775844 1053196504 1216658193 798001328 28106654 266092335 426458450 -731134442 -1453685858 -475214047 274765998 194229688 -650908506 -1642040190 -1620612142 1141773214 1486920594 540807803 -349416624 654308692 -1711834615 -708654080 1123834367 -19725574 653602846 -1092496380 635129319 -1583960167 -1198248395 -772771447 315540490
REM
CELL 1.54180   50.00000   50.00000   50.00000   90.00000   90.00000   90.00000
LATT -1
SFAC C  
C      1  0.5236050000000  0.5889330000000  0.4597270000000 1.0
C      1  0.5496840000000  0.5842370000000  0.4698010000000 1.0
C      1  0.5095050000000  0.4809470000000  0.5899430000000 1.0
C      1  0.4297590000000  0.5541200000000  0.4861120000000 1.0
C      1  0.5890360000000  0.4797680000000  0.4875030000000 1.0
C      1  0.5040160000000  0.5741780000000  0.4774600000000 1.0
C      1  0.4333010000000  0.4430250000000  0.4907180000000 1.0
C      1  0.4717960000000  0.4682320000000  0.5192580000000 1.0
C      1  0.4640440000000  0.4443580000000  0.4985350000000 1.0
C      1  0.4508430000000  0.5547790000000  0.5371790000000 1.0
C      1  0.4546420000000  0.4890640000000  0.5690460000000 1.0
C      1  0.5303790000000  0.4872280000000  0.3970290000000 1.0
C      1  0.4933800000000  0.5413620000000  0.4092760000000 1.0
C      1  0.4693500000000  0.5364990000000  0.5209600000000 1.0
C      1  0.4602130000000  0.4152400000000  0.5431630000000 1.0
C      1  0.5582510000000  0.4850180000000  0.4458450000000 1.0
C      1  0.4793880000000  0.5525610000000  0.6000130000000 1.0
C      1  0.4120240000000  0.5112030000000  0.4567840000000 1.0
C      1  0.4069590000000  0.4831070000000  0.4664670000000 1.0
C      1  0.5225020000000  0.5950130000000  0.5212780000000 1.0
C      1  0.4731580000000  0.5390350000000  0.4906550000000 1.0
C      1  0.5371940000000  0.5120280000000  0.4103100000000 1.0
C      1  0.5815720000000  0.4701700000000  0.4597270000000 1.0
C      1  0.5449180000000  0.4997240000000  0.5192960000000 1.0
C      1  0.4912660000000  0.4221430000000  0.5029150000000 1.0
C      1  0.5442140000000  0.4657390000000  0.4259830000000 1.0
C      1  0.5658130000000  0.5360430000000  0.4729280000000 1.0
C      1  0.5597540000000  0.5879230000000  0.5276700000000 1.0
C      1  0.5504040000000  0.4698670000000  0.5172960000000 1.0
C      1  0.5115460000000  0.5733000000000  0.5061490000000 1.0
C      1  0.5716470000000  0.4412970000000  0.4593190000000 1.0
C      1  0.4669220000000  0.4597780000000  0.5691410000000 1.0
C      1  0.4476370000000  0.4835750000000  0.4775760000000 1.0
C      1  0.5001520000000  0.5105740000000  0.5451890000000 1.0
C      1  0.4481730000000  0.4026820000000  0.5210560000000 1.0
C      1  0.4157460000000  0.4585220000000  0.5091710000000 1.0
C      1  0.4729970000000  0.4961770000000  0.5452390000000 1.0
C      1  0.5805580000000  0.4948580000000  0.5369190000000 1.0
C      1  0.4468340000000  0.5330640000000  0.4238390000000 1.0
C      1  0.4074160000000  0.4840560000000  0.4960200000000 1.0
C      1  0.5490980000000  0.5753740000000  0.5524230000000 1.0
C      1  0.5562980000000  0.5369560000000  0.4452440000000 1.0
C      1  0.4251570000000  0.4460040000000  0.5443630000000 1.0
C      1  0.4959550000000  0.4706630000000  0.4766560000000 1.0
C      1  0.5246410000000  0.5542550000000  0.5924510000000 1.0
C      1  0.5149410000000  0.4953630000000  0.5255280000000 1.0
C      1  0.4694740000000  0.4004990000000  0.5025010000000 1.0
C      1  0.4648060000000  0.3935500000000  0.4758810000000 1.0
C      1  0.4259750000000  0.5559700000000  0.5172130000000 1.0
C      1  0.5548230000000  0.4720300000000  0.5711370000000 1.0
C      1  0.5847830000000  0.5172580000000  0.5192950000000 1.0
C      1  0.4804560000000  0.5248680000000  0.5953600000000 1.0
C      1  0.5021670000000  0.4693140000000  0.5206150000000 1.0
C      1  0.4748810000000  0.5844760000000  0.4776590000000 1.0
C      1  0.4680180000000  0.5980590000000  0.5265850000000 1.0
C      1  0.5442600000000  0.5125700000000  0.4889730000000 1.0
C      1  0.5618690000000  0.4974430000000  0.5592240000000 1.0
C      1  0.5594580000000  0.5117940000000  0.4301140000000 1.0
C      1  0.4249020000000  0.5251560000000  0.4793960000000 1.0
C      1  0.4835460000000  0.4091930000000  0.4616170000000 1.0
C      1  0.5367130000000  0.4750920000000  0.5919720000000 1.0
C      1  0.4212310000000  0.5202540000000  0.5516920000000 1.0
C      1  0.4742630000000  0.5216040000000  0.4585490000000 1.0
C      1  0.5188160000000  0.5743720000000  0.4337490000000 1.0
C      1  0.4707170000000  0.5221180000000  0.4077560000000 1.0
C      1  0.4420480000000  0.5376080000000  0.5631400000000 1.0
C      1  0.4125100000000  0.4707420000000  0.5457550000000 1.0
C      1  0.4806400000000  0.4937480000000  0.4131630000000 1.0
C      1  0.5936400000000  0.5082690000000  0.4930450000000 1.0
C      1  0.5278390000000  0.5464960000000  0.4426390000000 1.0
C      1  0.4530050000000  0.4424410000000  0.5495150000000 1.0
C      1  0.5114220000000  0.4844380000000  0.4562700000000 1.0
C      1  0.4968180000000  0.5387840000000  0.5358710000000 1.0
C      1  0.4537910000000  0.4995590000000  0.4522830000000 1.0
C      1  0.5030620000000  0.4390920000000  0.4325830000000 1.0
C      1  0.5519400000000  0.5235160000000  0.5688800000000 1.0
C      1  0.4531680000000  0.4503980000000  0.4390840000000 1.0
C      1  0.4968970000000  0.4609340000000  0.5720000000000 1.0
C      1  0.4696340000000  0.4603810000000  0.4728580000000 1.0
C      1  0.4128290000000  0.5295170000000  0.5249110000000 1.0
C      1  0.4253540000000  0.5142200000000  0.4312350000000 1.0
C      1  0.5060750000000  0.5104330000000  0.5888610000000 1.0
C      1  0.5812110000000  0.4649560000000  0.5128510000000 1.0
C      1  0.4216180000000  0.5097030000000  0.5040680000000 1.0
C      1  0.5174750000000  0.4422370000000  0.5602090000000 1.0
C      1  0.5739250000000  0.5430600000000  0.5274620000000 1.0
C      1  0.5204870000000  0.5849510000000  0.5483410000000 1.0
C      1  0.5111730000000  0.4211890000000  0.5417770000000 1.0
C      1  0.4683580000000  0.5999100000000  0.4998300000000 1.0
C      1  0.5753930000000  0.4346180000000  0.5082960000000 1.0
C      1  0.5245640000000  0.4276150000000  0.4478530000000 1.0
C      1  0.4994730000000  0.5634790000000  0.5845620000000 1.0
C      1  0.4636420000000  0.4790950000000  0.4327490000000 1.0
C      1  0.4767550000000  0.4300760000000  0.4418580000000 1.0
C      1  0.4618930000000  0.4919490000000  0.5029510000000 1.0
C      1  0.5586580000000  0.5466640000000  0.5519540000000 1.0
C      1  0.5310620000000  0.4154730000000  0.5213330000000 1.0
C      1  0.4567330000000  0.5170600000000  0.5807290000000 1.0
C      1  0.4959330000000  0.5666270000000  0.5547860000000 1.0
C      1  0.4903150000000  0.5666490000000  0.4250470000000 1.0
C      1  0.5253000000000  0.4054090000000  0.4940060000000 1.0
C      1  0.5569140000000  0.4350640000000  0.4845590000000 1.0
C      1  0.5391260000000  0.4867340000000  0.4698990000000 1.0
C      1  0.5505310000000  0.4386800000000  0.4383410000000 1.0
C      1  0.5934610000000  0.5269260000000  0.4724620000000 1.0
C      1  0.4545540000000  0.5102510000000  0.5245540000000 1.0
C      1  0.4283240000000  0.4920320000000  0.5550920000000 1.0
C      1  0.5563950000000  0.4280990000000  0.5305940000000 1.0
C      1  0.5169320000000  0.5459150000000  0.5150960000000 1.0
C      1  0.5145540000000  0.5265260000000  0.4245680000000 1.0
C      1  0.5309990000000  0.5270780000000  0.5895650000000 1.0
C      1  0.5097720000000  0.4543480000000  0.4965380000000 1.0
C      1  0.4868920000000  0.4086770000000  0.5427900000000 1.0
C      1  0.5123860000000  0.4674540000000  0.4303130000000 1.0
C      1  0.4685260000000  0.5780900000000  0.5457560000000 1.0
C      1  0.5128910000000  0.4087060000000  0.4672410000000 1.0
C      1  0.5450220000000  0.4513620000000  0.5511960000000 1.0
C      1  0.5017260000000  0.4824070000000  0.3963790000000 1.0
C      1  0.4654010000000  0.5480740000000  0.4433650000000 1.0
C      1  0.5102320000000  0.5444870000000  0.4686640000000 1.0
C      1  0.5009840000000  0.5116260000000  0.4480860000000 1.0
C      1  0.4583360000000  0.5597950000000  0.4746200000000 1.0
C      1  0.4281670000000  0.4522330000000  0.4618410000000 1.0
C      1  0.5721790000000  0.5673010000000  0.5113850000000 1.0
C      1  0.5193380000000  0.5286760000000  0.4917180000000 1.0
C      1  0.5645070000000  0.5643190000000  0.4833890000000 1.0
C      1  0.5393660000000  0.4601800000000  0.4907810000000 1.0
END
