TITL C-950521-2237-80 -1.11471306278581e-06 125000 -216.442026898125 0 0 36 (C1) n - 1
REM
REM in /home/bkarasulu/work/CARBON/AIRSS/Generating-Clusters/EDIP-Nigel-Params/with-SteepDescent/Only-C1/SD-CG/HFTN-CG
REM
REM
REM
REM
REM
REM ./C.cell (11c1c37f851c82e70ff6c80c92926a4b)
REM
REM compiler GCC version 9.2.1 20190827 (Red Hat 9.2.1-1)
REM options -cpp -mtune=generic -march=x86-64 -g -O0 -fpre-include=/usr/include/finclude/math-vector-fortran.h
REM seed -534643957 836519973 1151182436 -1937478377 -968580531 1530199156 1152311235 2132956835 -610988422 1447049808 -912048271 -1748852562 -2051626722 -1560773941 -1127596139 -1104024148 -457969336 -1952744832 -1848288396 920215656 82464037 642631111 -1680466775 -1545747215 -418917642 -436228945 -1640441695 -362787148 1781209021 2131968884 610042738 526657762 -2042239619
REM
CELL 1.54180   50.00000   50.00000   50.00000   90.00000   90.00000   90.00000
LATT -1
SFAC C  
C      1  0.4901450000000  0.4459600000000  0.4603800000000 1.0
C      1  0.5539170000000  0.4946690000000  0.5313380000000 1.0
C      1  0.4453290000000  0.5129040000000  0.4778210000000 1.0
C      1  0.5084370000000  0.4860280000000  0.5418730000000 1.0
C      1  0.4740460000000  0.4888010000000  0.4425250000000 1.0
C      1  0.4843930000000  0.5142770000000  0.4480750000000 1.0
C      1  0.5094280000000  0.5115300000000  0.5529480000000 1.0
C      1  0.5127260000000  0.5376050000000  0.5436270000000 1.0
C      1  0.5339580000000  0.5385630000000  0.4771270000000 1.0
C      1  0.4736620000000  0.5218300000000  0.4759180000000 1.0
C      1  0.4941100000000  0.4370990000000  0.4869310000000 1.0
C      1  0.5196530000000  0.4387680000000  0.4979480000000 1.0
C      1  0.4816940000000  0.4471280000000  0.5323830000000 1.0
C      1  0.5130040000000  0.5323980000000  0.4999820000000 1.0
C      1  0.4768940000000  0.4517160000000  0.5051340000000 1.0
C      1  0.5537100000000  0.4707080000000  0.4865890000000 1.0
C      1  0.5369910000000  0.5409930000000  0.5290740000000 1.0
C      1  0.5025190000000  0.5582290000000  0.4868460000000 1.0
C      1  0.5522270000000  0.4947620000000  0.4721630000000 1.0
C      1  0.4756700000000  0.4697600000000  0.4629780000000 1.0
C      1  0.4600870000000  0.4877230000000  0.5427890000000 1.0
C      1  0.5530940000000  0.5194720000000  0.4877500000000 1.0
C      1  0.4476470000000  0.4920050000000  0.4964800000000 1.0
C      1  0.4832430000000  0.4722140000000  0.5439880000000 1.0
C      1  0.4486050000000  0.5303290000000  0.5231780000000 1.0
C      1  0.5334650000000  0.4754860000000  0.5301990000000 1.0
C      1  0.4455360000000  0.5024450000000  0.5238490000000 1.0
C      1  0.4904210000000  0.5504710000000  0.5325500000000 1.0
C      1  0.5122690000000  0.5131640000000  0.4449790000000 1.0
C      1  0.4674950000000  0.5498660000000  0.5161660000000 1.0
C      1  0.4748400000000  0.5504400000000  0.4871180000000 1.0
C      1  0.5367000000000  0.4594210000000  0.5056990000000 1.0
C      1  0.5514940000000  0.5189460000000  0.5172760000000 1.0
C      1  0.5345280000000  0.4987160000000  0.4507420000000 1.0
C      1  0.4939300000000  0.5065770000000  0.4942040000000 1.0
C      1  0.4741320000000  0.4789980000000  0.4913730000000 1.0
END
