TITL C-950534-5965-80 -3.46135142301765e-06 125000 -672.14718165263 0 0 107 (C1) n - 1
REM
REM in /home/bkarasulu/work/CARBON/AIRSS/Generating-Clusters/EDIP-Nigel-Params/with-SteepDescent/Only-C1/SD-CG/HFTN-CG
REM
REM
REM
REM
REM
REM ./C.cell (11c1c37f851c82e70ff6c80c92926a4b)
REM
REM compiler GCC version 9.2.1 20190827 (Red Hat 9.2.1-1)
REM options -cpp -mtune=generic -march=x86-64 -g -O0 -fpre-include=/usr/include/finclude/math-vector-fortran.h
REM seed -1194199544 1353472802 35377903 57806786 -815913707 1980989440 566918506 -1171396366 1754113287 932435464 143087308 -318786793 -859330691 773371681 185022982 1471578958 -343742278 -954006689 497995327 71604869 1415547015 275310758 589359833 -1961970404 377600267 -1320481038 1102378438 -633238437 -1306194111 -687768169 1849574372 1927740591 -433773980
REM
CELL 1.54180   50.00000   50.00000   50.00000   90.00000   90.00000   90.00000
LATT -1
SFAC C  
C      1  0.4714880000000  0.5184850000000  0.5762180000000 1.0
C      1  0.5405320000000  0.4971340000000  0.4888600000000 1.0
C      1  0.5518200000000  0.5716830000000  0.4742580000000 1.0
C      1  0.5105130000000  0.5390230000000  0.4991200000000 1.0
C      1  0.5888610000000  0.4929970000000  0.5292260000000 1.0
C      1  0.4358430000000  0.4605380000000  0.4646000000000 1.0
C      1  0.5753010000000  0.5177030000000  0.5383680000000 1.0
C      1  0.5341310000000  0.5499790000000  0.5403000000000 1.0
C      1  0.5538580000000  0.5368190000000  0.4380480000000 1.0
C      1  0.5131090000000  0.4130700000000  0.4809620000000 1.0
C      1  0.4910840000000  0.4863560000000  0.5422870000000 1.0
C      1  0.4084180000000  0.5092770000000  0.4611380000000 1.0
C      1  0.5001950000000  0.4161240000000  0.5097410000000 1.0
C      1  0.5220270000000  0.4979400000000  0.5864830000000 1.0
C      1  0.5744840000000  0.5227770000000  0.4536540000000 1.0
C      1  0.4520470000000  0.5613700000000  0.5507390000000 1.0
C      1  0.5765500000000  0.5296750000000  0.4822890000000 1.0
C      1  0.4797080000000  0.5697560000000  0.5175170000000 1.0
C      1  0.4552930000000  0.5595050000000  0.4641930000000 1.0
C      1  0.4331160000000  0.5363960000000  0.4300810000000 1.0
C      1  0.5896220000000  0.4827960000000  0.4921280000000 1.0
C      1  0.5149970000000  0.4579090000000  0.5063560000000 1.0
C      1  0.4744830000000  0.4362550000000  0.4699470000000 1.0
C      1  0.5224950000000  0.4404540000000  0.5812830000000 1.0
C      1  0.4421130000000  0.4543400000000  0.5425660000000 1.0
C      1  0.5063800000000  0.5837450000000  0.5186080000000 1.0
C      1  0.4922460000000  0.4505950000000  0.5457110000000 1.0
C      1  0.5171700000000  0.5197940000000  0.4767270000000 1.0
C      1  0.4787510000000  0.4902150000000  0.5710420000000 1.0
C      1  0.5447870000000  0.4416090000000  0.5644230000000 1.0
C      1  0.4607180000000  0.5242440000000  0.5003760000000 1.0
C      1  0.4704010000000  0.4199360000000  0.5141620000000 1.0
C      1  0.4812830000000  0.5469090000000  0.4976220000000 1.0
C      1  0.5434880000000  0.5635220000000  0.4472950000000 1.0
C      1  0.4572400000000  0.5528770000000  0.4364590000000 1.0
C      1  0.5052720000000  0.4739520000000  0.4657450000000 1.0
C      1  0.4657550000000  0.5000360000000  0.4346420000000 1.0
C      1  0.5195950000000  0.5697200000000  0.4940710000000 1.0
C      1  0.4432680000000  0.4938630000000  0.5422840000000 1.0
C      1  0.5820590000000  0.4964250000000  0.4467070000000 1.0
C      1  0.5137230000000  0.5728230000000  0.5454030000000 1.0
C      1  0.4511200000000  0.4758760000000  0.5661210000000 1.0
C      1  0.5404150000000  0.4242520000000  0.4730500000000 1.0
C      1  0.5126570000000  0.5647910000000  0.4450630000000 1.0
C      1  0.4675350000000  0.5074590000000  0.4657840000000 1.0
C      1  0.4164220000000  0.4943880000000  0.4379940000000 1.0
C      1  0.5781950000000  0.4601540000000  0.4779490000000 1.0
C      1  0.5861060000000  0.4435940000000  0.5305850000000 1.0
C      1  0.4843660000000  0.5472390000000  0.4250610000000 1.0
C      1  0.4139090000000  0.4947270000000  0.5093330000000 1.0
C      1  0.5400800000000  0.4295400000000  0.5376750000000 1.0
C      1  0.4621210000000  0.4758910000000  0.5015540000000 1.0
C      1  0.5290370000000  0.4832050000000  0.5129090000000 1.0
C      1  0.4142070000000  0.5379380000000  0.4545130000000 1.0
C      1  0.5592190000000  0.5509790000000  0.4926940000000 1.0
C      1  0.4256450000000  0.5029510000000  0.4841690000000 1.0
C      1  0.5755550000000  0.4690660000000  0.4498160000000 1.0
C      1  0.4879780000000  0.5629830000000  0.5597510000000 1.0
C      1  0.4953670000000  0.5005440000000  0.4725980000000 1.0
C      1  0.5157780000000  0.4787710000000  0.4176280000000 1.0
C      1  0.4344410000000  0.4633230000000  0.5126610000000 1.0
C      1  0.4948430000000  0.4181380000000  0.4581870000000 1.0
C      1  0.4716970000000  0.4694960000000  0.4319900000000 1.0
C      1  0.4342930000000  0.5477630000000  0.5682490000000 1.0
C      1  0.4984380000000  0.4827200000000  0.5912240000000 1.0
C      1  0.5422950000000  0.5389180000000  0.5671780000000 1.0
C      1  0.5360210000000  0.4724320000000  0.4704180000000 1.0
C      1  0.4971890000000  0.4423930000000  0.5726930000000 1.0
C      1  0.5387430000000  0.4344210000000  0.4445530000000 1.0
C      1  0.4869200000000  0.5173950000000  0.4195500000000 1.0
C      1  0.5589410000000  0.5156090000000  0.5618210000000 1.0
C      1  0.5564580000000  0.4683070000000  0.5601690000000 1.0
C      1  0.5117030000000  0.5334150000000  0.4483060000000 1.0
C      1  0.5621500000000  0.4343670000000  0.5186830000000 1.0
C      1  0.5542350000000  0.4445370000000  0.4910200000000 1.0
C      1  0.4329150000000  0.5406210000000  0.5068680000000 1.0
C      1  0.4445310000000  0.5255070000000  0.5813960000000 1.0
C      1  0.5833370000000  0.5437540000000  0.5322630000000 1.0
C      1  0.4232430000000  0.5161610000000  0.5501980000000 1.0
C      1  0.5195430000000  0.4986540000000  0.5361790000000 1.0
C      1  0.5598240000000  0.5560120000000  0.5222300000000 1.0
C      1  0.4744150000000  0.5775980000000  0.4743770000000 1.0
C      1  0.5129050000000  0.4373770000000  0.5266970000000 1.0
C      1  0.5144130000000  0.5063580000000  0.4143060000000 1.0
C      1  0.5189760000000  0.5277670000000  0.5820140000000 1.0
C      1  0.4674480000000  0.4986230000000  0.5217360000000 1.0
C      1  0.4923850000000  0.5382250000000  0.5747680000000 1.0
C      1  0.5477380000000  0.4635160000000  0.4437200000000 1.0
C      1  0.5703060000000  0.5048430000000  0.4970040000000 1.0
C      1  0.5094870000000  0.4336990000000  0.4370480000000 1.0
C      1  0.5379840000000  0.5223170000000  0.4187260000000 1.0
C      1  0.4574920000000  0.4495840000000  0.4485460000000 1.0
C      1  0.4896420000000  0.4588810000000  0.4872740000000 1.0
C      1  0.4549570000000  0.4235170000000  0.4888660000000 1.0
C      1  0.4140370000000  0.5209940000000  0.5225880000000 1.0
C      1  0.4293810000000  0.5524370000000  0.4767080000000 1.0
C      1  0.4481110000000  0.4863490000000  0.4764450000000 1.0
C      1  0.5185110000000  0.5283010000000  0.5264540000000 1.0
C      1  0.5028410000000  0.5775340000000  0.4700260000000 1.0
C      1  0.5004240000000  0.4635160000000  0.4367030000000 1.0
C      1  0.4370570000000  0.5656150000000  0.5251980000000 1.0
C      1  0.5790580000000  0.4682770000000  0.5417860000000 1.0
C      1  0.4550320000000  0.5851610000000  0.5137530000000 1.0
C      1  0.5393250000000  0.4934370000000  0.5617590000000 1.0
C      1  0.4317420000000  0.4429200000000  0.4896280000000 1.0
C      1  0.4380220000000  0.5074480000000  0.4251880000000 1.0
C      1  0.4666170000000  0.4387910000000  0.5369600000000 1.0
END
