TITL C-950531-5884-145 -6.06768841271984e-07 125000 -141.928965118429 0 0 25 (C1) n - 1
REM
REM in /home/bkarasulu/work/CARBON/AIRSS/Generating-Clusters/EDIP-Nigel-Params/with-SteepDescent/Only-C1/SD-CG/HFTN-CG
REM
REM
REM
REM
REM
REM ./C.cell (11c1c37f851c82e70ff6c80c92926a4b)
REM
REM compiler GCC version 9.2.1 20190827 (Red Hat 9.2.1-1)
REM options -cpp -mtune=generic -march=x86-64 -g -O0 -fpre-include=/usr/include/finclude/math-vector-fortran.h
REM seed 626932602 188847145 -654811193 -222559384 -228203167 -869418685 2034035872 -1976426388 -842363351 1342810931 -1559551101 -1856502287 1909370373 422173352 925844715 1924960194 -910281204 1072288493 2051513447 -81676686 -1364152621 -1343725876 1271443721 556190338 2098713444 -1053691608 1847823735 54579038 1144587045 339387684 662478282 -231674775 1325364938
REM
CELL 1.54180   50.00000   50.00000   50.00000   90.00000   90.00000   90.00000
LATT -1
SFAC C  
C      1  0.5211360000000  0.4568070000000  0.4671070000000 1.0
C      1  0.5586200000000  0.5048830000000  0.4946080000000 1.0
C      1  0.4521590000000  0.4874960000000  0.5251060000000 1.0
C      1  0.5086000000000  0.4890720000000  0.4853470000000 1.0
C      1  0.4459250000000  0.4681540000000  0.5063530000000 1.0
C      1  0.5416990000000  0.4620140000000  0.4847030000000 1.0
C      1  0.4823690000000  0.4750140000000  0.4456820000000 1.0
C      1  0.5171680000000  0.5155510000000  0.4719100000000 1.0
C      1  0.4902400000000  0.4645850000000  0.5282920000000 1.0
C      1  0.5180610000000  0.4554990000000  0.5318470000000 1.0
C      1  0.4939950000000  0.5350900000000  0.4696040000000 1.0
C      1  0.5349010000000  0.4797000000000  0.5273580000000 1.0
C      1  0.4678380000000  0.5248480000000  0.4728000000000 1.0
C      1  0.5272270000000  0.5414340000000  0.5001650000000 1.0
C      1  0.5526890000000  0.4791870000000  0.5039920000000 1.0
C      1  0.4674190000000  0.4533360000000  0.5153440000000 1.0
C      1  0.4947700000000  0.4680150000000  0.4679830000000 1.0
C      1  0.4617830000000  0.5298250000000  0.4997630000000 1.0
C      1  0.4777800000000  0.5268700000000  0.5412770000000 1.0
C      1  0.4869340000000  0.5523070000000  0.5383610000000 1.0
C      1  0.4788850000000  0.5527430000000  0.5104260000000 1.0
C      1  0.5435650000000  0.5254310000000  0.4835180000000 1.0
C      1  0.5058740000000  0.4888500000000  0.5165750000000 1.0
C      1  0.5023690000000  0.5524760000000  0.4914940000000 1.0
C      1  0.4679960000000  0.5108100000000  0.5203850000000 1.0
END
