TITL C-951336-9012-24 7.32757797977382e-07 125000 -275.198369173167 0 0 46 (C1) n - 1
REM
REM in /home/bkarasulu/work/CARBON/AIRSS/Generating-Clusters/EDIP-Nigel-Params/with-SteepDescent/Only-C1/SD-CG/HFTN-CG
REM
REM
REM
REM
REM
REM ./C.cell (11c1c37f851c82e70ff6c80c92926a4b)
REM
REM compiler GCC version 9.2.1 20190827 (Red Hat 9.2.1-1)
REM options -cpp -mtune=generic -march=x86-64 -g -O0 -fpre-include=/usr/include/finclude/math-vector-fortran.h
REM seed -153273677 -991087191 -998289352 2027756109 -1496056 -506050701 -716277559 399546579 -2132334313 -2078250619 335027753 1224444820 -454943670 -147173095 979947096 -1361887288 -470890153 -222074707 1697463534 -896424498 -1283747248 1491795228 33771907 418832391 -1509403047 -1925745442 -491389514 -636356232 -867994289 -135278737 146744076 -829186085 476693598
REM
CELL 1.54180   50.00000   50.00000   50.00000   90.00000   90.00000   90.00000
LATT -1
SFAC C  
C      1  0.4483270000000  0.4768390000000  0.4691510000000 1.0
C      1  0.4772330000000  0.4876340000000  0.5063610000000 1.0
C      1  0.5293070000000  0.4752740000000  0.5031700000000 1.0
C      1  0.4741310000000  0.4903260000000  0.5570750000000 1.0
C      1  0.4901740000000  0.4785960000000  0.5328870000000 1.0
C      1  0.5541440000000  0.5433840000000  0.5099310000000 1.0
C      1  0.5204740000000  0.4796500000000  0.5316640000000 1.0
C      1  0.4246860000000  0.4911460000000  0.4824560000000 1.0
C      1  0.5037300000000  0.5182690000000  0.4478440000000 1.0
C      1  0.4290370000000  0.5207300000000  0.4830920000000 1.0
C      1  0.4749300000000  0.5293590000000  0.4439090000000 1.0
C      1  0.4397160000000  0.4535330000000  0.5111720000000 1.0
C      1  0.4535850000000  0.4497150000000  0.5377050000000 1.0
C      1  0.5811580000000  0.5026660000000  0.4750570000000 1.0
C      1  0.5142910000000  0.5503300000000  0.4832110000000 1.0
C      1  0.4620480000000  0.4637740000000  0.4934580000000 1.0
C      1  0.5090800000000  0.5389690000000  0.5254600000000 1.0
C      1  0.5537300000000  0.5074570000000  0.4724940000000 1.0
C      1  0.4476290000000  0.4756070000000  0.5531290000000 1.0
C      1  0.5957510000000  0.5183700000000  0.4922240000000 1.0
C      1  0.4501380000000  0.5157560000000  0.5271340000000 1.0
C      1  0.4868150000000  0.4449030000000  0.4991480000000 1.0
C      1  0.4680380000000  0.4968760000000  0.4616510000000 1.0
C      1  0.5336920000000  0.5227830000000  0.5184380000000 1.0
C      1  0.4996660000000  0.5569100000000  0.5060790000000 1.0
C      1  0.4589710000000  0.5387550000000  0.4685550000000 1.0
C      1  0.5803620000000  0.5350390000000  0.5066310000000 1.0
C      1  0.4689700000000  0.5186900000000  0.5498170000000 1.0
C      1  0.4792440000000  0.5112730000000  0.4866880000000 1.0
C      1  0.5377610000000  0.5023520000000  0.5408370000000 1.0
C      1  0.4213620000000  0.4773660000000  0.5108890000000 1.0
C      1  0.4454280000000  0.5325750000000  0.5037300000000 1.0
C      1  0.4922890000000  0.5330040000000  0.5461840000000 1.0
C      1  0.4835610000000  0.4489580000000  0.5302850000000 1.0
C      1  0.5109570000000  0.4576670000000  0.4861750000000 1.0
C      1  0.5560150000000  0.4637840000000  0.5047220000000 1.0
C      1  0.5077300000000  0.5210010000000  0.4781700000000 1.0
C      1  0.5065980000000  0.4677230000000  0.4602780000000 1.0
C      1  0.4317280000000  0.4937280000000  0.5340700000000 1.0
C      1  0.5308370000000  0.5051550000000  0.4919060000000 1.0
C      1  0.5540870000000  0.4945650000000  0.4478650000000 1.0
C      1  0.5315290000000  0.4965570000000  0.4312530000000 1.0
C      1  0.5692080000000  0.4750470000000  0.5255200000000 1.0
C      1  0.5416940000000  0.5561240000000  0.4878570000000 1.0
C      1  0.5057390000000  0.4877150000000  0.4405510000000 1.0
C      1  0.5644210000000  0.4940650000000  0.5441140000000 1.0
END
