TITL C-951347-9520-143 -1.318877684457e-07 125000 -609.299182348725 0 0 99 (C1) n - 1
REM
REM in /home/bkarasulu/work/CARBON/AIRSS/Generating-Clusters/EDIP-Nigel-Params/with-SteepDescent/Only-C1/SD-CG/HFTN-CG
REM
REM
REM
REM
REM
REM ./C.cell (11c1c37f851c82e70ff6c80c92926a4b)
REM
REM compiler GCC version 9.2.1 20190827 (Red Hat 9.2.1-1)
REM options -cpp -mtune=generic -march=x86-64 -g -O0 -fpre-include=/usr/include/finclude/math-vector-fortran.h
REM seed -353056357 -295006913 -394512543 931750178 1761044247 895853255 2016625146 863601585 -1312225222 -1542007715 -1338823118 -1783719032 487457453 -106332954 1663752949 466399840 1642481488 -337261915 -68353059 605168755 -818376117 -849085024 -166664397 -156270214 -916668997 -1393014369 1923446556 129785986 1292087565 543024989 -391230346 1242191262 1666067361
REM
CELL 1.54180   50.00000   50.00000   50.00000   90.00000   90.00000   90.00000
LATT -1
SFAC C  
C      1  0.4812390000000  0.4658640000000  0.4789740000000 1.0
C      1  0.4912140000000  0.4473420000000  0.5205510000000 1.0
C      1  0.4292760000000  0.5110720000000  0.5285390000000 1.0
C      1  0.5226130000000  0.4604150000000  0.5885550000000 1.0
C      1  0.4416880000000  0.5181800000000  0.4336020000000 1.0
C      1  0.4252180000000  0.4631140000000  0.5298100000000 1.0
C      1  0.5179360000000  0.5893080000000  0.5048420000000 1.0
C      1  0.4257370000000  0.4628770000000  0.4816100000000 1.0
C      1  0.5905970000000  0.5263880000000  0.5099950000000 1.0
C      1  0.5351790000000  0.5088490000000  0.4220430000000 1.0
C      1  0.4697380000000  0.5352720000000  0.5758990000000 1.0
C      1  0.5163300000000  0.4619740000000  0.5094030000000 1.0
C      1  0.5088740000000  0.4983890000000  0.4109010000000 1.0
C      1  0.5043890000000  0.4876960000000  0.5362140000000 1.0
C      1  0.4565780000000  0.4436900000000  0.4465900000000 1.0
C      1  0.4777630000000  0.5730720000000  0.5325350000000 1.0
C      1  0.5343890000000  0.4820210000000  0.5244490000000 1.0
C      1  0.5060700000000  0.5033250000000  0.4816320000000 1.0
C      1  0.4261720000000  0.5295750000000  0.5057980000000 1.0
C      1  0.5427320000000  0.5373000000000  0.5578720000000 1.0
C      1  0.4812500000000  0.5674000000000  0.4291030000000 1.0
C      1  0.5531710000000  0.5379980000000  0.4592660000000 1.0
C      1  0.5797160000000  0.4576410000000  0.4970630000000 1.0
C      1  0.4355440000000  0.4611940000000  0.4547560000000 1.0
C      1  0.4717080000000  0.4258000000000  0.4641190000000 1.0
C      1  0.5447930000000  0.4395550000000  0.5498090000000 1.0
C      1  0.4242210000000  0.5148410000000  0.4812670000000 1.0
C      1  0.5805970000000  0.5066720000000  0.5297060000000 1.0
C      1  0.4130020000000  0.4875810000000  0.5203120000000 1.0
C      1  0.4131210000000  0.4881270000000  0.4900690000000 1.0
C      1  0.4878910000000  0.4446470000000  0.5498970000000 1.0
C      1  0.5823940000000  0.5525980000000  0.5120340000000 1.0
C      1  0.4585600000000  0.4400600000000  0.5546340000000 1.0
C      1  0.4612160000000  0.5079920000000  0.5361420000000 1.0
C      1  0.4736580000000  0.5166880000000  0.4623570000000 1.0
C      1  0.4502390000000  0.4201930000000  0.5358100000000 1.0
C      1  0.4971490000000  0.5510700000000  0.4927330000000 1.0
C      1  0.5216190000000  0.4402930000000  0.5678050000000 1.0
C      1  0.5586910000000  0.4441410000000  0.4501560000000 1.0
C      1  0.4494320000000  0.5463350000000  0.5042380000000 1.0
C      1  0.5711460000000  0.4303130000000  0.5021050000000 1.0
C      1  0.5349710000000  0.4241050000000  0.4511400000000 1.0
C      1  0.5185050000000  0.5404010000000  0.5104810000000 1.0
C      1  0.5676540000000  0.4901900000000  0.4577690000000 1.0
C      1  0.4684070000000  0.5707050000000  0.4539810000000 1.0
C      1  0.4583680000000  0.5518950000000  0.5322920000000 1.0
C      1  0.4938210000000  0.5739420000000  0.5554090000000 1.0
C      1  0.5599920000000  0.5651270000000  0.5015490000000 1.0
C      1  0.4787700000000  0.4913000000000  0.5201400000000 1.0
C      1  0.4439630000000  0.4937800000000  0.5682270000000 1.0
C      1  0.5320610000000  0.4869650000000  0.5838060000000 1.0
C      1  0.5352940000000  0.5649990000000  0.5173740000000 1.0
C      1  0.4704980000000  0.4649790000000  0.5072510000000 1.0
C      1  0.4588900000000  0.4153690000000  0.4869550000000 1.0
C      1  0.5423120000000  0.4285270000000  0.5009440000000 1.0
C      1  0.5941740000000  0.5186170000000  0.4835620000000 1.0
C      1  0.4678490000000  0.5861890000000  0.4832370000000 1.0
C      1  0.5505880000000  0.5653570000000  0.4732500000000 1.0
C      1  0.5614910000000  0.5143870000000  0.5525450000000 1.0
C      1  0.5003040000000  0.4343230000000  0.4664260000000 1.0
C      1  0.5312990000000  0.5331920000000  0.4388290000000 1.0
C      1  0.5173190000000  0.4510100000000  0.4296660000000 1.0
C      1  0.4736290000000  0.5321690000000  0.4895260000000 1.0
C      1  0.5672910000000  0.4643200000000  0.4706040000000 1.0
C      1  0.4972500000000  0.4717810000000  0.5618080000000 1.0
C      1  0.5435490000000  0.5625670000000  0.5452630000000 1.0
C      1  0.4463960000000  0.5431190000000  0.5587600000000 1.0
C      1  0.5123670000000  0.5595660000000  0.4679530000000 1.0
C      1  0.4862060000000  0.5190150000000  0.4127550000000 1.0
C      1  0.5669580000000  0.5142220000000  0.4745220000000 1.0
C      1  0.5480120000000  0.4874780000000  0.4370800000000 1.0
C      1  0.4404390000000  0.5599610000000  0.4603240000000 1.0
C      1  0.5614660000000  0.4649140000000  0.5470450000000 1.0
C      1  0.5775990000000  0.4758600000000  0.5226190000000 1.0
C      1  0.5443250000000  0.4204340000000  0.5284070000000 1.0
C      1  0.4888000000000  0.5781220000000  0.5049020000000 1.0
C      1  0.5529330000000  0.4886370000000  0.5634400000000 1.0
C      1  0.4651070000000  0.4852260000000  0.4613470000000 1.0
C      1  0.4435350000000  0.4240420000000  0.5085630000000 1.0
C      1  0.4405940000000  0.4532900000000  0.5062920000000 1.0
C      1  0.4700810000000  0.4764410000000  0.4318040000000 1.0
C      1  0.4730470000000  0.5054890000000  0.5729170000000 1.0
C      1  0.4323710000000  0.5308410000000  0.4569980000000 1.0
C      1  0.5456350000000  0.5003690000000  0.5040990000000 1.0
C      1  0.4998810000000  0.4747420000000  0.4269790000000 1.0
C      1  0.4421260000000  0.4654460000000  0.5535250000000 1.0
C      1  0.5106200000000  0.5063240000000  0.5821660000000 1.0
C      1  0.5178240000000  0.5321000000000  0.5719720000000 1.0
C      1  0.5277080000000  0.5187030000000  0.4935760000000 1.0
C      1  0.4614000000000  0.5035150000000  0.4196400000000 1.0
C      1  0.5252490000000  0.5846590000000  0.4755360000000 1.0
C      1  0.4947320000000  0.5492510000000  0.5690640000000 1.0
C      1  0.4259820000000  0.5197040000000  0.5580090000000 1.0
C      1  0.5091470000000  0.4741670000000  0.4831360000000 1.0
C      1  0.4935580000000  0.5415730000000  0.4322270000000 1.0
C      1  0.4417080000000  0.5711810000000  0.4890110000000 1.0
C      1  0.5034800000000  0.5099600000000  0.4522240000000 1.0
C      1  0.5245190000000  0.4185920000000  0.4792680000000 1.0
C      1  0.5450940000000  0.4599970000000  0.4286090000000 1.0
END
