TITL C-950523-3027-103 -3.51753550489828e-06 125000 -1045.33577840975 0 0 167 (C1) n - 1
REM
REM in /home/bkarasulu/work/CARBON/AIRSS/Generating-Clusters/EDIP-Nigel-Params/with-SteepDescent/Only-C1/SD-CG/HFTN-CG
REM
REM
REM
REM
REM
REM ./C.cell (11c1c37f851c82e70ff6c80c92926a4b)
REM
REM compiler GCC version 9.2.1 20190827 (Red Hat 9.2.1-1)
REM options -cpp -mtune=generic -march=x86-64 -g -O0 -fpre-include=/usr/include/finclude/math-vector-fortran.h
REM seed -991433166 897104217 1139556453 2019200568 87117405 679077923 1829914287 555182108 1456429668 2124153211 19968996 230353563 -88529505 1199257976 -48481440 -845850759 242940641 1760715794 880074255 -301950497 2049985376 -1389578465 -1861973133 915011612 -1912359431 1182866684 90152510 422613735 1872041581 1202945378 940901038 1185997792 1976787989
REM
CELL 1.54180   50.00000   50.00000   50.00000   90.00000   90.00000   90.00000
LATT -1
SFAC C  
C      1  0.4653140000000  0.5121540000000  0.3983340000000 1.0
C      1  0.5234520000000  0.5710490000000  0.4345650000000 1.0
C      1  0.5474810000000  0.4791890000000  0.4923080000000 1.0
C      1  0.5149230000000  0.3952350000000  0.4829930000000 1.0
C      1  0.5328450000000  0.5540370000000  0.4119730000000 1.0
C      1  0.5852250000000  0.4778880000000  0.4400210000000 1.0
C      1  0.4508280000000  0.5338440000000  0.5356490000000 1.0
C      1  0.5217980000000  0.5356660000000  0.5706250000000 1.0
C      1  0.5141300000000  0.4081830000000  0.4340740000000 1.0
C      1  0.5926780000000  0.4490390000000  0.5173490000000 1.0
C      1  0.5226950000000  0.4452030000000  0.5649710000000 1.0
C      1  0.5314000000000  0.4587430000000  0.4015730000000 1.0
C      1  0.5067040000000  0.4808090000000  0.5977470000000 1.0
C      1  0.5043390000000  0.5168780000000  0.4338120000000 1.0
C      1  0.5755840000000  0.4275140000000  0.5664850000000 1.0
C      1  0.4180040000000  0.5053220000000  0.5821160000000 1.0
C      1  0.5692220000000  0.5415840000000  0.5293680000000 1.0
C      1  0.5299040000000  0.4649710000000  0.5872800000000 1.0
C      1  0.5951250000000  0.5304350000000  0.5691490000000 1.0
C      1  0.5574870000000  0.5171710000000  0.3981960000000 1.0
C      1  0.5644460000000  0.4548270000000  0.4836920000000 1.0
C      1  0.4541340000000  0.5441960000000  0.4333680000000 1.0
C      1  0.4832340000000  0.5940910000000  0.5308190000000 1.0
C      1  0.5032520000000  0.4476920000000  0.4032960000000 1.0
C      1  0.4065360000000  0.5418870000000  0.4496470000000 1.0
C      1  0.4826450000000  0.4666070000000  0.3925150000000 1.0
C      1  0.5865680000000  0.4973340000000  0.4599540000000 1.0
C      1  0.5271250000000  0.4996050000000  0.4764640000000 1.0
C      1  0.4475400000000  0.5329750000000  0.6004660000000 1.0
C      1  0.5374940000000  0.4761900000000  0.3806120000000 1.0
C      1  0.5790370000000  0.5252740000000  0.4574940000000 1.0
C      1  0.5731990000000  0.4267820000000  0.5168110000000 1.0
C      1  0.4313250000000  0.4552270000000  0.4458450000000 1.0
C      1  0.4204150000000  0.4328640000000  0.4919100000000 1.0
C      1  0.5523100000000  0.5319800000000  0.4457060000000 1.0
C      1  0.5021680000000  0.6075280000000  0.5122690000000 1.0
C      1  0.4171940000000  0.4806300000000  0.4482730000000 1.0
C      1  0.5338930000000  0.3993490000000  0.5060720000000 1.0
C      1  0.4585250000000  0.4867110000000  0.6001360000000 1.0
C      1  0.5689710000000  0.4969240000000  0.5050960000000 1.0
C      1  0.5934970000000  0.4602060000000  0.4902020000000 1.0
C      1  0.5630890000000  0.5255900000000  0.5018060000000 1.0
C      1  0.4922740000000  0.4086970000000  0.5186260000000 1.0
C      1  0.4573080000000  0.4665960000000  0.4080450000000 1.0
C      1  0.6097050000000  0.5156520000000  0.4983340000000 1.0
C      1  0.4945970000000  0.5477520000000  0.5544550000000 1.0
C      1  0.5369140000000  0.5607350000000  0.4598720000000 1.0
C      1  0.4270910000000  0.5309800000000  0.4344850000000 1.0
C      1  0.4668600000000  0.6054240000000  0.4768940000000 1.0
C      1  0.4953300000000  0.4869990000000  0.4786000000000 1.0
C      1  0.4292130000000  0.5421140000000  0.5794610000000 1.0
C      1  0.5327040000000  0.6005050000000  0.5109730000000 1.0
C      1  0.4994610000000  0.5288880000000  0.6133180000000 1.0
C      1  0.5102210000000  0.5349010000000  0.4080780000000 1.0
C      1  0.4935900000000  0.6092820000000  0.4845190000000 1.0
C      1  0.4802880000000  0.4761480000000  0.5869340000000 1.0
C      1  0.5805340000000  0.4559340000000  0.5683810000000 1.0
C      1  0.5792740000000  0.4515790000000  0.4377260000000 1.0
C      1  0.4066550000000  0.4917410000000  0.5350770000000 1.0
C      1  0.5130600000000  0.4144520000000  0.5650410000000 1.0
C      1  0.5508010000000  0.5853180000000  0.5305000000000 1.0
C      1  0.4315270000000  0.4171690000000  0.4682700000000 1.0
C      1  0.4865550000000  0.4021490000000  0.4899530000000 1.0
C      1  0.5070020000000  0.4466600000000  0.4664200000000 1.0
C      1  0.4045560000000  0.4666550000000  0.5207310000000 1.0
C      1  0.4668670000000  0.5136870000000  0.4989260000000 1.0
C      1  0.5122740000000  0.5160140000000  0.3846630000000 1.0
C      1  0.4636160000000  0.5408370000000  0.4056540000000 1.0
C      1  0.4054710000000  0.5116800000000  0.4861490000000 1.0
C      1  0.4473670000000  0.4940290000000  0.4117360000000 1.0
C      1  0.4958140000000  0.5676890000000  0.5310220000000 1.0
C      1  0.5578280000000  0.5799840000000  0.4708300000000 1.0
C      1  0.4335040000000  0.5212190000000  0.4760530000000 1.0
C      1  0.4387850000000  0.5528050000000  0.5542740000000 1.0
C      1  0.5436690000000  0.4494960000000  0.5448730000000 1.0
C      1  0.5587280000000  0.4440630000000  0.4570150000000 1.0
C      1  0.4162110000000  0.4847230000000  0.5621800000000 1.0
C      1  0.4685050000000  0.4263860000000  0.4341430000000 1.0
C      1  0.5415610000000  0.6025380000000  0.4820560000000 1.0
C      1  0.4475870000000  0.4739110000000  0.4970890000000 1.0
C      1  0.4380770000000  0.5053550000000  0.6029240000000 1.0
C      1  0.4193140000000  0.5652180000000  0.5363220000000 1.0
C      1  0.5200650000000  0.5452420000000  0.6001580000000 1.0
C      1  0.5577120000000  0.4125140000000  0.4949380000000 1.0
C      1  0.4928860000000  0.5248270000000  0.5008890000000 1.0
C      1  0.4809830000000  0.4110520000000  0.5647960000000 1.0
C      1  0.4766190000000  0.5247710000000  0.5455650000000 1.0
C      1  0.5545060000000  0.4157270000000  0.4649300000000 1.0
C      1  0.5853670000000  0.5367670000000  0.4843050000000 1.0
C      1  0.5261100000000  0.5042000000000  0.5666690000000 1.0
C      1  0.4650270000000  0.4316630000000  0.5805530000000 1.0
C      1  0.5120540000000  0.5693150000000  0.4793860000000 1.0
C      1  0.5682240000000  0.5269700000000  0.5751790000000 1.0
C      1  0.4042530000000  0.4832910000000  0.4747060000000 1.0
C      1  0.4862070000000  0.5540800000000  0.4684780000000 1.0
C      1  0.6117890000000  0.4873990000000  0.5404400000000 1.0
C      1  0.5717090000000  0.5689590000000  0.5184260000000 1.0
C      1  0.4295450000000  0.5871660000000  0.5185620000000 1.0
C      1  0.5588870000000  0.4247600000000  0.5423770000000 1.0
C      1  0.4113720000000  0.4432460000000  0.5376150000000 1.0
C      1  0.5362000000000  0.5263360000000  0.4876380000000 1.0
C      1  0.5459410000000  0.5757770000000  0.5583180000000 1.0
C      1  0.5381800000000  0.4731320000000  0.5268890000000 1.0
C      1  0.4663450000000  0.4488890000000  0.4997130000000 1.0
C      1  0.5283340000000  0.5187460000000  0.5303620000000 1.0
C      1  0.5265380000000  0.4075150000000  0.4592490000000 1.0
C      1  0.5083040000000  0.4346480000000  0.5230830000000 1.0
C      1  0.5943380000000  0.4908660000000  0.4882340000000 1.0
C      1  0.4514350000000  0.5818530000000  0.4713660000000 1.0
C      1  0.4635950000000  0.5061340000000  0.4671790000000 1.0
C      1  0.5162120000000  0.6050450000000  0.4674540000000 1.0
C      1  0.5081010000000  0.5022300000000  0.6156460000000 1.0
C      1  0.5892350000000  0.4691630000000  0.5409250000000 1.0
C      1  0.4758210000000  0.4555220000000  0.5658070000000 1.0
C      1  0.5161220000000  0.4937370000000  0.5388890000000 1.0
C      1  0.5292700000000  0.4739770000000  0.4277800000000 1.0
C      1  0.4180650000000  0.4303910000000  0.4473040000000 1.0
C      1  0.4555170000000  0.5969590000000  0.5249460000000 1.0
C      1  0.5322160000000  0.5079930000000  0.4474480000000 1.0
C      1  0.4271560000000  0.4252380000000  0.5198600000000 1.0
C      1  0.4896950000000  0.4969410000000  0.3910570000000 1.0
C      1  0.5184500000000  0.5337720000000  0.5082310000000 1.0
C      1  0.4541590000000  0.4590620000000  0.5450030000000 1.0
C      1  0.5178320000000  0.5643690000000  0.5109610000000 1.0
C      1  0.4906890000000  0.4689090000000  0.5039040000000 1.0
C      1  0.5135870000000  0.4514040000000  0.4973910000000 1.0
C      1  0.5958110000000  0.5334280000000  0.5412910000000 1.0
C      1  0.3933070000000  0.5376420000000  0.4735960000000 1.0
C      1  0.4837140000000  0.5606570000000  0.5800640000000 1.0
C      1  0.4765460000000  0.5364490000000  0.5957690000000 1.0
C      1  0.4849500000000  0.4717320000000  0.4505740000000 1.0
C      1  0.5493460000000  0.5455020000000  0.5587350000000 1.0
C      1  0.4278300000000  0.4554870000000  0.5597530000000 1.0
C      1  0.5317210000000  0.4075600000000  0.5378450000000 1.0
C      1  0.5781310000000  0.5673380000000  0.4892540000000 1.0
C      1  0.4472150000000  0.5386290000000  0.5009910000000 1.0
C      1  0.4592480000000  0.4546790000000  0.4349550000000 1.0
C      1  0.4886840000000  0.5547710000000  0.4068940000000 1.0
C      1  0.4589760000000  0.4835960000000  0.5263370000000 1.0
C      1  0.5657250000000  0.4881940000000  0.5357200000000 1.0
C      1  0.4956840000000  0.4262300000000  0.4232640000000 1.0
C      1  0.5319700000000  0.4543480000000  0.4496360000000 1.0
C      1  0.4702650000000  0.4106380000000  0.5364720000000 1.0
C      1  0.4362770000000  0.4347890000000  0.5798500000000 1.0
C      1  0.4795760000000  0.4294290000000  0.4786230000000 1.0
C      1  0.4909280000000  0.5707660000000  0.4334510000000 1.0
C      1  0.4573410000000  0.5737630000000  0.4422860000000 1.0
C      1  0.5086370000000  0.5721640000000  0.5926840000000 1.0
C      1  0.6112280000000  0.5129690000000  0.5276260000000 1.0
C      1  0.4186380000000  0.4645940000000  0.4943790000000 1.0
C      1  0.5003740000000  0.4860000000000  0.4270300000000 1.0
C      1  0.5564100000000  0.4996590000000  0.5670840000000 1.0
C      1  0.5253010000000  0.5856300000000  0.5744560000000 1.0
C      1  0.4999470000000  0.4535020000000  0.5485600000000 1.0
C      1  0.5386610000000  0.5041160000000  0.3819780000000 1.0
C      1  0.4326350000000  0.5022930000000  0.4357610000000 1.0
C      1  0.4852630000000  0.4984570000000  0.5358150000000 1.0
C      1  0.4551600000000  0.4346430000000  0.5258060000000 1.0
C      1  0.4195530000000  0.5819380000000  0.4907950000000 1.0
C      1  0.5565210000000  0.5381440000000  0.4167350000000 1.0
C      1  0.4637090000000  0.5604220000000  0.4873970000000 1.0
C      1  0.4011400000000  0.5584900000000  0.4937750000000 1.0
C      1  0.5597970000000  0.4742580000000  0.5838460000000 1.0
C      1  0.4063210000000  0.5149810000000  0.5165260000000 1.0
C      1  0.4776220000000  0.5284640000000  0.4505810000000 1.0
C      1  0.4069610000000  0.5447830000000  0.5187360000000 1.0
C      1  0.4617950000000  0.4129630000000  0.4608230000000 1.0
END
