TITL C-951344-124-529 6.19184446766852e-07 125000 -490.971314073855 0 0 81 (C1) n - 1
REM
REM in /home/bkarasulu/work/CARBON/AIRSS/Generating-Clusters/EDIP-Nigel-Params/with-SteepDescent/Only-C1/SD-CG/HFTN-CG
REM
REM
REM
REM
REM
REM ./C.cell (11c1c37f851c82e70ff6c80c92926a4b)
REM
REM compiler GCC version 9.2.1 20190827 (Red Hat 9.2.1-1)
REM options -cpp -mtune=generic -march=x86-64 -g -O0 -fpre-include=/usr/include/finclude/math-vector-fortran.h
REM seed -1459338742 -1141117549 469831651 2001452788 1659055763 738210155 -23996291 -692959583 -321443973 -1005482354 -302837450 388603743 -825855879 1147902820 -1644351009 898270568 -1888685352 -1220853438 1086990215 1444134594 229018102 -1380255712 324101879 366437346 -2086194516 1898914109 1541503568 -512124651 490426193 1772987974 2037986217 1992539587 514095113
REM
CELL 1.54180   50.00000   50.00000   50.00000   90.00000   90.00000   90.00000
LATT -1
SFAC C  
C      1  0.4881580000000  0.5176190000000  0.4196250000000 1.0
C      1  0.5282020000000  0.5749960000000  0.4651310000000 1.0
C      1  0.5503740000000  0.5319620000000  0.4964050000000 1.0
C      1  0.4832110000000  0.5091630000000  0.4473430000000 1.0
C      1  0.4501860000000  0.5247750000000  0.5014330000000 1.0
C      1  0.4650290000000  0.5598820000000  0.4772240000000 1.0
C      1  0.4409170000000  0.5144500000000  0.4590590000000 1.0
C      1  0.5677060000000  0.4684570000000  0.4756130000000 1.0
C      1  0.5068620000000  0.4899280000000  0.5154010000000 1.0
C      1  0.4925710000000  0.5649500000000  0.4411910000000 1.0
C      1  0.4873210000000  0.5477360000000  0.5700150000000 1.0
C      1  0.4779610000000  0.5191400000000  0.4843770000000 1.0
C      1  0.4538570000000  0.4537770000000  0.5479720000000 1.0
C      1  0.5517490000000  0.5125170000000  0.4739900000000 1.0
C      1  0.5227080000000  0.4168250000000  0.4758350000000 1.0
C      1  0.5124130000000  0.4124400000000  0.5237660000000 1.0
C      1  0.5608980000000  0.5508090000000  0.4427850000000 1.0
C      1  0.4816110000000  0.4747910000000  0.5844930000000 1.0
C      1  0.4413130000000  0.5323810000000  0.5693650000000 1.0
C      1  0.4997050000000  0.5416330000000  0.4854810000000 1.0
C      1  0.4638590000000  0.5640580000000  0.5314820000000 1.0
C      1  0.5034150000000  0.5670830000000  0.5559960000000 1.0
C      1  0.4554460000000  0.4544720000000  0.4887040000000 1.0
C      1  0.5699820000000  0.5529980000000  0.5349170000000 1.0
C      1  0.5085620000000  0.4681290000000  0.5886400000000 1.0
C      1  0.5446230000000  0.4292830000000  0.4591700000000 1.0
C      1  0.5632850000000  0.4411760000000  0.4796110000000 1.0
C      1  0.5323580000000  0.4130200000000  0.5039880000000 1.0
C      1  0.4734220000000  0.4209810000000  0.4864500000000 1.0
C      1  0.4275350000000  0.4853010000000  0.5186250000000 1.0
C      1  0.4321550000000  0.4612710000000  0.5320520000000 1.0
C      1  0.5123430000000  0.5505780000000  0.4599570000000 1.0
C      1  0.4890690000000  0.4170010000000  0.5358990000000 1.0
C      1  0.4170450000000  0.4886330000000  0.4927720000000 1.0
C      1  0.5544150000000  0.4332760000000  0.5074490000000 1.0
C      1  0.5226670000000  0.4736270000000  0.4540070000000 1.0
C      1  0.5512610000000  0.5752450000000  0.4492330000000 1.0
C      1  0.5328420000000  0.4932570000000  0.4163370000000 1.0
C      1  0.5670410000000  0.4811990000000  0.5427380000000 1.0
C      1  0.5304320000000  0.4760690000000  0.5043110000000 1.0
C      1  0.4275440000000  0.5139490000000  0.4847410000000 1.0
C      1  0.4539080000000  0.5412250000000  0.4547610000000 1.0
C      1  0.5147960000000  0.5169200000000  0.5258500000000 1.0
C      1  0.4620880000000  0.5470030000000  0.5558880000000 1.0
C      1  0.4456170000000  0.5062640000000  0.5249210000000 1.0
C      1  0.4553690000000  0.4725940000000  0.4286540000000 1.0
C      1  0.4901060000000  0.5767940000000  0.5323100000000 1.0
C      1  0.4738670000000  0.4731650000000  0.4749250000000 1.0
C      1  0.5058020000000  0.5940190000000  0.4646250000000 1.0
C      1  0.4747230000000  0.4668100000000  0.4083890000000 1.0
C      1  0.4792450000000  0.4515910000000  0.4320510000000 1.0
C      1  0.5590320000000  0.5248280000000  0.4498060000000 1.0
C      1  0.4726770000000  0.4759710000000  0.5550000000000 1.0
C      1  0.4667490000000  0.4299270000000  0.5426970000000 1.0
C      1  0.4871670000000  0.4927550000000  0.4932310000000 1.0
C      1  0.5615640000000  0.5093260000000  0.5406110000000 1.0
C      1  0.4509310000000  0.5556900000000  0.5054960000000 1.0
C      1  0.4592720000000  0.5035100000000  0.5506840000000 1.0
C      1  0.5461660000000  0.4700250000000  0.4230380000000 1.0
C      1  0.5246260000000  0.5629810000000  0.5241710000000 1.0
C      1  0.5711760000000  0.5286590000000  0.5197340000000 1.0
C      1  0.4764030000000  0.5032590000000  0.5914540000000 1.0
C      1  0.5240210000000  0.5111130000000  0.5730200000000 1.0
C      1  0.5482220000000  0.4679380000000  0.5593980000000 1.0
C      1  0.4479890000000  0.4294220000000  0.4796450000000 1.0
C      1  0.4601170000000  0.4905580000000  0.4526040000000 1.0
C      1  0.5333870000000  0.4489290000000  0.4386080000000 1.0
C      1  0.5215410000000  0.5381080000000  0.5067790000000 1.0
C      1  0.5143820000000  0.5123470000000  0.4118120000000 1.0
C      1  0.4951250000000  0.4748180000000  0.5368900000000 1.0
C      1  0.5427080000000  0.4828820000000  0.4774880000000 1.0
C      1  0.4485290000000  0.5113160000000  0.5868990000000 1.0
C      1  0.4964680000000  0.5207200000000  0.5780950000000 1.0
C      1  0.4731330000000  0.5434010000000  0.4312000000000 1.0
C      1  0.5434450000000  0.5520160000000  0.5453350000000 1.0
C      1  0.5443370000000  0.4577310000000  0.5223780000000 1.0
C      1  0.4941420000000  0.4568050000000  0.4583280000000 1.0
C      1  0.5291330000000  0.4821560000000  0.5760530000000 1.0
C      1  0.5354320000000  0.5220880000000  0.5477560000000 1.0
C      1  0.4968340000000  0.4308420000000  0.4732550000000 1.0
C      1  0.4777190000000  0.5846570000000  0.4625760000000 1.0
END
