TITL C-950533-5798-499 7.46843264124959e-07 125000 -505.452520224411 0 0 82 (C1) n - 1
REM
REM in /home/bkarasulu/work/CARBON/AIRSS/Generating-Clusters/EDIP-Nigel-Params/with-SteepDescent/Only-C1/SD-CG/HFTN-CG
REM
REM
REM
REM
REM
REM ./C.cell (11c1c37f851c82e70ff6c80c92926a4b)
REM
REM compiler GCC version 9.2.1 20190827 (Red Hat 9.2.1-1)
REM options -cpp -mtune=generic -march=x86-64 -g -O0 -fpre-include=/usr/include/finclude/math-vector-fortran.h
REM seed 353055464 -1469904889 -831060306 -959540739 619653504 -883334488 -1482409052 -595560944 1612546315 962708906 555124843 148840 737872942 1088917296 464135612 -886230308 1129016432 -2093543878 -1234141254 142428506 296092665 370090367 -1709713138 -701561428 -1620472885 1689324951 -983896627 849462550 -1831086759 -1618488507 -2138271594 545486661 979577025
REM
CELL 1.54180   50.00000   50.00000   50.00000   90.00000   90.00000   90.00000
LATT -1
SFAC C  
C      1  0.5271180000000  0.5577740000000  0.5360710000000 1.0
C      1  0.5128350000000  0.4431440000000  0.4476130000000 1.0
C      1  0.5833800000000  0.4902370000000  0.5299280000000 1.0
C      1  0.5265360000000  0.4441340000000  0.4753890000000 1.0
C      1  0.5244340000000  0.5484920000000  0.4534740000000 1.0
C      1  0.4214700000000  0.5031340000000  0.4751880000000 1.0
C      1  0.4576180000000  0.4846170000000  0.5004360000000 1.0
C      1  0.4934170000000  0.4777460000000  0.5302270000000 1.0
C      1  0.5199470000000  0.4702140000000  0.5163090000000 1.0
C      1  0.4316010000000  0.4662180000000  0.5228000000000 1.0
C      1  0.4676500000000  0.5124420000000  0.5650030000000 1.0
C      1  0.4698030000000  0.5112560000000  0.4650120000000 1.0
C      1  0.5200440000000  0.5585530000000  0.4808970000000 1.0
C      1  0.5074460000000  0.4828070000000  0.5709570000000 1.0
C      1  0.4523580000000  0.4332720000000  0.4896940000000 1.0
C      1  0.5753900000000  0.5413430000000  0.5300290000000 1.0
C      1  0.5570130000000  0.5317450000000  0.4796980000000 1.0
C      1  0.5119530000000  0.5825810000000  0.5308320000000 1.0
C      1  0.5485810000000  0.4582040000000  0.5474050000000 1.0
C      1  0.5010310000000  0.4773540000000  0.4223360000000 1.0
C      1  0.4661350000000  0.4403420000000  0.5591300000000 1.0
C      1  0.4771660000000  0.4474690000000  0.5318010000000 1.0
C      1  0.4764740000000  0.5707910000000  0.4899990000000 1.0
C      1  0.5159960000000  0.4692630000000  0.4873120000000 1.0
C      1  0.4457710000000  0.4914330000000  0.4188210000000 1.0
C      1  0.5007270000000  0.4264710000000  0.5290340000000 1.0
C      1  0.4937020000000  0.5125820000000  0.4873690000000 1.0
C      1  0.5879400000000  0.5177500000000  0.5284490000000 1.0
C      1  0.4463360000000  0.5470490000000  0.5238720000000 1.0
C      1  0.4563610000000  0.4659680000000  0.5680240000000 1.0
C      1  0.4809760000000  0.4978170000000  0.5113170000000 1.0
C      1  0.4920420000000  0.5605260000000  0.5670430000000 1.0
C      1  0.5092790000000  0.4312680000000  0.5579780000000 1.0
C      1  0.4909930000000  0.5294860000000  0.5746170000000 1.0
C      1  0.5296940000000  0.5033580000000  0.4490700000000 1.0
C      1  0.4519400000000  0.4444910000000  0.5152090000000 1.0
C      1  0.5215180000000  0.4584570000000  0.5590440000000 1.0
C      1  0.4411080000000  0.5077700000000  0.5515870000000 1.0
C      1  0.5452960000000  0.5292480000000  0.4520220000000 1.0
C      1  0.4860740000000  0.5742540000000  0.5402690000000 1.0
C      1  0.4585000000000  0.5642580000000  0.4676980000000 1.0
C      1  0.5830720000000  0.4747330000000  0.5043170000000 1.0
C      1  0.5572260000000  0.4453580000000  0.4741250000000 1.0
C      1  0.5489740000000  0.5574970000000  0.4930130000000 1.0
C      1  0.5005440000000  0.5404400000000  0.4972160000000 1.0
C      1  0.4353110000000  0.4781880000000  0.5506490000000 1.0
C      1  0.4602870000000  0.5138540000000  0.4181770000000 1.0
C      1  0.4873500000000  0.4600870000000  0.4431870000000 1.0
C      1  0.4608050000000  0.4818760000000  0.4704390000000 1.0
C      1  0.5648120000000  0.4817150000000  0.5496990000000 1.0
C      1  0.4301000000000  0.4998990000000  0.5057260000000 1.0
C      1  0.5224940000000  0.5508450000000  0.5657390000000 1.0
C      1  0.5280970000000  0.4607780000000  0.4265950000000 1.0
C      1  0.4692440000000  0.5622850000000  0.5188070000000 1.0
C      1  0.4599020000000  0.4491700000000  0.4403830000000 1.0
C      1  0.4531940000000  0.4332510000000  0.4627660000000 1.0
C      1  0.5239780000000  0.4321340000000  0.5102670000000 1.0
C      1  0.4796860000000  0.5218060000000  0.4373880000000 1.0
C      1  0.5171320000000  0.5121510000000  0.5664070000000 1.0
C      1  0.4422690000000  0.5231480000000  0.4701420000000 1.0
C      1  0.5475290000000  0.5054280000000  0.4930080000000 1.0
C      1  0.4334650000000  0.5222460000000  0.5270910000000 1.0
C      1  0.4866160000000  0.4293370000000  0.5751680000000 1.0
C      1  0.4353230000000  0.5499920000000  0.4726540000000 1.0
C      1  0.4778590000000  0.4858660000000  0.5704110000000 1.0
C      1  0.5400970000000  0.4940300000000  0.5229240000000 1.0
C      1  0.4319650000000  0.4764790000000  0.4636710000000 1.0
C      1  0.5543120000000  0.5579350000000  0.5222890000000 1.0
C      1  0.5179790000000  0.5680820000000  0.4336010000000 1.0
C      1  0.4376820000000  0.4696080000000  0.4345520000000 1.0
C      1  0.5014680000000  0.5826310000000  0.4758430000000 1.0
C      1  0.5697480000000  0.4473500000000  0.5021470000000 1.0
C      1  0.5466480000000  0.4807050000000  0.4392520000000 1.0
C      1  0.5123560000000  0.5356600000000  0.5235760000000 1.0
C      1  0.4943830000000  0.5794910000000  0.4458460000000 1.0
C      1  0.5720720000000  0.4901210000000  0.4816440000000 1.0
C      1  0.5660020000000  0.4701990000000  0.4598130000000 1.0
C      1  0.4736510000000  0.5587060000000  0.4439020000000 1.0
C      1  0.5054320000000  0.5057250000000  0.4307710000000 1.0
C      1  0.5208700000000  0.4972350000000  0.4781360000000 1.0
C      1  0.5505260000000  0.4397230000000  0.5237940000000 1.0
C      1  0.5158850000000  0.5089160000000  0.5359080000000 1.0
END
