TITL C-950535-5962-613 -1.63348359945756e-06 125000 -604.027332963996 0 0 98 (C1) n - 1
REM
REM in /home/bkarasulu/work/CARBON/AIRSS/Generating-Clusters/EDIP-Nigel-Params/with-SteepDescent/Only-C1/SD-CG/HFTN-CG
REM
REM
REM
REM
REM
REM ./C.cell (11c1c37f851c82e70ff6c80c92926a4b)
REM
REM compiler GCC version 9.2.1 20190827 (Red Hat 9.2.1-1)
REM options -cpp -mtune=generic -march=x86-64 -g -O0 -fpre-include=/usr/include/finclude/math-vector-fortran.h
REM seed -671769255 241663960 1391131551 -676751209 1935357792 244282074 1640329612 -1683080172 1623919036 -719533177 -847670674 1618088741 327414220 -994988553 169191205 1304084607 -829507733 654226819 215920557 -1621672416 -1406894779 -377328535 -705517617 2136700507 355238110 459726015 -1292137485 -358851975 -1252236026 1282880837 -428768791 -990871958 787904604
REM
CELL 1.54180   50.00000   50.00000   50.00000   90.00000   90.00000   90.00000
LATT -1
SFAC C  
C      1  0.5544450000000  0.5715810000000  0.5151180000000 1.0
C      1  0.4517610000000  0.5377270000000  0.4544480000000 1.0
C      1  0.5397980000000  0.5236300000000  0.4955670000000 1.0
C      1  0.4830180000000  0.4508430000000  0.4352900000000 1.0
C      1  0.5302380000000  0.4440370000000  0.4400470000000 1.0
C      1  0.5424640000000  0.4878690000000  0.5494030000000 1.0
C      1  0.4703730000000  0.5302760000000  0.4763730000000 1.0
C      1  0.4957830000000  0.4186560000000  0.4701750000000 1.0
C      1  0.5313650000000  0.5261900000000  0.4197070000000 1.0
C      1  0.5081970000000  0.5487600000000  0.5747190000000 1.0
C      1  0.4324030000000  0.5130180000000  0.4540840000000 1.0
C      1  0.4879330000000  0.5248780000000  0.5105900000000 1.0
C      1  0.4677860000000  0.4301920000000  0.5190020000000 1.0
C      1  0.4622080000000  0.5528660000000  0.5596570000000 1.0
C      1  0.4686810000000  0.4797810000000  0.4781820000000 1.0
C      1  0.5609550000000  0.5115890000000  0.5526420000000 1.0
C      1  0.4789390000000  0.5191090000000  0.4138200000000 1.0
C      1  0.5426880000000  0.4369180000000  0.4887380000000 1.0
C      1  0.4718310000000  0.5433880000000  0.4312800000000 1.0
C      1  0.4540730000000  0.5708170000000  0.5055640000000 1.0
C      1  0.5198100000000  0.4191600000000  0.4988740000000 1.0
C      1  0.4645410000000  0.4937080000000  0.4188170000000 1.0
C      1  0.4249570000000  0.5072210000000  0.5300630000000 1.0
C      1  0.4183210000000  0.4549200000000  0.4692750000000 1.0
C      1  0.5100800000000  0.5005510000000  0.5526190000000 1.0
C      1  0.5731650000000  0.5163040000000  0.4777530000000 1.0
C      1  0.5547160000000  0.5105780000000  0.4216700000000 1.0
C      1  0.4308750000000  0.4599580000000  0.5429470000000 1.0
C      1  0.5039000000000  0.4362800000000  0.4480500000000 1.0
C      1  0.4222330000000  0.4934560000000  0.5038230000000 1.0
C      1  0.4366290000000  0.5382890000000  0.5610460000000 1.0
C      1  0.5737650000000  0.5648780000000  0.4919540000000 1.0
C      1  0.5596000000000  0.4470750000000  0.5099440000000 1.0
C      1  0.5379760000000  0.5411860000000  0.4689610000000 1.0
C      1  0.4593240000000  0.4459690000000  0.5434100000000 1.0
C      1  0.5280400000000  0.4841650000000  0.4585610000000 1.0
C      1  0.5768530000000  0.4704600000000  0.5028020000000 1.0
C      1  0.5789100000000  0.5107210000000  0.5289650000000 1.0
C      1  0.5867220000000  0.4697150000000  0.5508040000000 1.0
C      1  0.5599300000000  0.4630970000000  0.5563620000000 1.0
C      1  0.4835720000000  0.4716990000000  0.4151670000000 1.0
C      1  0.5101060000000  0.4815650000000  0.4069870000000 1.0
C      1  0.5626250000000  0.4890160000000  0.4807130000000 1.0
C      1  0.4344800000000  0.4857950000000  0.5717700000000 1.0
C      1  0.4842020000000  0.5052490000000  0.4718880000000 1.0
C      1  0.5651960000000  0.4715320000000  0.4548210000000 1.0
C      1  0.5254790000000  0.4316850000000  0.5455530000000 1.0
C      1  0.5300170000000  0.4111210000000  0.5258510000000 1.0
C      1  0.4518000000000  0.5883200000000  0.5275430000000 1.0
C      1  0.4945710000000  0.4586830000000  0.4850630000000 1.0
C      1  0.4975180000000  0.5545220000000  0.4439860000000 1.0
C      1  0.4161330000000  0.4875500000000  0.5508030000000 1.0
C      1  0.5066470000000  0.5424370000000  0.5252750000000 1.0
C      1  0.4381690000000  0.4635100000000  0.4512560000000 1.0
C      1  0.5504390000000  0.4449750000000  0.4607000000000 1.0
C      1  0.5090320000000  0.5069490000000  0.4567570000000 1.0
C      1  0.5227620000000  0.4984000000000  0.5041670000000 1.0
C      1  0.5285150000000  0.5828960000000  0.5063140000000 1.0
C      1  0.5556200000000  0.5660420000000  0.4678890000000 1.0
C      1  0.4971690000000  0.5716670000000  0.4694890000000 1.0
C      1  0.5206370000000  0.4750540000000  0.4856670000000 1.0
C      1  0.4830280000000  0.5669590000000  0.4969660000000 1.0
C      1  0.5328240000000  0.4685480000000  0.4227490000000 1.0
C      1  0.5541980000000  0.4389180000000  0.5388410000000 1.0
C      1  0.5268720000000  0.5778890000000  0.4770950000000 1.0
C      1  0.5820600000000  0.5346070000000  0.4989050000000 1.0
C      1  0.4837170000000  0.4592650000000  0.5532010000000 1.0
C      1  0.4683420000000  0.4731400000000  0.5096780000000 1.0
C      1  0.4358990000000  0.4676350000000  0.5125710000000 1.0
C      1  0.4376190000000  0.5014210000000  0.4808760000000 1.0
C      1  0.4487160000000  0.5108720000000  0.5697300000000 1.0
C      1  0.4620100000000  0.5198380000000  0.5305850000000 1.0
C      1  0.4406560000000  0.4898000000000  0.4366140000000 1.0
C      1  0.4406130000000  0.5458560000000  0.5120410000000 1.0
C      1  0.4950480000000  0.5857090000000  0.5460260000000 1.0
C      1  0.5897910000000  0.4838100000000  0.5264500000000 1.0
C      1  0.4959760000000  0.4385180000000  0.5102630000000 1.0
C      1  0.5459240000000  0.5353340000000  0.5493660000000 1.0
C      1  0.5190600000000  0.5329040000000  0.4464080000000 1.0
C      1  0.4882900000000  0.4670380000000  0.5798290000000 1.0
C      1  0.5502830000000  0.5417660000000  0.5205660000000 1.0
C      1  0.4604790000000  0.4461440000000  0.4507370000000 1.0
C      1  0.5098250000000  0.5761740000000  0.5681620000000 1.0
C      1  0.4221910000000  0.5377740000000  0.5339200000000 1.0
C      1  0.5169540000000  0.5315970000000  0.5514860000000 1.0
C      1  0.4962690000000  0.4937930000000  0.5784150000000 1.0
C      1  0.4804270000000  0.5420400000000  0.5798030000000 1.0
C      1  0.4502000000000  0.4268340000000  0.4953530000000 1.0
C      1  0.4662170000000  0.5805520000000  0.5502840000000 1.0
C      1  0.4743430000000  0.5134450000000  0.5843740000000 1.0
C      1  0.4854380000000  0.4952230000000  0.5273030000000 1.0
C      1  0.5034920000000  0.5715110000000  0.5197010000000 1.0
C      1  0.4270730000000  0.4456810000000  0.4946220000000 1.0
C      1  0.5083650000000  0.5120650000000  0.4053820000000 1.0
C      1  0.5462940000000  0.4876400000000  0.5193410000000 1.0
C      1  0.5583160000000  0.4834050000000  0.4268600000000 1.0
C      1  0.4670380000000  0.4267210000000  0.4710260000000 1.0
C      1  0.5061790000000  0.4510900000000  0.5357080000000 1.0
END
