TITL C-950530-3293-238 -3.85074124271405e-06 125000 -1118.68561589083 0 0 177 (C1) n - 1
REM
REM in /home/bkarasulu/work/CARBON/AIRSS/Generating-Clusters/EDIP-Nigel-Params/with-SteepDescent/Only-C1/SD-CG/HFTN-CG
REM
REM
REM
REM
REM
REM ./C.cell (11c1c37f851c82e70ff6c80c92926a4b)
REM
REM compiler GCC version 9.2.1 20190827 (Red Hat 9.2.1-1)
REM options -cpp -mtune=generic -march=x86-64 -g -O0 -fpre-include=/usr/include/finclude/math-vector-fortran.h
REM seed 81767354 -207161461 -1755382252 2129362721 623706792 -461266928 -1649331556 1973202238 1176786311 -1858184386 -2094041415 1362259364 -322512219 1995969155 80561352 2047524066 1398078803 -1773398115 198282142 -2096627087 1393395876 267300286 2112372685 -109982511 1921893151 1533050815 -1246311770 94735519 -602962831 -2052648520 1450350008 845021384 529768451
REM
CELL 1.54180   50.00000   50.00000   50.00000   90.00000   90.00000   90.00000
LATT -1
SFAC C  
C      1  0.4246220000000  0.5139140000000  0.4785750000000 1.0
C      1  0.4127300000000  0.4862870000000  0.5751030000000 1.0
C      1  0.6072570000000  0.4606500000000  0.5343420000000 1.0
C      1  0.3845410000000  0.5058430000000  0.5071110000000 1.0
C      1  0.4850680000000  0.5882390000000  0.5482510000000 1.0
C      1  0.5079280000000  0.4076990000000  0.5533590000000 1.0
C      1  0.4966050000000  0.4746270000000  0.5490480000000 1.0
C      1  0.4353530000000  0.5517880000000  0.4264250000000 1.0
C      1  0.4223960000000  0.5054910000000  0.4151440000000 1.0
C      1  0.4887330000000  0.4169350000000  0.5320870000000 1.0
C      1  0.4557110000000  0.4984340000000  0.5439790000000 1.0
C      1  0.4664270000000  0.5386510000000  0.4653350000000 1.0
C      1  0.4607810000000  0.4915890000000  0.4507300000000 1.0
C      1  0.4773440000000  0.3940500000000  0.5108620000000 1.0
C      1  0.5236950000000  0.4960880000000  0.5146350000000 1.0
C      1  0.5247330000000  0.4998770000000  0.4852620000000 1.0
C      1  0.4851690000000  0.5452370000000  0.4050410000000 1.0
C      1  0.4187160000000  0.4760180000000  0.5219130000000 1.0
C      1  0.3939440000000  0.4906940000000  0.5312940000000 1.0
C      1  0.5506530000000  0.4613360000000  0.4899130000000 1.0
C      1  0.4510720000000  0.5100740000000  0.4116410000000 1.0
C      1  0.4949320000000  0.4923530000000  0.5243690000000 1.0
C      1  0.3878820000000  0.4895540000000  0.4819260000000 1.0
C      1  0.4606610000000  0.4851610000000  0.6007610000000 1.0
C      1  0.5598890000000  0.4750580000000  0.5870470000000 1.0
C      1  0.4004850000000  0.5042890000000  0.5574050000000 1.0
C      1  0.4317850000000  0.4904920000000  0.4608190000000 1.0
C      1  0.5729630000000  0.4490000000000  0.5773010000000 1.0
C      1  0.4506470000000  0.5658320000000  0.4569830000000 1.0
C      1  0.5737040000000  0.5313940000000  0.5607590000000 1.0
C      1  0.5467750000000  0.5590540000000  0.4186770000000 1.0
C      1  0.5724390000000  0.4939110000000  0.5249890000000 1.0
C      1  0.5157400000000  0.5428890000000  0.4784880000000 1.0
C      1  0.5571290000000  0.4114300000000  0.5486500000000 1.0
C      1  0.4884200000000  0.5435990000000  0.4840000000000 1.0
C      1  0.4560770000000  0.5393130000000  0.4083330000000 1.0
C      1  0.5518810000000  0.4299140000000  0.5703190000000 1.0
C      1  0.4261770000000  0.4556140000000  0.5427110000000 1.0
C      1  0.5338420000000  0.4096420000000  0.4641170000000 1.0
C      1  0.4155550000000  0.5696950000000  0.5276430000000 1.0
C      1  0.4834270000000  0.5494390000000  0.5119400000000 1.0
C      1  0.5230360000000  0.5764760000000  0.4216740000000 1.0
C      1  0.5752830000000  0.4443810000000  0.4801560000000 1.0
C      1  0.4668250000000  0.4700590000000  0.5537660000000 1.0
C      1  0.4100160000000  0.4620140000000  0.4961750000000 1.0
C      1  0.4153690000000  0.5731300000000  0.4978990000000 1.0
C      1  0.4687720000000  0.5087810000000  0.5846290000000 1.0
C      1  0.5575390000000  0.5348630000000  0.4571570000000 1.0
C      1  0.3991720000000  0.5467810000000  0.5345230000000 1.0
C      1  0.3971610000000  0.5522910000000  0.4868810000000 1.0
C      1  0.5278060000000  0.5309210000000  0.3853400000000 1.0
C      1  0.3930020000000  0.5267780000000  0.4459540000000 1.0
C      1  0.5057300000000  0.4625010000000  0.6056620000000 1.0
C      1  0.5178980000000  0.5381360000000  0.5432040000000 1.0
C      1  0.5095360000000  0.4209440000000  0.5779210000000 1.0
C      1  0.5365560000000  0.5057970000000  0.6161330000000 1.0
C      1  0.4671310000000  0.4379380000000  0.5907900000000 1.0
C      1  0.4393330000000  0.4180870000000  0.4890290000000 1.0
C      1  0.5115130000000  0.5571170000000  0.5216830000000 1.0
C      1  0.5717680000000  0.4397920000000  0.4506000000000 1.0
C      1  0.5991320000000  0.5484030000000  0.5173580000000 1.0
C      1  0.5683280000000  0.4867050000000  0.4309520000000 1.0
C      1  0.4604240000000  0.4629900000000  0.4357600000000 1.0
C      1  0.4572440000000  0.4067850000000  0.4429980000000 1.0
C      1  0.4548420000000  0.4625780000000  0.5816550000000 1.0
C      1  0.4501820000000  0.5221200000000  0.4901050000000 1.0
C      1  0.5334130000000  0.5493100000000  0.4996330000000 1.0
C      1  0.4234740000000  0.4422870000000  0.4546120000000 1.0
C      1  0.5234910000000  0.4471790000000  0.4849330000000 1.0
C      1  0.4118580000000  0.5319620000000  0.4224240000000 1.0
C      1  0.4837560000000  0.4777920000000  0.6189540000000 1.0
C      1  0.4258280000000  0.4617070000000  0.5720410000000 1.0
C      1  0.5493450000000  0.4021510000000  0.4893320000000 1.0
C      1  0.4797430000000  0.5191370000000  0.5379120000000 1.0
C      1  0.5277530000000  0.5325670000000  0.4556270000000 1.0
C      1  0.5345740000000  0.5592110000000  0.5716560000000 1.0
C      1  0.5719180000000  0.4197470000000  0.4982470000000 1.0
C      1  0.5520610000000  0.5246980000000  0.6022040000000 1.0
C      1  0.4669450000000  0.4340520000000  0.4838640000000 1.0
C      1  0.4712160000000  0.4813820000000  0.5041650000000 1.0
C      1  0.5329910000000  0.6118780000000  0.4958170000000 1.0
C      1  0.5356850000000  0.4266540000000  0.4190320000000 1.0
C      1  0.4313040000000  0.5444060000000  0.5718720000000 1.0
C      1  0.5431220000000  0.4838210000000  0.5639170000000 1.0
C      1  0.5098730000000  0.6043420000000  0.5090730000000 1.0
C      1  0.4697580000000  0.4521420000000  0.5066790000000 1.0
C      1  0.5119530000000  0.5237190000000  0.4324460000000 1.0
C      1  0.4874280000000  0.6022400000000  0.4639180000000 1.0
C      1  0.4838130000000  0.4163250000000  0.4430150000000 1.0
C      1  0.5086160000000  0.5141530000000  0.6148660000000 1.0
C      1  0.4193590000000  0.4296780000000  0.5319220000000 1.0
C      1  0.5794530000000  0.5520470000000  0.5395980000000 1.0
C      1  0.5002360000000  0.5264960000000  0.3882130000000 1.0
C      1  0.5379140000000  0.5797770000000  0.5496220000000 1.0
C      1  0.5367600000000  0.5319550000000  0.4121190000000 1.0
C      1  0.5420910000000  0.4820030000000  0.4439340000000 1.0
C      1  0.5941950000000  0.5558590000000  0.4698320000000 1.0
C      1  0.4870150000000  0.5984540000000  0.4921640000000 1.0
C      1  0.4664600000000  0.4398800000000  0.5337080000000 1.0
C      1  0.4959470000000  0.4524200000000  0.4004620000000 1.0
C      1  0.5539530000000  0.5972640000000  0.4849630000000 1.0
C      1  0.3885300000000  0.4967870000000  0.4522670000000 1.0
C      1  0.4149690000000  0.4325850000000  0.5026750000000 1.0
C      1  0.5353060000000  0.5181050000000  0.5310540000000 1.0
C      1  0.5100880000000  0.6129830000000  0.4518340000000 1.0
C      1  0.5116210000000  0.4756060000000  0.3883670000000 1.0
C      1  0.4483330000000  0.3977120000000  0.5110590000000 1.0
C      1  0.4693500000000  0.5874210000000  0.4469760000000 1.0
C      1  0.5569120000000  0.5430560000000  0.5818370000000 1.0
C      1  0.4767950000000  0.4902600000000  0.4756320000000 1.0
C      1  0.5030980000000  0.4026430000000  0.4619070000000 1.0
C      1  0.5441740000000  0.4588470000000  0.5466500000000 1.0
C      1  0.4991360000000  0.5106350000000  0.5857630000000 1.0
C      1  0.5041840000000  0.4867310000000  0.4667530000000 1.0
C      1  0.5754260000000  0.4229090000000  0.5285430000000 1.0
C      1  0.5116390000000  0.5860310000000  0.5332450000000 1.0
C      1  0.4567180000000  0.5365590000000  0.5837690000000 1.0
C      1  0.5656240000000  0.5626290000000  0.4443250000000 1.0
C      1  0.5340550000000  0.4728320000000  0.4071760000000 1.0
C      1  0.6083040000000  0.4814920000000  0.4693320000000 1.0
C      1  0.4351440000000  0.4146910000000  0.4588900000000 1.0
C      1  0.6097790000000  0.5303710000000  0.4741570000000 1.0
C      1  0.5528520000000  0.4704450000000  0.5196220000000 1.0
C      1  0.4420400000000  0.5765880000000  0.4852260000000 1.0
C      1  0.5104490000000  0.4251220000000  0.5034190000000 1.0
C      1  0.5820320000000  0.4483530000000  0.5439180000000 1.0
C      1  0.5676600000000  0.5807350000000  0.5044400000000 1.0
C      1  0.5808470000000  0.4612450000000  0.4342000000000 1.0
C      1  0.5302830000000  0.5974170000000  0.4404400000000 1.0
C      1  0.6016930000000  0.5226790000000  0.5015830000000 1.0
C      1  0.4447030000000  0.4938920000000  0.5167800000000 1.0
C      1  0.5491020000000  0.4227540000000  0.4428950000000 1.0
C      1  0.4938210000000  0.4986080000000  0.3920620000000 1.0
C      1  0.4928140000000  0.5002390000000  0.6336100000000 1.0
C      1  0.4629870000000  0.5872900000000  0.5030500000000 1.0
C      1  0.5325300000000  0.3991420000000  0.5388540000000 1.0
C      1  0.5280390000000  0.4013230000000  0.5093560000000 1.0
C      1  0.4445070000000  0.4159380000000  0.5347750000000 1.0
C      1  0.6030520000000  0.5068470000000  0.4575900000000 1.0
C      1  0.5733700000000  0.5104360000000  0.4980210000000 1.0
C      1  0.5568620000000  0.5077720000000  0.5472870000000 1.0
C      1  0.4881990000000  0.4118030000000  0.4879510000000 1.0
C      1  0.4767070000000  0.5209460000000  0.4403790000000 1.0
C      1  0.4616110000000  0.5824740000000  0.5316750000000 1.0
C      1  0.4667370000000  0.4909940000000  0.3958050000000 1.0
C      1  0.4794980000000  0.4437470000000  0.4552400000000 1.0
C      1  0.4420030000000  0.5604470000000  0.5388950000000 1.0
C      1  0.5201980000000  0.4504250000000  0.4236930000000 1.0
C      1  0.5026950000000  0.5369090000000  0.5711580000000 1.0
C      1  0.3936340000000  0.5338460000000  0.5093430000000 1.0
C      1  0.5502510000000  0.4885640000000  0.4756400000000 1.0
C      1  0.4787690000000  0.5529620000000  0.5742400000000 1.0
C      1  0.4113370000000  0.5372230000000  0.4663090000000 1.0
C      1  0.4949140000000  0.4376640000000  0.5945360000000 1.0
C      1  0.4125310000000  0.5305820000000  0.5542380000000 1.0
C      1  0.6139590000000  0.4539210000000  0.5082640000000 1.0
C      1  0.4304870000000  0.4566630000000  0.4308020000000 1.0
C      1  0.4957460000000  0.5721340000000  0.4099610000000 1.0
C      1  0.5384390000000  0.4765560000000  0.6084900000000 1.0
C      1  0.6075120000000  0.5006380000000  0.5595120000000 1.0
C      1  0.5628530000000  0.5398430000000  0.4882710000000 1.0
C      1  0.4814490000000  0.5807260000000  0.5749940000000 1.0
C      1  0.6003800000000  0.4882560000000  0.5359170000000 1.0
C      1  0.4291830000000  0.4637130000000  0.4744830000000 1.0
C      1  0.5082840000000  0.4567330000000  0.4601780000000 1.0
C      1  0.5981230000000  0.5218180000000  0.5725040000000 1.0
C      1  0.4757060000000  0.5887610000000  0.4199600000000 1.0
C      1  0.5926930000000  0.5686280000000  0.4964070000000 1.0
C      1  0.6014320000000  0.4586320000000  0.4841180000000 1.0
C      1  0.5129710000000  0.4873790000000  0.5701690000000 1.0
C      1  0.4695810000000  0.4642060000000  0.4071920000000 1.0
C      1  0.4559750000000  0.5363910000000  0.5213500000000 1.0
C      1  0.5123130000000  0.4948510000000  0.4381800000000 1.0
C      1  0.4141920000000  0.4853650000000  0.4353830000000 1.0
C      1  0.5760010000000  0.5101630000000  0.4472700000000 1.0
C      1  0.5521360000000  0.5875870000000  0.4570600000000 1.0
C      1  0.5618890000000  0.5745250000000  0.5330270000000 1.0
END
