TITL C-950531-5884-235 -3.15580597069152e-06 125000 -324.55424351337 0 0 54 (C1) n - 1
REM
REM in /home/bkarasulu/work/CARBON/AIRSS/Generating-Clusters/EDIP-Nigel-Params/with-SteepDescent/Only-C1/SD-CG/HFTN-CG
REM
REM
REM
REM
REM
REM ./C.cell (11c1c37f851c82e70ff6c80c92926a4b)
REM
REM compiler GCC version 9.2.1 20190827 (Red Hat 9.2.1-1)
REM options -cpp -mtune=generic -march=x86-64 -g -O0 -fpre-include=/usr/include/finclude/math-vector-fortran.h
REM seed 1316297778 -1499550675 703533628 -63070758 -1659532105 1540690928 887738051 -260191062 -1458284113 1775035197 -1925815126 -1900258754 393347156 -1190809995 -1838480806 1806565486 891471160 1575737513 -1069393658 -347684386 -1226966728 -455886328 2001282557 2099083569 515282481 1449892198 -1466273609 -1739877454 1905209531 299645210 -363647195 -887537041 -1530488108
REM
CELL 1.54180   50.00000   50.00000   50.00000   90.00000   90.00000   90.00000
LATT -1
SFAC C  
C      1  0.4345290000000  0.5101970000000  0.4682540000000 1.0
C      1  0.5440050000000  0.5084260000000  0.5523840000000 1.0
C      1  0.5021730000000  0.4867690000000  0.4298660000000 1.0
C      1  0.5657380000000  0.4790670000000  0.4865640000000 1.0
C      1  0.5362360000000  0.5253940000000  0.5076790000000 1.0
C      1  0.5201660000000  0.4491150000000  0.4592590000000 1.0
C      1  0.4368060000000  0.5468330000000  0.5366870000000 1.0
C      1  0.5025380000000  0.5378540000000  0.4594140000000 1.0
C      1  0.4816530000000  0.5202920000000  0.4931000000000 1.0
C      1  0.5056310000000  0.5103360000000  0.5445390000000 1.0
C      1  0.5301380000000  0.4952230000000  0.4407580000000 1.0
C      1  0.5213580000000  0.4289050000000  0.5070030000000 1.0
C      1  0.4781640000000  0.5583760000000  0.4967470000000 1.0
C      1  0.4795020000000  0.4949830000000  0.4720450000000 1.0
C      1  0.5180420000000  0.5359310000000  0.5545470000000 1.0
C      1  0.5112690000000  0.4724100000000  0.5640790000000 1.0
C      1  0.4345120000000  0.4867960000000  0.4847180000000 1.0
C      1  0.4672170000000  0.4822330000000  0.5471910000000 1.0
C      1  0.4326570000000  0.5527080000000  0.5097460000000 1.0
C      1  0.4877250000000  0.4368400000000  0.5452390000000 1.0
C      1  0.5457910000000  0.5240590000000  0.4796910000000 1.0
C      1  0.5029530000000  0.4601900000000  0.4399060000000 1.0
C      1  0.5114010000000  0.5525900000000  0.5317420000000 1.0
C      1  0.5227170000000  0.5151300000000  0.4633440000000 1.0
C      1  0.4760520000000  0.5312410000000  0.4468800000000 1.0
C      1  0.5569070000000  0.5127250000000  0.5255450000000 1.0
C      1  0.5083740000000  0.5103480000000  0.5125090000000 1.0
C      1  0.5450620000000  0.4677730000000  0.5278420000000 1.0
C      1  0.5116570000000  0.4820070000000  0.5026510000000 1.0
C      1  0.4771840000000  0.5010580000000  0.4418260000000 1.0
C      1  0.5636540000000  0.4857640000000  0.5149320000000 1.0
C      1  0.5060840000000  0.4244910000000  0.5300130000000 1.0
C      1  0.5470480000000  0.4427360000000  0.5114230000000 1.0
C      1  0.5599470000000  0.4511140000000  0.4863780000000 1.0
C      1  0.5547390000000  0.5501830000000  0.4735780000000 1.0
C      1  0.4866060000000  0.4623860000000  0.5558700000000 1.0
C      1  0.4610350000000  0.4733040000000  0.4823870000000 1.0
C      1  0.4579370000000  0.5165170000000  0.5119120000000 1.0
C      1  0.5073000000000  0.4464700000000  0.4870690000000 1.0
C      1  0.5359190000000  0.4796230000000  0.5533280000000 1.0
C      1  0.4607010000000  0.4489230000000  0.4669580000000 1.0
C      1  0.4791720000000  0.4384990000000  0.4846100000000 1.0
C      1  0.4513540000000  0.5532160000000  0.4877360000000 1.0
C      1  0.5107130000000  0.5636830000000  0.4682310000000 1.0
C      1  0.4424140000000  0.4766880000000  0.5346200000000 1.0
C      1  0.4506020000000  0.5337760000000  0.4645590000000 1.0
C      1  0.4834960000000  0.5522880000000  0.5241700000000 1.0
C      1  0.5427440000000  0.4695350000000  0.4570310000000 1.0
C      1  0.5319780000000  0.5630900000000  0.5137440000000 1.0
C      1  0.4630990000000  0.5329560000000  0.5358330000000 1.0
C      1  0.4761600000000  0.5099780000000  0.5519230000000 1.0
C      1  0.5076780000000  0.4878040000000  0.4743030000000 1.0
C      1  0.4374440000000  0.4947650000000  0.5132110000000 1.0
C      1  0.5340160000000  0.5664040000000  0.4844260000000 1.0
END
