TITL C-950524-1808-485 -6.8477376065403e-07 125000 -591.405939338096 0 0 97 (C1) n - 1
REM
REM in /home/bkarasulu/work/CARBON/AIRSS/Generating-Clusters/EDIP-Nigel-Params/with-SteepDescent/Only-C1/SD-CG/HFTN-CG
REM
REM
REM
REM
REM
REM ./C.cell (11c1c37f851c82e70ff6c80c92926a4b)
REM
REM compiler GCC version 9.2.1 20190827 (Red Hat 9.2.1-1)
REM options -cpp -mtune=generic -march=x86-64 -g -O0 -fpre-include=/usr/include/finclude/math-vector-fortran.h
REM seed 661810656 934035622 982298361 583968080 967820668 -823330521 384341159 -1907384815 -1664038746 1600123586 1641036010 -641292745 -1135691949 1900149434 -403590486 162279915 -323117714 -546741170 -1403862494 -1576635718 691042467 -1940643664 -1690211181 93368768 -203892416 -1323523475 2045687648 624973067 1759328247 -889008917 1907620871 -1290747886 -1237615107
REM
CELL 1.54180   50.00000   50.00000   50.00000   90.00000   90.00000   90.00000
LATT -1
SFAC C  
C      1  0.5057860000000  0.5892320000000  0.5088460000000 1.0
C      1  0.4868070000000  0.4589570000000  0.4386580000000 1.0
C      1  0.5526050000000  0.4970150000000  0.4507920000000 1.0
C      1  0.4988560000000  0.5474270000000  0.4304640000000 1.0
C      1  0.5278910000000  0.5318110000000  0.5695500000000 1.0
C      1  0.4522990000000  0.4182960000000  0.4995560000000 1.0
C      1  0.4019000000000  0.5171850000000  0.4878510000000 1.0
C      1  0.5847060000000  0.4269560000000  0.5077590000000 1.0
C      1  0.4441470000000  0.4376260000000  0.5407580000000 1.0
C      1  0.5707970000000  0.5365770000000  0.4829590000000 1.0
C      1  0.5409230000000  0.5794140000000  0.4770620000000 1.0
C      1  0.4918090000000  0.5864340000000  0.4816330000000 1.0
C      1  0.4822150000000  0.4229280000000  0.4630390000000 1.0
C      1  0.4839510000000  0.4975570000000  0.4657750000000 1.0
C      1  0.5213070000000  0.4507060000000  0.5656370000000 1.0
C      1  0.4673890000000  0.4753860000000  0.4533230000000 1.0
C      1  0.4554480000000  0.5073020000000  0.4993190000000 1.0
C      1  0.4673870000000  0.5075430000000  0.4194930000000 1.0
C      1  0.4274820000000  0.5064200000000  0.4476910000000 1.0
C      1  0.4888820000000  0.4573860000000  0.5191430000000 1.0
C      1  0.5401200000000  0.4235850000000  0.5333100000000 1.0
C      1  0.5354790000000  0.5030500000000  0.5660700000000 1.0
C      1  0.5355800000000  0.5376840000000  0.4549230000000 1.0
C      1  0.5733860000000  0.4635710000000  0.4714440000000 1.0
C      1  0.4603650000000  0.4196360000000  0.5264480000000 1.0
C      1  0.5118750000000  0.5155800000000  0.5009440000000 1.0
C      1  0.5716240000000  0.5461710000000  0.5572860000000 1.0
C      1  0.4932460000000  0.5371700000000  0.4855800000000 1.0
C      1  0.5368690000000  0.5824010000000  0.5073660000000 1.0
C      1  0.5697670000000  0.5439780000000  0.5114380000000 1.0
C      1  0.4750920000000  0.4735250000000  0.5648620000000 1.0
C      1  0.5437510000000  0.5172090000000  0.5034610000000 1.0
C      1  0.4155250000000  0.5413210000000  0.4783530000000 1.0
C      1  0.5160060000000  0.4070200000000  0.4911740000000 1.0
C      1  0.4982760000000  0.4624190000000  0.5754010000000 1.0
C      1  0.5437730000000  0.5504890000000  0.5531850000000 1.0
C      1  0.4878570000000  0.4294010000000  0.5269650000000 1.0
C      1  0.4942930000000  0.5148760000000  0.5589880000000 1.0
C      1  0.5408420000000  0.4643800000000  0.5158220000000 1.0
C      1  0.4490260000000  0.4903830000000  0.4344130000000 1.0
C      1  0.4701620000000  0.5014720000000  0.5710940000000 1.0
C      1  0.5720630000000  0.5083200000000  0.4710140000000 1.0
C      1  0.5342490000000  0.4274320000000  0.4503890000000 1.0
C      1  0.5176850000000  0.4268750000000  0.5505330000000 1.0
C      1  0.4565870000000  0.5548490000000  0.4527220000000 1.0
C      1  0.4708880000000  0.5429000000000  0.4301490000000 1.0
C      1  0.5593650000000  0.4915120000000  0.5114820000000 1.0
C      1  0.5274690000000  0.4798880000000  0.4626620000000 1.0
C      1  0.5309180000000  0.5578710000000  0.5271700000000 1.0
C      1  0.4261520000000  0.4720220000000  0.5144530000000 1.0
C      1  0.4493890000000  0.5145860000000  0.5514500000000 1.0
C      1  0.4189800000000  0.5466110000000  0.5497950000000 1.0
C      1  0.5791200000000  0.4870940000000  0.4887330000000 1.0
C      1  0.4586530000000  0.5692010000000  0.5371050000000 1.0
C      1  0.5093140000000  0.4759940000000  0.4369110000000 1.0
C      1  0.4658190000000  0.5704800000000  0.4774640000000 1.0
C      1  0.5746210000000  0.5015560000000  0.5363800000000 1.0
C      1  0.5651480000000  0.4693450000000  0.4419700000000 1.0
C      1  0.4654750000000  0.5583270000000  0.5638910000000 1.0
C      1  0.5382320000000  0.4689090000000  0.5492430000000 1.0
C      1  0.3999810000000  0.5153530000000  0.5157850000000 1.0
C      1  0.4187190000000  0.5643800000000  0.4946920000000 1.0
C      1  0.5136590000000  0.5247740000000  0.4184640000000 1.0
C      1  0.4533010000000  0.4614940000000  0.4749760000000 1.0
C      1  0.4685540000000  0.5201800000000  0.4768230000000 1.0
C      1  0.4363720000000  0.5335420000000  0.4592720000000 1.0
C      1  0.5091790000000  0.5503120000000  0.4582630000000 1.0
C      1  0.5650880000000  0.4360280000000  0.5394450000000 1.0
C      1  0.4747950000000  0.5526070000000  0.5160210000000 1.0
C      1  0.4422570000000  0.5398410000000  0.5668440000000 1.0
C      1  0.5137830000000  0.5789690000000  0.4637390000000 1.0
C      1  0.5381950000000  0.4126290000000  0.5070420000000 1.0
C      1  0.4596620000000  0.4327630000000  0.4768710000000 1.0
C      1  0.5119000000000  0.4685190000000  0.5053310000000 1.0
C      1  0.5099540000000  0.4204510000000  0.4674330000000 1.0
C      1  0.5555700000000  0.5548330000000  0.4660190000000 1.0
C      1  0.5623360000000  0.4165500000000  0.4929850000000 1.0
C      1  0.4916930000000  0.5441020000000  0.5642050000000 1.0
C      1  0.5896760000000  0.4241260000000  0.5347700000000 1.0
C      1  0.4656270000000  0.5214080000000  0.5239130000000 1.0
C      1  0.4152260000000  0.4944080000000  0.4729110000000 1.0
C      1  0.4911010000000  0.5070900000000  0.5292820000000 1.0
C      1  0.5794420000000  0.5310980000000  0.5350280000000 1.0
C      1  0.5586770000000  0.4222430000000  0.4654520000000 1.0
C      1  0.5456390000000  0.4555420000000  0.4809420000000 1.0
C      1  0.4130630000000  0.5200510000000  0.5395640000000 1.0
C      1  0.5405470000000  0.5245690000000  0.4293720000000 1.0
C      1  0.4722000000000  0.4767200000000  0.5344250000000 1.0
C      1  0.5079570000000  0.4902230000000  0.4844270000000 1.0
C      1  0.4296940000000  0.5676000000000  0.5313930000000 1.0
C      1  0.4444840000000  0.5760840000000  0.4960620000000 1.0
C      1  0.5012810000000  0.5649270000000  0.5264460000000 1.0
C      1  0.4437880000000  0.4649460000000  0.5344960000000 1.0
C      1  0.5626440000000  0.4943670000000  0.5620310000000 1.0
C      1  0.5447360000000  0.4499290000000  0.4344790000000 1.0
C      1  0.4961020000000  0.5029200000000  0.4285930000000 1.0
C      1  0.4374860000000  0.4831730000000  0.4908500000000 1.0
END
