TITL C-950528-5794-480 -1.07552553589028e-06 125000 -386.727608349158 0 0 63 (C1) n - 1
REM
REM in /home/bkarasulu/work/CARBON/AIRSS/Generating-Clusters/EDIP-Nigel-Params/with-SteepDescent/Only-C1/SD-CG/HFTN-CG
REM
REM
REM
REM
REM
REM ./C.cell (11c1c37f851c82e70ff6c80c92926a4b)
REM
REM compiler GCC version 9.2.1 20190827 (Red Hat 9.2.1-1)
REM options -cpp -mtune=generic -march=x86-64 -g -O0 -fpre-include=/usr/include/finclude/math-vector-fortran.h
REM seed 864742015 1290533081 -1352626567 1568694892 -783843136 55821705 1068036247 332641509 118919035 -1031179348 643591730 408700791 1007848572 -241565990 676939859 2046925877 781206157 1187649920 1326910719 -2098920210 814776611 914948653 1937904692 260822050 -1164557969 2029608193 1897930858 -1614381569 -615647433 -1690397127 1777074472 83814915 -253885701
REM
CELL 1.54180   50.00000   50.00000   50.00000   90.00000   90.00000   90.00000
LATT -1
SFAC C  
C      1  0.4824330000000  0.5032310000000  0.5649700000000 1.0
C      1  0.5006470000000  0.5617690000000  0.5312330000000 1.0
C      1  0.4326890000000  0.4620460000000  0.5067130000000 1.0
C      1  0.4584360000000  0.5153460000000  0.5565140000000 1.0
C      1  0.5324750000000  0.5019200000000  0.5625780000000 1.0
C      1  0.5406310000000  0.4997700000000  0.4322700000000 1.0
C      1  0.4841510000000  0.4759010000000  0.5641010000000 1.0
C      1  0.5421930000000  0.5518840000000  0.4927200000000 1.0
C      1  0.5271350000000  0.4254980000000  0.5265350000000 1.0
C      1  0.4404110000000  0.5183680000000  0.5110570000000 1.0
C      1  0.5219330000000  0.5097890000000  0.4908310000000 1.0
C      1  0.5127460000000  0.4738670000000  0.5144050000000 1.0
C      1  0.4478440000000  0.4530820000000  0.5472860000000 1.0
C      1  0.5046010000000  0.4459350000000  0.5300290000000 1.0
C      1  0.5656700000000  0.4792120000000  0.4997950000000 1.0
C      1  0.5048550000000  0.4585460000000  0.5578130000000 1.0
C      1  0.5574300000000  0.4829350000000  0.4725080000000 1.0
C      1  0.4884570000000  0.4486120000000  0.4871170000000 1.0
C      1  0.4761290000000  0.5099440000000  0.4780670000000 1.0
C      1  0.5166820000000  0.5135600000000  0.4225000000000 1.0
C      1  0.5594640000000  0.5120050000000  0.4615800000000 1.0
C      1  0.5362850000000  0.4643910000000  0.4630360000000 1.0
C      1  0.4611350000000  0.5432080000000  0.5552050000000 1.0
C      1  0.4591020000000  0.5427990000000  0.5084180000000 1.0
C      1  0.5664570000000  0.5434980000000  0.5069400000000 1.0
C      1  0.4823420000000  0.5274410000000  0.4999740000000 1.0
C      1  0.5356950000000  0.5297410000000  0.4734760000000 1.0
C      1  0.5017450000000  0.4880610000000  0.4479690000000 1.0
C      1  0.5007850000000  0.5308860000000  0.4384300000000 1.0
C      1  0.5370630000000  0.5256780000000  0.5468570000000 1.0
C      1  0.5185950000000  0.4467130000000  0.4801950000000 1.0
C      1  0.4671580000000  0.4612400000000  0.4694610000000 1.0
C      1  0.4742910000000  0.5288470000000  0.4533610000000 1.0
C      1  0.5126030000000  0.5593210000000  0.5023490000000 1.0
C      1  0.5032700000000  0.4884530000000  0.4801000000000 1.0
C      1  0.5513720000000  0.4578400000000  0.5445590000000 1.0
C      1  0.5054530000000  0.4973810000000  0.5349920000000 1.0
C      1  0.4358740000000  0.4750270000000  0.5329260000000 1.0
C      1  0.4426730000000  0.4739960000000  0.4822630000000 1.0
C      1  0.4555640000000  0.4910270000000  0.4325670000000 1.0
C      1  0.5793810000000  0.5229190000000  0.4878890000000 1.0
C      1  0.5381110000000  0.4384990000000  0.5017550000000 1.0
C      1  0.5180110000000  0.5465900000000  0.5478160000000 1.0
C      1  0.4497830000000  0.5175740000000  0.4392710000000 1.0
C      1  0.4456620000000  0.5042880000000  0.4836430000000 1.0
C      1  0.4495070000000  0.5589980000000  0.4845060000000 1.0
C      1  0.4752560000000  0.4743880000000  0.4437230000000 1.0
C      1  0.4712010000000  0.5574990000000  0.4644040000000 1.0
C      1  0.5445880000000  0.4651000000000  0.5157930000000 1.0
C      1  0.5801090000000  0.5019450000000  0.5091630000000 1.0
C      1  0.4547360000000  0.4363590000000  0.5248820000000 1.0
C      1  0.4307480000000  0.5197020000000  0.4620420000000 1.0
C      1  0.5172360000000  0.5466920000000  0.4561390000000 1.0
C      1  0.4277070000000  0.5462260000000  0.4715670000000 1.0
C      1  0.4994600000000  0.5638480000000  0.4738000000000 1.0
C      1  0.5080660000000  0.5222260000000  0.5138380000000 1.0
C      1  0.5467770000000  0.4295800000000  0.5467260000000 1.0
C      1  0.4812520000000  0.4373600000000  0.5135590000000 1.0
C      1  0.5313060000000  0.4723660000000  0.5611170000000 1.0
C      1  0.5613470000000  0.5269640000000  0.5310410000000 1.0
C      1  0.5265540000000  0.4735830000000  0.4379380000000 1.0
C      1  0.4704660000000  0.5570940000000  0.5328880000000 1.0
C      1  0.4482630000000  0.5014320000000  0.5327990000000 1.0
END
