TITL C-950523-3027-269 -7.78637221901359e-09 125000 -1199.94642900055 0 0 193 (C1) n - 1
REM
REM in /home/bkarasulu/work/CARBON/AIRSS/Generating-Clusters/EDIP-Nigel-Params/with-SteepDescent/Only-C1/SD-CG/HFTN-CG
REM
REM
REM
REM
REM
REM ./C.cell (11c1c37f851c82e70ff6c80c92926a4b)
REM
REM compiler GCC version 9.2.1 20190827 (Red Hat 9.2.1-1)
REM options -cpp -mtune=generic -march=x86-64 -g -O0 -fpre-include=/usr/include/finclude/math-vector-fortran.h
REM seed -1440129136 2145572081 -2107035856 373651104 -1060267374 -1048839931 2017333000 -628517752 130345889 -1558900877 819732411 -1681094283 447949332 -319014310 1805056984 1538391250 -1379047230 1821888054 427571289 -1025192509 986944430 -187287257 708247184 -690037686 -1254787286 -1555554181 -1568127511 1754533893 -1977963304 -190184844 -325446347 598252129 485352052
REM
CELL 1.54180   50.00000   50.00000   50.00000   90.00000   90.00000   90.00000
LATT -1
SFAC C  
C      1  0.5051940000000  0.5288980000000  0.4366060000000 1.0
C      1  0.5773150000000  0.4605920000000  0.5489310000000 1.0
C      1  0.5836880000000  0.5053710000000  0.4275580000000 1.0
C      1  0.4759140000000  0.5716430000000  0.5297850000000 1.0
C      1  0.5632110000000  0.5071170000000  0.5009220000000 1.0
C      1  0.4660470000000  0.6052680000000  0.4899890000000 1.0
C      1  0.6160740000000  0.4791600000000  0.5216350000000 1.0
C      1  0.5710060000000  0.5779480000000  0.4514370000000 1.0
C      1  0.4226870000000  0.4864070000000  0.5798150000000 1.0
C      1  0.5677890000000  0.5259430000000  0.4770230000000 1.0
C      1  0.5101270000000  0.5168480000000  0.5025110000000 1.0
C      1  0.3998800000000  0.4879250000000  0.4497180000000 1.0
C      1  0.5389720000000  0.5094090000000  0.3995840000000 1.0
C      1  0.4489670000000  0.4030400000000  0.4446980000000 1.0
C      1  0.5980440000000  0.4868620000000  0.4463950000000 1.0
C      1  0.5121230000000  0.4793800000000  0.5964760000000 1.0
C      1  0.4829850000000  0.6018590000000  0.5361050000000 1.0
C      1  0.5274300000000  0.5600040000000  0.4805190000000 1.0
C      1  0.5261190000000  0.4241760000000  0.5073580000000 1.0
C      1  0.4747190000000  0.5183160000000  0.5980340000000 1.0
C      1  0.5024620000000  0.5725170000000  0.5993040000000 1.0
C      1  0.4430060000000  0.4091030000000  0.5189150000000 1.0
C      1  0.5641580000000  0.4043180000000  0.4842110000000 1.0
C      1  0.4426860000000  0.4759560000000  0.4111270000000 1.0
C      1  0.4297510000000  0.5885000000000  0.5237530000000 1.0
C      1  0.4813710000000  0.5549640000000  0.6074320000000 1.0
C      1  0.5360230000000  0.4689290000000  0.4770190000000 1.0
C      1  0.5261090000000  0.4778940000000  0.4496470000000 1.0
C      1  0.5281950000000  0.5963290000000  0.4408440000000 1.0
C      1  0.5130760000000  0.5952260000000  0.4884170000000 1.0
C      1  0.4151000000000  0.4733190000000  0.5004910000000 1.0
C      1  0.4945960000000  0.4301670000000  0.5876080000000 1.0
C      1  0.5755370000000  0.5532200000000  0.5717610000000 1.0
C      1  0.5957380000000  0.5279540000000  0.4642640000000 1.0
C      1  0.4458280000000  0.5864360000000  0.4305840000000 1.0
C      1  0.5219110000000  0.3953210000000  0.4575180000000 1.0
C      1  0.4739730000000  0.4839010000000  0.4498000000000 1.0
C      1  0.5491060000000  0.5939260000000  0.4633890000000 1.0
C      1  0.4761970000000  0.4424330000000  0.4891800000000 1.0
C      1  0.5335770000000  0.4797730000000  0.5270060000000 1.0
C      1  0.5807720000000  0.5912760000000  0.5024000000000 1.0
C      1  0.5647030000000  0.4710490000000  0.4757890000000 1.0
C      1  0.4866360000000  0.5561290000000  0.5522180000000 1.0
C      1  0.4392220000000  0.4943450000000  0.5048850000000 1.0
C      1  0.4798340000000  0.3936570000000  0.4926420000000 1.0
C      1  0.4127380000000  0.4519980000000  0.5448740000000 1.0
C      1  0.4160280000000  0.5319730000000  0.4619690000000 1.0
C      1  0.5356030000000  0.3969600000000  0.5092620000000 1.0
C      1  0.5436120000000  0.4154960000000  0.4648140000000 1.0
C      1  0.6101650000000  0.5252870000000  0.5168830000000 1.0
C      1  0.4755900000000  0.5176700000000  0.4397000000000 1.0
C      1  0.5908080000000  0.5124430000000  0.5442810000000 1.0
C      1  0.3849510000000  0.4654990000000  0.4779000000000 1.0
C      1  0.4682570000000  0.4426310000000  0.5824160000000 1.0
C      1  0.4122090000000  0.4420600000000  0.4393700000000 1.0
C      1  0.5302420000000  0.5615190000000  0.5955290000000 1.0
C      1  0.4657920000000  0.4448060000000  0.5518500000000 1.0
C      1  0.4388600000000  0.5464330000000  0.5123070000000 1.0
C      1  0.5025010000000  0.4582390000000  0.4439000000000 1.0
C      1  0.4935930000000  0.5270580000000  0.5489250000000 1.0
C      1  0.5590250000000  0.5541510000000  0.4785440000000 1.0
C      1  0.4948680000000  0.4097410000000  0.4546670000000 1.0
C      1  0.5410050000000  0.4229620000000  0.5572430000000 1.0
C      1  0.5241600000000  0.5743930000000  0.4203820000000 1.0
C      1  0.5272240000000  0.4373690000000  0.4804900000000 1.0
C      1  0.4748230000000  0.4216720000000  0.4045510000000 1.0
C      1  0.5558480000000  0.4262920000000  0.4413320000000 1.0
C      1  0.5956050000000  0.4447490000000  0.4930000000000 1.0
C      1  0.4844820000000  0.4907200000000  0.6107520000000 1.0
C      1  0.5553700000000  0.6006410000000  0.4955640000000 1.0
C      1  0.4609710000000  0.5428350000000  0.4935830000000 1.0
C      1  0.5252630000000  0.5335400000000  0.5858830000000 1.0
C      1  0.4388360000000  0.5952250000000  0.4952960000000 1.0
C      1  0.5237790000000  0.5279520000000  0.5551040000000 1.0
C      1  0.5415690000000  0.4417760000000  0.5799670000000 1.0
C      1  0.4529660000000  0.5234240000000  0.4090780000000 1.0
C      1  0.5675520000000  0.5202850000000  0.5272250000000 1.0
C      1  0.4044940000000  0.5719050000000  0.5226910000000 1.0
C      1  0.6086110000000  0.5015960000000  0.4708460000000 1.0
C      1  0.4658750000000  0.4721870000000  0.3942720000000 1.0
C      1  0.4986250000000  0.4038500000000  0.5736190000000 1.0
C      1  0.5199910000000  0.3738650000000  0.4755000000000 1.0
C      1  0.4233370000000  0.5872720000000  0.4476330000000 1.0
C      1  0.5213020000000  0.3844940000000  0.5323120000000 1.0
C      1  0.3994100000000  0.5315480000000  0.4905180000000 1.0
C      1  0.4624200000000  0.4740780000000  0.5427800000000 1.0
C      1  0.4537600000000  0.5786240000000  0.5712500000000 1.0
C      1  0.5229300000000  0.3995620000000  0.5578030000000 1.0
C      1  0.4675520000000  0.4876110000000  0.5173330000000 1.0
C      1  0.4420940000000  0.5187190000000  0.5479450000000 1.0
C      1  0.4288360000000  0.5750940000000  0.4748010000000 1.0
C      1  0.4293560000000  0.5383630000000  0.5644440000000 1.0
C      1  0.4881170000000  0.5662740000000  0.4092440000000 1.0
C      1  0.4466020000000  0.5667820000000  0.5360810000000 1.0
C      1  0.4007300000000  0.5494400000000  0.4451180000000 1.0
C      1  0.4756360000000  0.5989730000000  0.5673220000000 1.0
C      1  0.5290610000000  0.4967720000000  0.5547030000000 1.0
C      1  0.4352210000000  0.4670090000000  0.5976870000000 1.0
C      1  0.5463830000000  0.4712170000000  0.4254070000000 1.0
C      1  0.5140100000000  0.4346250000000  0.5316730000000 1.0
C      1  0.3882130000000  0.4831950000000  0.5107830000000 1.0
C      1  0.5015440000000  0.6043700000000  0.4453810000000 1.0
C      1  0.4068040000000  0.5610920000000  0.4944910000000 1.0
C      1  0.4710140000000  0.4170490000000  0.5088430000000 1.0
C      1  0.5410610000000  0.5950940000000  0.5224740000000 1.0
C      1  0.5663400000000  0.5545610000000  0.4347710000000 1.0
C      1  0.4429320000000  0.4130100000000  0.5485450000000 1.0
C      1  0.4979520000000  0.5781010000000  0.5703480000000 1.0
C      1  0.4548160000000  0.4955880000000  0.5611210000000 1.0
C      1  0.5807670000000  0.4212310000000  0.5019750000000 1.0
C      1  0.4316020000000  0.5187800000000  0.5213300000000 1.0
C      1  0.4785290000000  0.3992250000000  0.5540120000000 1.0
C      1  0.4593750000000  0.4537040000000  0.4452810000000 1.0
C      1  0.4005610000000  0.5751760000000  0.4371570000000 1.0
C      1  0.4631720000000  0.4707070000000  0.6073860000000 1.0
C      1  0.4788120000000  0.5197970000000  0.3965240000000 1.0
C      1  0.5681400000000  0.4121540000000  0.5562760000000 1.0
C      1  0.5109190000000  0.5571680000000  0.4522870000000 1.0
C      1  0.4690530000000  0.4447110000000  0.3895960000000 1.0
C      1  0.5566000000000  0.5889090000000  0.5470340000000 1.0
C      1  0.4073660000000  0.4626770000000  0.4591780000000 1.0
C      1  0.4865270000000  0.5842150000000  0.4836560000000 1.0
C      1  0.6130420000000  0.5490500000000  0.4748250000000 1.0
C      1  0.5029720000000  0.4205810000000  0.4058240000000 1.0
C      1  0.5662830000000  0.4504620000000  0.4329760000000 1.0
C      1  0.5090270000000  0.4465860000000  0.4165580000000 1.0
C      1  0.3920430000000  0.4970200000000  0.5359590000000 1.0
C      1  0.4448190000000  0.5480660000000  0.4684770000000 1.0
C      1  0.5329340000000  0.5533120000000  0.5338150000000 1.0
C      1  0.5476420000000  0.5582810000000  0.4127320000000 1.0
C      1  0.4842790000000  0.5602150000000  0.5025990000000 1.0
C      1  0.6125140000000  0.4997260000000  0.5018730000000 1.0
C      1  0.4304570000000  0.4393780000000  0.5899550000000 1.0
C      1  0.5174800000000  0.4891510000000  0.3927510000000 1.0
C      1  0.5001030000000  0.5102640000000  0.4761690000000 1.0
C      1  0.5038460000000  0.4874820000000  0.5691320000000 1.0
C      1  0.6014970000000  0.4430880000000  0.4652930000000 1.0
C      1  0.4019790000000  0.5237250000000  0.5229400000000 1.0
C      1  0.5342760000000  0.4959820000000  0.5019030000000 1.0
C      1  0.4371450000000  0.4222050000000  0.4768660000000 1.0
C      1  0.4897960000000  0.5794360000000  0.4545120000000 1.0
C      1  0.5893300000000  0.4314550000000  0.5499480000000 1.0
C      1  0.4814990000000  0.5078510000000  0.5698740000000 1.0
C      1  0.4994780000000  0.4368250000000  0.4674410000000 1.0
C      1  0.5145050000000  0.5473810000000  0.5055430000000 1.0
C      1  0.4521400000000  0.4471300000000  0.4732780000000 1.0
C      1  0.5824040000000  0.5249630000000  0.5715070000000 1.0
C      1  0.5923980000000  0.4129770000000  0.5265650000000 1.0
C      1  0.5076990000000  0.6195470000000  0.5040880000000 1.0
C      1  0.5283810000000  0.4630620000000  0.4026860000000 1.0
C      1  0.5879770000000  0.5338770000000  0.4351790000000 1.0
C      1  0.4195930000000  0.4161900000000  0.4521280000000 1.0
C      1  0.4860030000000  0.4689210000000  0.5019600000000 1.0
C      1  0.5473090000000  0.5272850000000  0.6035530000000 1.0
C      1  0.4309760000000  0.4507400000000  0.4191270000000 1.0
C      1  0.4022630000000  0.5486510000000  0.5414640000000 1.0
C      1  0.4200490000000  0.4494250000000  0.5168400000000 1.0
C      1  0.5603260000000  0.4634320000000  0.5743750000000 1.0
C      1  0.4249410000000  0.4323570000000  0.5623950000000 1.0
C      1  0.4844680000000  0.4233900000000  0.5361270000000 1.0
C      1  0.4633710000000  0.5453290000000  0.4458390000000 1.0
C      1  0.5767500000000  0.5622530000000  0.5024230000000 1.0
C      1  0.5459300000000  0.4881620000000  0.5799170000000 1.0
C      1  0.6047170000000  0.5503030000000  0.5015170000000 1.0
C      1  0.4231500000000  0.4235020000000  0.5039910000000 1.0
C      1  0.4642160000000  0.3901640000000  0.4679620000000 1.0
C      1  0.4379080000000  0.5023940000000  0.4220790000000 1.0
C      1  0.5099430000000  0.4626300000000  0.5221780000000 1.0
C      1  0.5037860000000  0.3770530000000  0.4989920000000 1.0
C      1  0.5646530000000  0.5096260000000  0.5898800000000 1.0
C      1  0.4078750000000  0.4791010000000  0.5551360000000 1.0
C      1  0.4408960000000  0.5352770000000  0.5909120000000 1.0
C      1  0.4690970000000  0.4239360000000  0.4343620000000 1.0
C      1  0.4622590000000  0.5644110000000  0.4236480000000 1.0
C      1  0.4202420000000  0.5067420000000  0.4455600000000 1.0
C      1  0.5411630000000  0.5708060000000  0.5678590000000 1.0
C      1  0.5190590000000  0.5080890000000  0.4537140000000 1.0
C      1  0.4877840000000  0.4924540000000  0.3949250000000 1.0
C      1  0.4885240000000  0.4848300000000  0.4761840000000 1.0
C      1  0.5782850000000  0.4719740000000  0.5019150000000 1.0
C      1  0.5830560000000  0.4622750000000  0.4540890000000 1.0
C      1  0.5785940000000  0.5668620000000  0.5468600000000 1.0
C      1  0.4781180000000  0.6212230000000  0.5110370000000 1.0
C      1  0.5597410000000  0.4641280000000  0.5250390000000 1.0
C      1  0.5419530000000  0.5368910000000  0.3956600000000 1.0
C      1  0.5169640000000  0.6099790000000  0.5297450000000 1.0
C      1  0.4875420000000  0.5123210000000  0.5221980000000 1.0
C      1  0.4564940000000  0.5587160000000  0.5933680000000 1.0
C      1  0.5166840000000  0.4488060000000  0.5937850000000 1.0
C      1  0.5584290000000  0.4962000000000  0.4161830000000 1.0
C      1  0.4985130000000  0.5407280000000  0.4012200000000 1.0
C      1  0.5986100000000  0.4825550000000  0.5442620000000 1.0
C      1  0.5632140000000  0.5498300000000  0.5269520000000 1.0
END
