TITL C-950535-5962-280 3.20246302205735e-06 125000 -741.94019776389 0 0 120 (C1) n - 1
REM
REM in /home/bkarasulu/work/CARBON/AIRSS/Generating-Clusters/EDIP-Nigel-Params/with-SteepDescent/Only-C1/SD-CG/HFTN-CG
REM
REM
REM
REM
REM
REM ./C.cell (11c1c37f851c82e70ff6c80c92926a4b)
REM
REM compiler GCC version 9.2.1 20190827 (Red Hat 9.2.1-1)
REM options -cpp -mtune=generic -march=x86-64 -g -O0 -fpre-include=/usr/include/finclude/math-vector-fortran.h
REM seed 1017122063 -480931004 -487149363 -1973176397 435031016 -1199960054 -772374908 -1468733293 803616604 -826387362 -1656406475 -104603083 -1440457456 177763226 -841249762 -1145351870 549242912 -1445169152 539793561 1592796361 1426979290 1468875066 1248239607 1446673232 -256086056 -871071961 -895869057 -904106078 -1206719203 -818468056 -4716983 -1046458469 -1273743760
REM
CELL 1.54180   50.00000   50.00000   50.00000   90.00000   90.00000   90.00000
LATT -1
SFAC C  
C      1  0.4375550000000  0.5683490000000  0.4805500000000 1.0
C      1  0.4478720000000  0.5220110000000  0.5402020000000 1.0
C      1  0.5582080000000  0.4302210000000  0.4876860000000 1.0
C      1  0.5032260000000  0.5480430000000  0.4282680000000 1.0
C      1  0.5033300000000  0.4415910000000  0.4797080000000 1.0
C      1  0.5086740000000  0.4923700000000  0.5684790000000 1.0
C      1  0.4520040000000  0.5444290000000  0.5184410000000 1.0
C      1  0.4540130000000  0.4205530000000  0.5000870000000 1.0
C      1  0.5537530000000  0.5633280000000  0.4260820000000 1.0
C      1  0.4619250000000  0.5557670000000  0.4092310000000 1.0
C      1  0.4587800000000  0.4542170000000  0.5892670000000 1.0
C      1  0.4788740000000  0.5151210000000  0.4033500000000 1.0
C      1  0.5454980000000  0.4226470000000  0.5628880000000 1.0
C      1  0.4811100000000  0.4066580000000  0.4983620000000 1.0
C      1  0.5449260000000  0.5446490000000  0.5073420000000 1.0
C      1  0.5261320000000  0.4943460000000  0.4628690000000 1.0
C      1  0.5751300000000  0.5191150000000  0.5458200000000 1.0
C      1  0.5404410000000  0.4817410000000  0.5145220000000 1.0
C      1  0.4787640000000  0.4846300000000  0.4707840000000 1.0
C      1  0.4343960000000  0.5001750000000  0.5829660000000 1.0
C      1  0.5727700000000  0.5355340000000  0.4998120000000 1.0
C      1  0.4956720000000  0.5768360000000  0.4376850000000 1.0
C      1  0.4884400000000  0.5333810000000  0.5535100000000 1.0
C      1  0.4322300000000  0.5434330000000  0.4952500000000 1.0
C      1  0.4755790000000  0.4771270000000  0.5991860000000 1.0
C      1  0.5045610000000  0.4750290000000  0.5919880000000 1.0
C      1  0.4844980000000  0.6073180000000  0.4755740000000 1.0
C      1  0.4661500000000  0.5742150000000  0.4342150000000 1.0
C      1  0.5013450000000  0.4355990000000  0.5635410000000 1.0
C      1  0.5717360000000  0.4585700000000  0.5432750000000 1.0
C      1  0.4409490000000  0.4278200000000  0.5264220000000 1.0
C      1  0.5472320000000  0.5615330000000  0.5503260000000 1.0
C      1  0.4522790000000  0.5740290000000  0.5271340000000 1.0
C      1  0.4706000000000  0.4359470000000  0.5676030000000 1.0
C      1  0.4761780000000  0.4539160000000  0.4717340000000 1.0
C      1  0.5664160000000  0.4305730000000  0.5450930000000 1.0
C      1  0.4818530000000  0.4885410000000  0.5234800000000 1.0
C      1  0.5151650000000  0.5447750000000  0.4820750000000 1.0
C      1  0.4453670000000  0.5883200000000  0.5014950000000 1.0
C      1  0.4967920000000  0.4997390000000  0.4505320000000 1.0
C      1  0.4752840000000  0.5947100000000  0.5638530000000 1.0
C      1  0.5275840000000  0.5113120000000  0.5806090000000 1.0
C      1  0.5915110000000  0.4600520000000  0.4711480000000 1.0
C      1  0.5467980000000  0.5711190000000  0.5222100000000 1.0
C      1  0.4605650000000  0.4604440000000  0.4281680000000 1.0
C      1  0.3917510000000  0.5119440000000  0.4952330000000 1.0
C      1  0.5797660000000  0.4478110000000  0.4957470000000 1.0
C      1  0.4963940000000  0.4944020000000  0.4197960000000 1.0
C      1  0.5501500000000  0.4707550000000  0.5605870000000 1.0
C      1  0.4825180000000  0.4597080000000  0.5278860000000 1.0
C      1  0.5011620000000  0.5659560000000  0.5344280000000 1.0
C      1  0.5410030000000  0.4251800000000  0.5089150000000 1.0
C      1  0.4857100000000  0.5427710000000  0.4786180000000 1.0
C      1  0.4300040000000  0.4588920000000  0.4779300000000 1.0
C      1  0.4633690000000  0.6076660000000  0.4920160000000 1.0
C      1  0.5251550000000  0.4935970000000  0.4113390000000 1.0
C      1  0.4537230000000  0.4947340000000  0.5309640000000 1.0
C      1  0.4852460000000  0.5280150000000  0.4505200000000 1.0
C      1  0.5504790000000  0.5857580000000  0.4427810000000 1.0
C      1  0.5016830000000  0.5882790000000  0.4646990000000 1.0
C      1  0.5865720000000  0.5178140000000  0.5189380000000 1.0
C      1  0.5704680000000  0.4697960000000  0.5154540000000 1.0
C      1  0.4553420000000  0.5236200000000  0.4444360000000 1.0
C      1  0.5195860000000  0.5634650000000  0.5601830000000 1.0
C      1  0.4595110000000  0.4469670000000  0.5420910000000 1.0
C      1  0.5795100000000  0.5064040000000  0.4611090000000 1.0
C      1  0.4359510000000  0.4748310000000  0.4533830000000 1.0
C      1  0.5681270000000  0.5013910000000  0.4337660000000 1.0
C      1  0.5425940000000  0.5138780000000  0.4230400000000 1.0
C      1  0.4936550000000  0.4925680000000  0.4955420000000 1.0
C      1  0.5141320000000  0.4319770000000  0.5133420000000 1.0
C      1  0.5541230000000  0.5454860000000  0.4598630000000 1.0
C      1  0.4995800000000  0.4074130000000  0.5215130000000 1.0
C      1  0.4517790000000  0.5263430000000  0.4158200000000 1.0
C      1  0.4428990000000  0.4710020000000  0.5482780000000 1.0
C      1  0.5086320000000  0.4484420000000  0.4310370000000 1.0
C      1  0.4671820000000  0.4396360000000  0.4471230000000 1.0
C      1  0.4415140000000  0.5017870000000  0.4549660000000 1.0
C      1  0.5181140000000  0.4116960000000  0.5547490000000 1.0
C      1  0.4998370000000  0.4137160000000  0.4677690000000 1.0
C      1  0.5334900000000  0.5425100000000  0.4217680000000 1.0
C      1  0.5296100000000  0.5272340000000  0.4630880000000 1.0
C      1  0.5636700000000  0.4728760000000  0.4275280000000 1.0
C      1  0.4872890000000  0.4667610000000  0.4186000000000 1.0
C      1  0.5262170000000  0.4759010000000  0.5415340000000 1.0
C      1  0.4152520000000  0.4463150000000  0.5235540000000 1.0
C      1  0.4105390000000  0.4647820000000  0.4999250000000 1.0
C      1  0.4773490000000  0.5838420000000  0.5396090000000 1.0
C      1  0.5228090000000  0.4563470000000  0.4592820000000 1.0
C      1  0.4542510000000  0.4473890000000  0.4889510000000 1.0
C      1  0.4588660000000  0.5641980000000  0.4611310000000 1.0
C      1  0.4040660000000  0.4930820000000  0.5393110000000 1.0
C      1  0.5551790000000  0.5000830000000  0.5721060000000 1.0
C      1  0.5488410000000  0.5744330000000  0.4686830000000 1.0
C      1  0.5714470000000  0.4540780000000  0.4491290000000 1.0
C      1  0.5425440000000  0.4475750000000  0.5793830000000 1.0
C      1  0.5203390000000  0.5806090000000  0.5132860000000 1.0
C      1  0.4982650000000  0.5240130000000  0.5262150000000 1.0
C      1  0.4123980000000  0.4652460000000  0.5469530000000 1.0
C      1  0.5475800000000  0.5307660000000  0.5479280000000 1.0
C      1  0.5160280000000  0.5393470000000  0.5777540000000 1.0
C      1  0.4059320000000  0.5346440000000  0.4963940000000 1.0
C      1  0.4053790000000  0.4924400000000  0.5097960000000 1.0
C      1  0.5922900000000  0.4906970000000  0.5081860000000 1.0
C      1  0.4895610000000  0.5437260000000  0.4020120000000 1.0
C      1  0.5779090000000  0.5330870000000  0.4712240000000 1.0
C      1  0.5219440000000  0.4859240000000  0.4916960000000 1.0
C      1  0.5962230000000  0.4887170000000  0.4776550000000 1.0
C      1  0.4349320000000  0.4703480000000  0.5785080000000 1.0
C      1  0.4819290000000  0.5059050000000  0.5631610000000 1.0
C      1  0.5144430000000  0.4478120000000  0.5875080000000 1.0
C      1  0.5218890000000  0.5743620000000  0.4821450000000 1.0
C      1  0.5373980000000  0.4677460000000  0.4154910000000 1.0
C      1  0.5486540000000  0.4401210000000  0.4611240000000 1.0
C      1  0.4914020000000  0.4234560000000  0.4404320000000 1.0
C      1  0.5080420000000  0.4513100000000  0.5370950000000 1.0
C      1  0.4229570000000  0.5139500000000  0.5564190000000 1.0
C      1  0.5299580000000  0.5234240000000  0.5239710000000 1.0
C      1  0.4643610000000  0.5028640000000  0.5872600000000 1.0
C      1  0.4793800000000  0.5385480000000  0.5075150000000 1.0
END
