TITL C-950530-3293-677 -4.20520295278584e-06 125000 -987.307481947024 0 0 158 (C1) n - 1
REM
REM in /home/bkarasulu/work/CARBON/AIRSS/Generating-Clusters/EDIP-Nigel-Params/with-SteepDescent/Only-C1/SD-CG/HFTN-CG
REM
REM
REM
REM
REM
REM ./C.cell (11c1c37f851c82e70ff6c80c92926a4b)
REM
REM compiler GCC version 9.2.1 20190827 (Red Hat 9.2.1-1)
REM options -cpp -mtune=generic -march=x86-64 -g -O0 -fpre-include=/usr/include/finclude/math-vector-fortran.h
REM seed -1861473059 -2085715663 -1306517250 665479699 -401719819 -1985973682 1011390969 800227822 -1000152827 1672675877 797959670 -167078943 -769230170 -560002890 1396424965 820362925 596506840 276130896 -1302776394 -1507641077 -1625677638 -1617643831 -1573725889 807608850 -202586347 1556387051 -279812870 -268285112 52782470 317807951 -874141135 -1535386823 639962431
REM
CELL 1.54180   50.00000   50.00000   50.00000   90.00000   90.00000   90.00000
LATT -1
SFAC C  
C      1  0.5906780000000  0.5560210000000  0.5213260000000 1.0
C      1  0.4624440000000  0.5616400000000  0.5454370000000 1.0
C      1  0.3898690000000  0.4948990000000  0.5099150000000 1.0
C      1  0.4845550000000  0.4879630000000  0.4973840000000 1.0
C      1  0.5949730000000  0.5312220000000  0.4568430000000 1.0
C      1  0.5965630000000  0.4668310000000  0.5402110000000 1.0
C      1  0.5037120000000  0.4708150000000  0.4815340000000 1.0
C      1  0.5075920000000  0.4719520000000  0.3961680000000 1.0
C      1  0.4126950000000  0.4556800000000  0.5150300000000 1.0
C      1  0.4997240000000  0.4427350000000  0.4782700000000 1.0
C      1  0.5284780000000  0.4471190000000  0.4332660000000 1.0
C      1  0.5649700000000  0.4793700000000  0.4172210000000 1.0
C      1  0.5908580000000  0.4545190000000  0.5158500000000 1.0
C      1  0.5387070000000  0.5648500000000  0.5496670000000 1.0
C      1  0.4598340000000  0.5679380000000  0.4445960000000 1.0
C      1  0.5159220000000  0.3980100000000  0.5174140000000 1.0
C      1  0.4838230000000  0.5562170000000  0.4954080000000 1.0
C      1  0.4658200000000  0.4117910000000  0.4677400000000 1.0
C      1  0.4344570000000  0.4124930000000  0.4617770000000 1.0
C      1  0.4863800000000  0.4030560000000  0.5348070000000 1.0
C      1  0.4231820000000  0.4699470000000  0.5384490000000 1.0
C      1  0.5082180000000  0.3910140000000  0.4894630000000 1.0
C      1  0.4206530000000  0.4334330000000  0.4772960000000 1.0
C      1  0.4950060000000  0.4308420000000  0.5205940000000 1.0
C      1  0.5597950000000  0.5457040000000  0.4794410000000 1.0
C      1  0.4598050000000  0.4596270000000  0.4148340000000 1.0
C      1  0.4040840000000  0.5378910000000  0.5253220000000 1.0
C      1  0.4844480000000  0.6056710000000  0.4619540000000 1.0
C      1  0.4900530000000  0.5483860000000  0.6040550000000 1.0
C      1  0.4771010000000  0.3920110000000  0.4878250000000 1.0
C      1  0.5582850000000  0.4963800000000  0.5842530000000 1.0
C      1  0.4072480000000  0.4755460000000  0.4934120000000 1.0
C      1  0.5344750000000  0.4534430000000  0.5779360000000 1.0
C      1  0.4509900000000  0.5383240000000  0.5856400000000 1.0
C      1  0.5223710000000  0.5376450000000  0.4628540000000 1.0
C      1  0.4465680000000  0.4262200000000  0.5503430000000 1.0
C      1  0.3978310000000  0.5220940000000  0.5023840000000 1.0
C      1  0.4140760000000  0.5179500000000  0.5447850000000 1.0
C      1  0.4901000000000  0.4703250000000  0.6139950000000 1.0
C      1  0.5350230000000  0.5912800000000  0.4643710000000 1.0
C      1  0.4388690000000  0.5881530000000  0.4834430000000 1.0
C      1  0.4645790000000  0.6034880000000  0.4846610000000 1.0
C      1  0.5168780000000  0.4727290000000  0.5313110000000 1.0
C      1  0.4874170000000  0.4289900000000  0.5823470000000 1.0
C      1  0.5375970000000  0.4205960000000  0.5183860000000 1.0
C      1  0.4651390000000  0.5356790000000  0.6102630000000 1.0
C      1  0.4424730000000  0.5031420000000  0.4187970000000 1.0
C      1  0.5587040000000  0.4498540000000  0.4234760000000 1.0
C      1  0.4818090000000  0.5734000000000  0.5891950000000 1.0
C      1  0.4178020000000  0.4687380000000  0.4407630000000 1.0
C      1  0.5092820000000  0.4889150000000  0.5998630000000 1.0
C      1  0.5528520000000  0.4207330000000  0.5472200000000 1.0
C      1  0.4924630000000  0.5413520000000  0.4240970000000 1.0
C      1  0.5054530000000  0.5618630000000  0.4748750000000 1.0
C      1  0.4402220000000  0.4227490000000  0.4345910000000 1.0
C      1  0.5349610000000  0.5412050000000  0.5799980000000 1.0
C      1  0.5822880000000  0.4481160000000  0.4423410000000 1.0
C      1  0.4468440000000  0.5247430000000  0.4386040000000 1.0
C      1  0.4429080000000  0.4531760000000  0.4384730000000 1.0
C      1  0.4915300000000  0.5235940000000  0.5614530000000 1.0
C      1  0.5259640000000  0.4039640000000  0.4688440000000 1.0
C      1  0.4564580000000  0.5651210000000  0.5743210000000 1.0
C      1  0.4056490000000  0.4582550000000  0.4667970000000 1.0
C      1  0.5870340000000  0.4622140000000  0.4893470000000 1.0
C      1  0.5454740000000  0.4658270000000  0.5285200000000 1.0
C      1  0.5792030000000  0.4410590000000  0.4703850000000 1.0
C      1  0.5040920000000  0.5734510000000  0.4274340000000 1.0
C      1  0.4458350000000  0.4856770000000  0.5285480000000 1.0
C      1  0.5104730000000  0.6107980000000  0.4759100000000 1.0
C      1  0.4712020000000  0.4392970000000  0.4791100000000 1.0
C      1  0.4217440000000  0.5094820000000  0.4577560000000 1.0
C      1  0.5159340000000  0.4287950000000  0.4575900000000 1.0
C      1  0.4326780000000  0.4996580000000  0.4859420000000 1.0
C      1  0.4591410000000  0.4618310000000  0.4630830000000 1.0
C      1  0.5487650000000  0.5388630000000  0.5358210000000 1.0
C      1  0.5364340000000  0.4787510000000  0.5935740000000 1.0
C      1  0.5748320000000  0.5386710000000  0.4127160000000 1.0
C      1  0.5812570000000  0.4806330000000  0.5806690000000 1.0
C      1  0.4621720000000  0.5467380000000  0.4246100000000 1.0
C      1  0.5466140000000  0.5403600000000  0.4121050000000 1.0
C      1  0.5542360000000  0.4493620000000  0.5548440000000 1.0
C      1  0.6067630000000  0.5093460000000  0.5240410000000 1.0
C      1  0.4596540000000  0.5412040000000  0.4832330000000 1.0
C      1  0.4687650000000  0.5196330000000  0.4613130000000 1.0
C      1  0.5780180000000  0.5382340000000  0.5411210000000 1.0
C      1  0.5312080000000  0.5785930000000  0.4369170000000 1.0
C      1  0.5546760000000  0.5125690000000  0.4555670000000 1.0
C      1  0.4357680000000  0.4517430000000  0.5603240000000 1.0
C      1  0.4682880000000  0.4720270000000  0.5165560000000 1.0
C      1  0.5096500000000  0.5702190000000  0.5512970000000 1.0
C      1  0.4690170000000  0.4151850000000  0.4299460000000 1.0
C      1  0.5755240000000  0.5801130000000  0.5154960000000 1.0
C      1  0.4154970000000  0.5481520000000  0.4588710000000 1.0
C      1  0.5277980000000  0.4741500000000  0.4444060000000 1.0
C      1  0.5451110000000  0.4515180000000  0.4961230000000 1.0
C      1  0.4177750000000  0.4886740000000  0.4202640000000 1.0
C      1  0.5430800000000  0.5395910000000  0.5044360000000 1.0
C      1  0.4233430000000  0.5573450000000  0.5179920000000 1.0
C      1  0.5100060000000  0.5013920000000  0.5432320000000 1.0
C      1  0.5018350000000  0.5852880000000  0.5732760000000 1.0
C      1  0.3921290000000  0.5359130000000  0.4771330000000 1.0
C      1  0.4550380000000  0.4928400000000  0.5804010000000 1.0
C      1  0.4970050000000  0.5263920000000  0.4498000000000 1.0
C      1  0.5055900000000  0.6005810000000  0.5043890000000 1.0
C      1  0.5387720000000  0.5115810000000  0.5476240000000 1.0
C      1  0.4218350000000  0.4299890000000  0.5062020000000 1.0
C      1  0.4333290000000  0.5836390000000  0.5128610000000 1.0
C      1  0.5436600000000  0.4957690000000  0.4303600000000 1.0
C      1  0.4514340000000  0.4651530000000  0.5813250000000 1.0
C      1  0.4681710000000  0.4422350000000  0.5095970000000 1.0
C      1  0.4899820000000  0.5491490000000  0.5438750000000 1.0
C      1  0.4435690000000  0.5144640000000  0.5363780000000 1.0
C      1  0.4807590000000  0.4390320000000  0.4170560000000 1.0
C      1  0.4618720000000  0.4908210000000  0.4753280000000 1.0
C      1  0.5818280000000  0.4581310000000  0.5635970000000 1.0
C      1  0.5929240000000  0.4896810000000  0.4809130000000 1.0
C      1  0.5949860000000  0.5118400000000  0.4989880000000 1.0
C      1  0.5058690000000  0.4499760000000  0.5696010000000 1.0
C      1  0.4640700000000  0.3955230000000  0.5149000000000 1.0
C      1  0.5894110000000  0.4837140000000  0.4326700000000 1.0
C      1  0.4590910000000  0.5855960000000  0.5283790000000 1.0
C      1  0.4004130000000  0.4916430000000  0.5390830000000 1.0
C      1  0.5820820000000  0.5377210000000  0.5696100000000 1.0
C      1  0.4604000000000  0.5172420000000  0.5660460000000 1.0
C      1  0.4786510000000  0.5864680000000  0.5051450000000 1.0
C      1  0.4422850000000  0.5617970000000  0.4679950000000 1.0
C      1  0.5424750000000  0.5515970000000  0.4403310000000 1.0
C      1  0.5273120000000  0.5805760000000  0.5015070000000 1.0
C      1  0.4471850000000  0.4221000000000  0.5202510000000 1.0
C      1  0.5036290000000  0.5199940000000  0.4039480000000 1.0
C      1  0.5078550000000  0.5309110000000  0.5865630000000 1.0
C      1  0.5030630000000  0.4502840000000  0.5409190000000 1.0
C      1  0.5326280000000  0.5152830000000  0.4080530000000 1.0
C      1  0.5787810000000  0.5911150000000  0.4899140000000 1.0
C      1  0.4876100000000  0.5776250000000  0.4521060000000 1.0
C      1  0.5906810000000  0.5386730000000  0.4868100000000 1.0
C      1  0.4906320000000  0.4939350000000  0.4002370000000 1.0
C      1  0.5040480000000  0.5113610000000  0.5135630000000 1.0
C      1  0.4719230000000  0.4511590000000  0.5981760000000 1.0
C      1  0.5337890000000  0.5119910000000  0.5038300000000 1.0
C      1  0.4932800000000  0.4770210000000  0.5763540000000 1.0
C      1  0.4413850000000  0.5256680000000  0.5045610000000 1.0
C      1  0.4661620000000  0.4873070000000  0.4139530000000 1.0
C      1  0.5809980000000  0.5478420000000  0.4384910000000 1.0
C      1  0.3924360000000  0.5169180000000  0.4553710000000 1.0
C      1  0.5396510000000  0.5005590000000  0.4782830000000 1.0
C      1  0.5570440000000  0.4941340000000  0.5295090000000 1.0
C      1  0.5597560000000  0.5262970000000  0.5834400000000 1.0
C      1  0.5873210000000  0.4948620000000  0.5391140000000 1.0
C      1  0.5473000000000  0.5820240000000  0.5248450000000 1.0
C      1  0.5641930000000  0.4090640000000  0.5242230000000 1.0
C      1  0.5311380000000  0.4739670000000  0.4741010000000 1.0
C      1  0.5084240000000  0.4475260000000  0.4101630000000 1.0
C      1  0.4942620000000  0.5394430000000  0.5167410000000 1.0
C      1  0.5544240000000  0.4269210000000  0.4790020000000 1.0
C      1  0.4715680000000  0.4137570000000  0.5613910000000 1.0
C      1  0.5846060000000  0.5027830000000  0.4555800000000 1.0
C      1  0.5608860000000  0.5765560000000  0.4738560000000 1.0
END
