TITL C-950530-3293-229 -1.38476299351794e-06 125000 -435.834561351832 0 0 71 (C1) n - 1
REM
REM in /home/bkarasulu/work/CARBON/AIRSS/Generating-Clusters/EDIP-Nigel-Params/with-SteepDescent/Only-C1/SD-CG/HFTN-CG
REM
REM
REM
REM
REM
REM ./C.cell (11c1c37f851c82e70ff6c80c92926a4b)
REM
REM compiler GCC version 9.2.1 20190827 (Red Hat 9.2.1-1)
REM options -cpp -mtune=generic -march=x86-64 -g -O0 -fpre-include=/usr/include/finclude/math-vector-fortran.h
REM seed 1665953787 1420881105 -171069372 1908723607 -1485026330 -786273959 2022158250 -1521578532 1692079531 -577253167 -1259005210 -784320673 1401024271 -1070115541 649788231 -971675573 -311018681 -332120095 506023803 -1880664334 -1107476816 -199599866 -741407274 408222114 -2010051259 -1803802204 -1479725352 -1461969744 -2086917415 1772650060 -982730443 1201838689 545219411
REM
CELL 1.54180   50.00000   50.00000   50.00000   90.00000   90.00000   90.00000
LATT -1
SFAC C  
C      1  0.5261710000000  0.4527170000000  0.4931480000000 1.0
C      1  0.4423580000000  0.4540320000000  0.5193430000000 1.0
C      1  0.4758010000000  0.5104100000000  0.5152110000000 1.0
C      1  0.4719540000000  0.5650960000000  0.4931680000000 1.0
C      1  0.4866020000000  0.5163600000000  0.4152990000000 1.0
C      1  0.5076070000000  0.5274560000000  0.4305350000000 1.0
C      1  0.4474220000000  0.5262160000000  0.4719740000000 1.0
C      1  0.5461510000000  0.4516360000000  0.5632450000000 1.0
C      1  0.4623680000000  0.5077160000000  0.4268660000000 1.0
C      1  0.5220620000000  0.4601700000000  0.5232660000000 1.0
C      1  0.4590750000000  0.4807050000000  0.4339220000000 1.0
C      1  0.5436360000000  0.4967510000000  0.4158280000000 1.0
C      1  0.5052670000000  0.5225790000000  0.5503900000000 1.0
C      1  0.4297480000000  0.4570990000000  0.4933930000000 1.0
C      1  0.4651770000000  0.4587900000000  0.4501920000000 1.0
C      1  0.4887470000000  0.5666880000000  0.5160040000000 1.0
C      1  0.4782120000000  0.5795680000000  0.4696480000000 1.0
C      1  0.5680810000000  0.5242610000000  0.5191940000000 1.0
C      1  0.4514850000000  0.5442790000000  0.4956200000000 1.0
C      1  0.5212950000000  0.5947490000000  0.4930940000000 1.0
C      1  0.5195090000000  0.5308000000000  0.5250920000000 1.0
C      1  0.4223620000000  0.4938490000000  0.4994670000000 1.0
C      1  0.5537580000000  0.5086350000000  0.4616510000000 1.0
C      1  0.5348980000000  0.4747910000000  0.4322750000000 1.0
C      1  0.5353670000000  0.5234110000000  0.4821860000000 1.0
C      1  0.5391100000000  0.4839560000000  0.5301190000000 1.0
C      1  0.4862210000000  0.4994040000000  0.5419440000000 1.0
C      1  0.4532460000000  0.5076530000000  0.5631980000000 1.0
C      1  0.5394930000000  0.4833100000000  0.4589640000000 1.0
C      1  0.5272930000000  0.5741670000000  0.4743970000000 1.0
C      1  0.4836780000000  0.4479970000000  0.5561400000000 1.0
C      1  0.4904350000000  0.4190550000000  0.4885240000000 1.0
C      1  0.5109620000000  0.4608640000000  0.4305610000000 1.0
C      1  0.5729810000000  0.5501850000000  0.4905050000000 1.0
C      1  0.4822780000000  0.4309370000000  0.5121980000000 1.0
C      1  0.5416250000000  0.4794490000000  0.5594320000000 1.0
C      1  0.4709060000000  0.4601050000000  0.5116800000000 1.0
C      1  0.5564750000000  0.5182040000000  0.4322190000000 1.0
C      1  0.5855700000000  0.5241910000000  0.4960160000000 1.0
C      1  0.5415980000000  0.5113470000000  0.5156120000000 1.0
C      1  0.4597850000000  0.5350410000000  0.5513530000000 1.0
C      1  0.4470120000000  0.4531470000000  0.4712770000000 1.0
C      1  0.4515050000000  0.5276970000000  0.5215870000000 1.0
C      1  0.5336060000000  0.5571890000000  0.5194990000000 1.0
C      1  0.4863560000000  0.5422810000000  0.5576580000000 1.0
C      1  0.4964120000000  0.5375050000000  0.4554260000000 1.0
C      1  0.4953230000000  0.4793640000000  0.5852270000000 1.0
C      1  0.4961260000000  0.5302970000000  0.5049280000000 1.0
C      1  0.4939980000000  0.4523810000000  0.4514860000000 1.0
C      1  0.5704800000000  0.4778230000000  0.4932640000000 1.0
C      1  0.4922550000000  0.4515000000000  0.5828270000000 1.0
C      1  0.5777660000000  0.5012280000000  0.4783390000000 1.0
C      1  0.5196790000000  0.4888060000000  0.5746870000000 1.0
C      1  0.5015770000000  0.5667710000000  0.4601310000000 1.0
C      1  0.5146540000000  0.5795650000000  0.5165540000000 1.0
C      1  0.4703790000000  0.4880500000000  0.4956400000000 1.0
C      1  0.4913470000000  0.4683490000000  0.5346690000000 1.0
C      1  0.5433150000000  0.5522920000000  0.4903370000000 1.0
C      1  0.4916150000000  0.4239750000000  0.5399350000000 1.0
C      1  0.5333890000000  0.4394310000000  0.5413150000000 1.0
C      1  0.5058320000000  0.4387840000000  0.4755230000000 1.0
C      1  0.5064490000000  0.5219940000000  0.4783900000000 1.0
C      1  0.4448870000000  0.4965670000000  0.4801490000000 1.0
C      1  0.4272090000000  0.5098470000000  0.5235270000000 1.0
C      1  0.5486460000000  0.4656550000000  0.4794360000000 1.0
C      1  0.4716860000000  0.4943490000000  0.5813990000000 1.0
C      1  0.5341130000000  0.5339220000000  0.4221560000000 1.0
C      1  0.5183570000000  0.4159670000000  0.5441630000000 1.0
C      1  0.4312200000000  0.4939870000000  0.5478550000000 1.0
C      1  0.4317350000000  0.4668370000000  0.5417470000000 1.0
C      1  0.4663020000000  0.5298060000000  0.4479950000000 1.0
END
