TITL C-950521-2237-347 -4.17473561657653e-06 125000 -1204.74817406807 0 0 191 (C1) n - 1
REM
REM in /home/bkarasulu/work/CARBON/AIRSS/Generating-Clusters/EDIP-Nigel-Params/with-SteepDescent/Only-C1/SD-CG/HFTN-CG
REM
REM
REM
REM
REM
REM ./C.cell (11c1c37f851c82e70ff6c80c92926a4b)
REM
REM compiler GCC version 9.2.1 20190827 (Red Hat 9.2.1-1)
REM options -cpp -mtune=generic -march=x86-64 -g -O0 -fpre-include=/usr/include/finclude/math-vector-fortran.h
REM seed 1066193646 -1597854729 -1535339037 -1770753517 -1452293687 -1649900031 1670639722 -251934542 -1379631273 -645739954 -630064378 1295436556 -433314209 -455532005 169409730 1678580684 370614354 -1374943716 -264031916 -1655873102 133244395 -1778323813 -360716313 -706253411 -532869478 119315416 -43771076 -263775323 -635917474 -1475549907 -1921698407 826073212 508928772
REM
CELL 1.54180   50.00000   50.00000   50.00000   90.00000   90.00000   90.00000
LATT -1
SFAC C  
C      1  0.4366580000000  0.5388420000000  0.5843750000000 1.0
C      1  0.5189130000000  0.4478620000000  0.5880560000000 1.0
C      1  0.4241590000000  0.4632500000000  0.5779050000000 1.0
C      1  0.4957910000000  0.5632390000000  0.4963290000000 1.0
C      1  0.6118500000000  0.4798520000000  0.4850910000000 1.0
C      1  0.5157780000000  0.4259110000000  0.4499360000000 1.0
C      1  0.5324670000000  0.5923120000000  0.4976750000000 1.0
C      1  0.4200920000000  0.4846730000000  0.4071580000000 1.0
C      1  0.4887690000000  0.6037070000000  0.5201560000000 1.0
C      1  0.5863080000000  0.5830720000000  0.4939590000000 1.0
C      1  0.5381780000000  0.4643380000000  0.4229080000000 1.0
C      1  0.5118780000000  0.5424710000000  0.4314900000000 1.0
C      1  0.4630050000000  0.5907350000000  0.4684410000000 1.0
C      1  0.5240120000000  0.3913920000000  0.5519990000000 1.0
C      1  0.5216010000000  0.5004130000000  0.5684940000000 1.0
C      1  0.5019850000000  0.5924520000000  0.4955990000000 1.0
C      1  0.4947130000000  0.3807790000000  0.5113220000000 1.0
C      1  0.5091090000000  0.5783400000000  0.5631240000000 1.0
C      1  0.5405490000000  0.3890440000000  0.5277860000000 1.0
C      1  0.5454400000000  0.4612990000000  0.5840820000000 1.0
C      1  0.4639040000000  0.4634920000000  0.4138090000000 1.0
C      1  0.4606250000000  0.5951120000000  0.5227630000000 1.0
C      1  0.5249280000000  0.4758090000000  0.4467450000000 1.0
C      1  0.4930920000000  0.5874710000000  0.4223820000000 1.0
C      1  0.5896930000000  0.5410380000000  0.4330290000000 1.0
C      1  0.3971470000000  0.4827670000000  0.4811090000000 1.0
C      1  0.5046880000000  0.5211090000000  0.5844940000000 1.0
C      1  0.5983460000000  0.5301300000000  0.5101190000000 1.0
C      1  0.4015670000000  0.5214650000000  0.4346600000000 1.0
C      1  0.4481380000000  0.5495570000000  0.4731360000000 1.0
C      1  0.5706770000000  0.4829130000000  0.5106560000000 1.0
C      1  0.5008760000000  0.5046250000000  0.4709460000000 1.0
C      1  0.4410530000000  0.5044640000000  0.3964000000000 1.0
C      1  0.4357210000000  0.4887480000000  0.5870630000000 1.0
C      1  0.4562990000000  0.3951690000000  0.4829100000000 1.0
C      1  0.5262980000000  0.4677130000000  0.4901250000000 1.0
C      1  0.4519170000000  0.5059970000000  0.4407140000000 1.0
C      1  0.5628860000000  0.4869500000000  0.5413520000000 1.0
C      1  0.6035280000000  0.5635330000000  0.4762270000000 1.0
C      1  0.5285530000000  0.4795900000000  0.3979730000000 1.0
C      1  0.4748310000000  0.5335080000000  0.4641330000000 1.0
C      1  0.6019770000000  0.4826080000000  0.5147800000000 1.0
C      1  0.4915370000000  0.5377560000000  0.5631860000000 1.0
C      1  0.4914640000000  0.5568000000000  0.4696810000000 1.0
C      1  0.4157110000000  0.4348800000000  0.4822030000000 1.0
C      1  0.4786790000000  0.3797140000000  0.4884530000000 1.0
C      1  0.3852900000000  0.5245390000000  0.4569090000000 1.0
C      1  0.5790460000000  0.4292890000000  0.5136920000000 1.0
C      1  0.4051020000000  0.4714670000000  0.5581580000000 1.0
C      1  0.3827940000000  0.5228380000000  0.5053290000000 1.0
C      1  0.4676620000000  0.5460610000000  0.4090320000000 1.0
C      1  0.3961890000000  0.4797240000000  0.5140710000000 1.0
C      1  0.5085240000000  0.4988400000000  0.4410520000000 1.0
C      1  0.5387480000000  0.5637610000000  0.5540620000000 1.0
C      1  0.6103270000000  0.5091350000000  0.5265060000000 1.0
C      1  0.4801210000000  0.5644960000000  0.5722490000000 1.0
C      1  0.4628700000000  0.5393860000000  0.5961230000000 1.0
C      1  0.4813840000000  0.4288430000000  0.5171890000000 1.0
C      1  0.5052610000000  0.4631100000000  0.6104810000000 1.0
C      1  0.3843030000000  0.5090000000000  0.4800160000000 1.0
C      1  0.4617690000000  0.4612340000000  0.4687240000000 1.0
C      1  0.5634750000000  0.4252680000000  0.4596850000000 1.0
C      1  0.5775110000000  0.4505230000000  0.4712790000000 1.0
C      1  0.5237380000000  0.5119000000000  0.4927280000000 1.0
C      1  0.6018280000000  0.5070760000000  0.4722550000000 1.0
C      1  0.4595210000000  0.4922220000000  0.4656490000000 1.0
C      1  0.4684220000000  0.4375710000000  0.5859210000000 1.0
C      1  0.6028770000000  0.4651460000000  0.5408320000000 1.0
C      1  0.4864150000000  0.4738950000000  0.5097290000000 1.0
C      1  0.5025260000000  0.4283800000000  0.5409870000000 1.0
C      1  0.5880280000000  0.4862680000000  0.5582690000000 1.0
C      1  0.5026940000000  0.5395790000000  0.5374110000000 1.0
C      1  0.4315290000000  0.4301380000000  0.4591210000000 1.0
C      1  0.5179850000000  0.5317160000000  0.3885290000000 1.0
C      1  0.4356110000000  0.5296740000000  0.4908430000000 1.0
C      1  0.4781310000000  0.5138540000000  0.5981870000000 1.0
C      1  0.5162380000000  0.5610590000000  0.4556450000000 1.0
C      1  0.4914070000000  0.4993810000000  0.5224930000000 1.0
C      1  0.5104780000000  0.5898650000000  0.4452380000000 1.0
C      1  0.4016920000000  0.5226070000000  0.5532840000000 1.0
C      1  0.4833930000000  0.5444410000000  0.5157430000000 1.0
C      1  0.5361810000000  0.4184450000000  0.4718850000000 1.0
C      1  0.5572590000000  0.5066070000000  0.5827990000000 1.0
C      1  0.5694990000000  0.5985650000000  0.4743830000000 1.0
C      1  0.5512800000000  0.4199610000000  0.5701640000000 1.0
C      1  0.4507860000000  0.5805180000000  0.4428800000000 1.0
C      1  0.4972140000000  0.4304540000000  0.4920490000000 1.0
C      1  0.4903130000000  0.5001570000000  0.4062000000000 1.0
C      1  0.5094090000000  0.5996770000000  0.5416050000000 1.0
C      1  0.4810660000000  0.5327810000000  0.4338290000000 1.0
C      1  0.4493990000000  0.5870620000000  0.4954960000000 1.0
C      1  0.5259070000000  0.4372570000000  0.4967110000000 1.0
C      1  0.4558790000000  0.5715270000000  0.5533340000000 1.0
C      1  0.5460810000000  0.5844600000000  0.4323390000000 1.0
C      1  0.5683130000000  0.4705750000000  0.4266510000000 1.0
C      1  0.4297350000000  0.5614460000000  0.5669240000000 1.0
C      1  0.5816200000000  0.5568120000000  0.4565370000000 1.0
C      1  0.4631130000000  0.4931180000000  0.4145060000000 1.0
C      1  0.4344590000000  0.5382580000000  0.5195390000000 1.0
C      1  0.5427720000000  0.5124280000000  0.5472350000000 1.0
C      1  0.4555810000000  0.4135290000000  0.4605180000000 1.0
C      1  0.4456720000000  0.4441530000000  0.5667740000000 1.0
C      1  0.4399630000000  0.5337040000000  0.4063920000000 1.0
C      1  0.5289940000000  0.5179210000000  0.4318740000000 1.0
C      1  0.5546370000000  0.5827220000000  0.5372670000000 1.0
C      1  0.5378620000000  0.5588950000000  0.4824240000000 1.0
C      1  0.4197530000000  0.5423440000000  0.4264450000000 1.0
C      1  0.4559650000000  0.4643960000000  0.5458560000000 1.0
C      1  0.4267220000000  0.4539180000000  0.4434900000000 1.0
C      1  0.5810610000000  0.4958460000000  0.4166660000000 1.0
C      1  0.5872680000000  0.5498300000000  0.5286940000000 1.0
C      1  0.5694190000000  0.5428690000000  0.4116480000000 1.0
C      1  0.5644520000000  0.5154340000000  0.4005420000000 1.0
C      1  0.5519410000000  0.5328700000000  0.5948830000000 1.0
C      1  0.4895210000000  0.5260940000000  0.3910920000000 1.0
C      1  0.5352940000000  0.5101060000000  0.4025780000000 1.0
C      1  0.4579340000000  0.5564250000000  0.5256100000000 1.0
C      1  0.5709580000000  0.4745250000000  0.4556630000000 1.0
C      1  0.4189100000000  0.4975890000000  0.4348200000000 1.0
C      1  0.4863280000000  0.4356200000000  0.4641950000000 1.0
C      1  0.4175370000000  0.4337930000000  0.5304500000000 1.0
C      1  0.5618670000000  0.5381750000000  0.4716890000000 1.0
C      1  0.5235480000000  0.3825090000000  0.5053270000000 1.0
C      1  0.5527400000000  0.5151340000000  0.4521050000000 1.0
C      1  0.4917150000000  0.6011180000000  0.4683260000000 1.0
C      1  0.4215900000000  0.5792810000000  0.4972450000000 1.0
C      1  0.5460060000000  0.6123210000000  0.4819490000000 1.0
C      1  0.5343180000000  0.4340860000000  0.4271760000000 1.0
C      1  0.5600260000000  0.4229210000000  0.4318200000000 1.0
C      1  0.5018040000000  0.4530610000000  0.5614230000000 1.0
C      1  0.4340090000000  0.4824710000000  0.5047430000000 1.0
C      1  0.5469350000000  0.5625890000000  0.4136020000000 1.0
C      1  0.4658530000000  0.4868820000000  0.5896100000000 1.0
C      1  0.5179210000000  0.4755930000000  0.5481430000000 1.0
C      1  0.4762760000000  0.4614670000000  0.6028620000000 1.0
C      1  0.5288440000000  0.4315250000000  0.5270920000000 1.0
C      1  0.5353150000000  0.6000680000000  0.5264550000000 1.0
C      1  0.5313990000000  0.5394960000000  0.5343760000000 1.0
C      1  0.5106440000000  0.4024270000000  0.5756230000000 1.0
C      1  0.4277450000000  0.5141330000000  0.5699730000000 1.0
C      1  0.4112320000000  0.5594980000000  0.5202580000000 1.0
C      1  0.4098610000000  0.4759490000000  0.4543890000000 1.0
C      1  0.4529690000000  0.4008520000000  0.5342950000000 1.0
C      1  0.4113360000000  0.5628300000000  0.4744550000000 1.0
C      1  0.5672040000000  0.4532980000000  0.4991850000000 1.0
C      1  0.4845860000000  0.4531970000000  0.3971810000000 1.0
C      1  0.5887480000000  0.4398050000000  0.5387510000000 1.0
C      1  0.5331820000000  0.3906020000000  0.4800000000000 1.0
C      1  0.5598170000000  0.5496900000000  0.5717080000000 1.0
C      1  0.5682400000000  0.5827750000000  0.4501660000000 1.0
C      1  0.4060250000000  0.5527250000000  0.5501670000000 1.0
C      1  0.5773200000000  0.5159090000000  0.4921980000000 1.0
C      1  0.5729470000000  0.5712450000000  0.5176980000000 1.0
C      1  0.4745050000000  0.5069440000000  0.5477020000000 1.0
C      1  0.4342150000000  0.4837110000000  0.5359420000000 1.0
C      1  0.4449510000000  0.4062110000000  0.5068350000000 1.0
C      1  0.5311560000000  0.5379120000000  0.5035110000000 1.0
C      1  0.5294930000000  0.4198510000000  0.5880850000000 1.0
C      1  0.4664960000000  0.4544560000000  0.5183040000000 1.0
C      1  0.4352060000000  0.4209420000000  0.5503600000000 1.0
C      1  0.5793300000000  0.5363680000000  0.5528870000000 1.0
C      1  0.5463520000000  0.4871850000000  0.4642800000000 1.0
C      1  0.5234880000000  0.5332260000000  0.6055990000000 1.0
C      1  0.4999770000000  0.4764890000000  0.3913040000000 1.0
C      1  0.4453670000000  0.4558170000000  0.4950410000000 1.0
C      1  0.5232710000000  0.5581480000000  0.3983550000000 1.0
C      1  0.4761020000000  0.4807300000000  0.5616220000000 1.0
C      1  0.3938480000000  0.5077580000000  0.5275110000000 1.0
C      1  0.5275730000000  0.4893060000000  0.5134450000000 1.0
C      1  0.4515710000000  0.5051720000000  0.4917700000000 1.0
C      1  0.4436110000000  0.5117280000000  0.5430510000000 1.0
C      1  0.5473010000000  0.4849610000000  0.6001330000000 1.0
C      1  0.6064470000000  0.4543570000000  0.4730950000000 1.0
C      1  0.5989030000000  0.5132670000000  0.5540380000000 1.0
C      1  0.5193610000000  0.5136950000000  0.6266920000000 1.0
C      1  0.3995120000000  0.4568220000000  0.5343990000000 1.0
C      1  0.5897780000000  0.5121870000000  0.4412540000000 1.0
C      1  0.4831730000000  0.3949790000000  0.5358600000000 1.0
C      1  0.5462240000000  0.4650050000000  0.5544630000000 1.0
C      1  0.3885950000000  0.5503900000000  0.5036360000000 1.0
C      1  0.4249440000000  0.5647750000000  0.4458510000000 1.0
C      1  0.4208650000000  0.4208690000000  0.5055670000000 1.0
C      1  0.5208090000000  0.4893440000000  0.6115260000000 1.0
C      1  0.5631950000000  0.4052670000000  0.5185780000000 1.0
C      1  0.6150300000000  0.5390860000000  0.4877000000000 1.0
C      1  0.4346670000000  0.4580980000000  0.4150820000000 1.0
C      1  0.5517090000000  0.4371650000000  0.5465530000000 1.0
C      1  0.4960330000000  0.4738410000000  0.4816410000000 1.0
C      1  0.4770240000000  0.5170640000000  0.5048050000000 1.0
C      1  0.4856840000000  0.4157800000000  0.5792160000000 1.0
C      1  0.4678740000000  0.5755840000000  0.4190150000000 1.0
END
