TITL C-951346-9544-718 2.47983288439903e-06 125000 -1019.16172774655 0 0 163 (C1) n - 1
REM
REM in /home/bkarasulu/work/CARBON/AIRSS/Generating-Clusters/EDIP-Nigel-Params/with-SteepDescent/Only-C1/SD-CG/HFTN-CG
REM
REM
REM
REM
REM
REM ./C.cell (11c1c37f851c82e70ff6c80c92926a4b)
REM
REM compiler GCC version 9.2.1 20190827 (Red Hat 9.2.1-1)
REM options -cpp -mtune=generic -march=x86-64 -g -O0 -fpre-include=/usr/include/finclude/math-vector-fortran.h
REM seed -985487206 -656395618 -2141936002 762475955 -1096560720 886918418 1109510807 1969984140 343333891 -1151512894 -2084718874 519268307 -1810475318 1145590032 -980360683 802217395 474178036 1267554866 508488701 -1822071924 -1060588279 1245807404 -864517519 1699848419 1617401371 -818235879 346818816 -1110912149 -1878258105 -198437199 -277304908 6059243 -517052857
REM
CELL 1.54180   50.00000   50.00000   50.00000   90.00000   90.00000   90.00000
LATT -1
SFAC C  
C      1  0.5369840000000  0.5025530000000  0.4196730000000 1.0
C      1  0.5612990000000  0.4422060000000  0.4469610000000 1.0
C      1  0.5530930000000  0.6079810000000  0.5061750000000 1.0
C      1  0.5984420000000  0.4830250000000  0.5479930000000 1.0
C      1  0.5099630000000  0.4883720000000  0.4912230000000 1.0
C      1  0.5300920000000  0.5487370000000  0.5349750000000 1.0
C      1  0.4618830000000  0.5056210000000  0.6057210000000 1.0
C      1  0.5120220000000  0.5429240000000  0.5903300000000 1.0
C      1  0.4286630000000  0.4989440000000  0.4175650000000 1.0
C      1  0.5530270000000  0.5129350000000  0.5068770000000 1.0
C      1  0.6101720000000  0.5120150000000  0.4727210000000 1.0
C      1  0.4916040000000  0.5368450000000  0.5058110000000 1.0
C      1  0.4989890000000  0.5542260000000  0.5297420000000 1.0
C      1  0.5601750000000  0.5485110000000  0.4658290000000 1.0
C      1  0.4621240000000  0.5926300000000  0.5281760000000 1.0
C      1  0.4507540000000  0.4712630000000  0.5147810000000 1.0
C      1  0.5856860000000  0.5341530000000  0.5539800000000 1.0
C      1  0.5136240000000  0.4722200000000  0.3937970000000 1.0
C      1  0.5293220000000  0.4372570000000  0.5736390000000 1.0
C      1  0.5323970000000  0.4655670000000  0.5855580000000 1.0
C      1  0.4617390000000  0.5389850000000  0.5040960000000 1.0
C      1  0.5452550000000  0.4046840000000  0.5373330000000 1.0
C      1  0.4019430000000  0.4997260000000  0.4598290000000 1.0
C      1  0.4136890000000  0.5064610000000  0.5512900000000 1.0
C      1  0.4074880000000  0.4548820000000  0.5289350000000 1.0
C      1  0.5551000000000  0.4569050000000  0.4212640000000 1.0
C      1  0.4550030000000  0.5506280000000  0.4791290000000 1.0
C      1  0.5900980000000  0.5193360000000  0.4532490000000 1.0
C      1  0.5127690000000  0.4898740000000  0.5914910000000 1.0
C      1  0.4638460000000  0.6138980000000  0.5034330000000 1.0
C      1  0.5935700000000  0.5429040000000  0.4391920000000 1.0
C      1  0.4414560000000  0.5276180000000  0.4652430000000 1.0
C      1  0.5843370000000  0.4927040000000  0.4425040000000 1.0
C      1  0.5172740000000  0.4804850000000  0.4401620000000 1.0
C      1  0.4892780000000  0.4546840000000  0.5667360000000 1.0
C      1  0.4812150000000  0.4328550000000  0.4153770000000 1.0
C      1  0.4896460000000  0.4535220000000  0.4754760000000 1.0
C      1  0.5465920000000  0.5614300000000  0.5589300000000 1.0
C      1  0.5913820000000  0.4833940000000  0.5196420000000 1.0
C      1  0.4421020000000  0.5230850000000  0.4072850000000 1.0
C      1  0.4357360000000  0.5750580000000  0.4832450000000 1.0
C      1  0.5285490000000  0.5217700000000  0.5497440000000 1.0
C      1  0.5091990000000  0.4329900000000  0.4234990000000 1.0
C      1  0.4087910000000  0.5143600000000  0.4347200000000 1.0
C      1  0.5389440000000  0.5779980000000  0.4527840000000 1.0
C      1  0.5305800000000  0.5337160000000  0.4625760000000 1.0
C      1  0.4343420000000  0.4244860000000  0.4969950000000 1.0
C      1  0.4893620000000  0.5816100000000  0.5205440000000 1.0
C      1  0.5050220000000  0.5198290000000  0.3901160000000 1.0
C      1  0.5502090000000  0.4267510000000  0.5563950000000 1.0
C      1  0.4284060000000  0.5603660000000  0.5330320000000 1.0
C      1  0.4368970000000  0.4909490000000  0.6003310000000 1.0
C      1  0.5242840000000  0.5669870000000  0.5787300000000 1.0
C      1  0.5463990000000  0.4561360000000  0.4706780000000 1.0
C      1  0.5902440000000  0.5576390000000  0.5372500000000 1.0
C      1  0.5201670000000  0.4031800000000  0.5213600000000 1.0
C      1  0.5797590000000  0.4663680000000  0.5639390000000 1.0
C      1  0.5487070000000  0.4086400000000  0.4798100000000 1.0
C      1  0.6059100000000  0.4697230000000  0.4981790000000 1.0
C      1  0.4873380000000  0.4790360000000  0.4051970000000 1.0
C      1  0.5631500000000  0.5385760000000  0.5705030000000 1.0
C      1  0.3990540000000  0.5048860000000  0.5252720000000 1.0
C      1  0.4209300000000  0.5115160000000  0.4814260000000 1.0
C      1  0.4221820000000  0.5697950000000  0.4538070000000 1.0
C      1  0.4550760000000  0.4132430000000  0.4451580000000 1.0
C      1  0.4255560000000  0.5398540000000  0.4432450000000 1.0
C      1  0.4833690000000  0.5076310000000  0.4065580000000 1.0
C      1  0.4118970000000  0.5248090000000  0.5065380000000 1.0
C      1  0.5645120000000  0.5557340000000  0.4945780000000 1.0
C      1  0.5244150000000  0.4579570000000  0.4186140000000 1.0
C      1  0.4363920000000  0.5344900000000  0.5210990000000 1.0
C      1  0.5659740000000  0.5992910000000  0.5279640000000 1.0
C      1  0.4004470000000  0.5153030000000  0.5743960000000 1.0
C      1  0.4896400000000  0.6256750000000  0.5030760000000 1.0
C      1  0.4551420000000  0.5370130000000  0.5636630000000 1.0
C      1  0.4343470000000  0.4448270000000  0.5216630000000 1.0
C      1  0.5680760000000  0.4012910000000  0.5213850000000 1.0
C      1  0.4613120000000  0.5847850000000  0.5596240000000 1.0
C      1  0.4889370000000  0.5589570000000  0.4139930000000 1.0
C      1  0.4880460000000  0.4968270000000  0.5361100000000 1.0
C      1  0.5697690000000  0.5780430000000  0.5454880000000 1.0
C      1  0.4372100000000  0.4708310000000  0.4711090000000 1.0
C      1  0.5511940000000  0.5129910000000  0.5802890000000 1.0
C      1  0.5735310000000  0.4107180000000  0.4956050000000 1.0
C      1  0.5847960000000  0.5126890000000  0.5156940000000 1.0
C      1  0.4717350000000  0.4068280000000  0.4687430000000 1.0
C      1  0.4523720000000  0.6004760000000  0.4779920000000 1.0
C      1  0.5474360000000  0.4544010000000  0.5223560000000 1.0
C      1  0.4752700000000  0.4591130000000  0.5017530000000 1.0
C      1  0.4316760000000  0.4856160000000  0.4954590000000 1.0
C      1  0.5379320000000  0.4772510000000  0.5429460000000 1.0
C      1  0.5184040000000  0.4404270000000  0.4801580000000 1.0
C      1  0.5913860000000  0.5503290000000  0.5076030000000 1.0
C      1  0.5189500000000  0.4570740000000  0.5080640000000 1.0
C      1  0.5253400000000  0.5164920000000  0.5937430000000 1.0
C      1  0.4905160000000  0.4771470000000  0.4593380000000 1.0
C      1  0.4047970000000  0.4788910000000  0.5112060000000 1.0
C      1  0.4772500000000  0.4358790000000  0.5478820000000 1.0
C      1  0.4997060000000  0.5150840000000  0.5582720000000 1.0
C      1  0.5056040000000  0.5525540000000  0.4794570000000 1.0
C      1  0.4945180000000  0.3966180000000  0.5337800000000 1.0
C      1  0.5401170000000  0.4830730000000  0.4597180000000 1.0
C      1  0.5995500000000  0.5099720000000  0.5558150000000 1.0
C      1  0.5320940000000  0.5326120000000  0.4270720000000 1.0
C      1  0.4887260000000  0.4108460000000  0.5587930000000 1.0
C      1  0.4589040000000  0.4805840000000  0.4525440000000 1.0
C      1  0.4871850000000  0.5466120000000  0.4395900000000 1.0
C      1  0.6081660000000  0.5244720000000  0.4994910000000 1.0
C      1  0.4440230000000  0.4670830000000  0.4276670000000 1.0
C      1  0.5666750000000  0.5799270000000  0.4466570000000 1.0
C      1  0.5064450000000  0.4762790000000  0.5517120000000 1.0
C      1  0.5097480000000  0.4170500000000  0.5768890000000 1.0
C      1  0.4132140000000  0.5047860000000  0.5955860000000 1.0
C      1  0.4848010000000  0.5522490000000  0.5983260000000 1.0
C      1  0.4414970000000  0.5630450000000  0.5592560000000 1.0
C      1  0.4193400000000  0.4304840000000  0.4708950000000 1.0
C      1  0.4510310000000  0.5510980000000  0.4160230000000 1.0
C      1  0.4919860000000  0.4469330000000  0.5223720000000 1.0
C      1  0.5639030000000  0.4580430000000  0.4961780000000 1.0
C      1  0.5474440000000  0.4160730000000  0.4513420000000 1.0
C      1  0.4619010000000  0.5341380000000  0.6011580000000 1.0
C      1  0.3978680000000  0.4499120000000  0.4706220000000 1.0
C      1  0.4725190000000  0.3978600000000  0.5164750000000 1.0
C      1  0.4850140000000  0.5422400000000  0.5555520000000 1.0
C      1  0.5286580000000  0.5998390000000  0.4951850000000 1.0
C      1  0.5727610000000  0.4426530000000  0.5493660000000 1.0
C      1  0.4968880000000  0.5073130000000  0.5098860000000 1.0
C      1  0.5227710000000  0.4004270000000  0.4914730000000 1.0
C      1  0.4664460000000  0.4095840000000  0.4199940000000 1.0
C      1  0.5129410000000  0.5447890000000  0.4038700000000 1.0
C      1  0.4040520000000  0.4565150000000  0.5571250000000 1.0
C      1  0.5275320000000  0.5748540000000  0.4792630000000 1.0
C      1  0.4580070000000  0.4067520000000  0.4943110000000 1.0
C      1  0.5058890000000  0.6043030000000  0.5125510000000 1.0
C      1  0.5638650000000  0.4862680000000  0.4225800000000 1.0
C      1  0.4416090000000  0.5156080000000  0.5444270000000 1.0
C      1  0.5547030000000  0.5472300000000  0.4182260000000 1.0
C      1  0.4672680000000  0.5890800000000  0.4539460000000 1.0
C      1  0.5384300000000  0.5027030000000  0.5303770000000 1.0
C      1  0.4464650000000  0.4351460000000  0.5470330000000 1.0
C      1  0.5852480000000  0.4376480000000  0.4948750000000 1.0
C      1  0.4110010000000  0.4713290000000  0.4566220000000 1.0
C      1  0.5186180000000  0.4148500000000  0.4444040000000 1.0
C      1  0.5536290000000  0.4808050000000  0.5696700000000 1.0
C      1  0.4450110000000  0.5780020000000  0.4351920000000 1.0
C      1  0.5767020000000  0.5612570000000  0.4272110000000 1.0
C      1  0.4795150000000  0.5617890000000  0.4635140000000 1.0
C      1  0.4728050000000  0.4634800000000  0.5891670000000 1.0
C      1  0.4354490000000  0.4345630000000  0.4462370000000 1.0
C      1  0.4676750000000  0.4585870000000  0.4103590000000 1.0
C      1  0.4297400000000  0.4492530000000  0.5670740000000 1.0
C      1  0.4607550000000  0.5094110000000  0.4530140000000 1.0
C      1  0.4443770000000  0.4669990000000  0.5852510000000 1.0
C      1  0.4778590000000  0.5204140000000  0.4333780000000 1.0
C      1  0.6061830000000  0.4829540000000  0.4726810000000 1.0
C      1  0.4587540000000  0.4915950000000  0.5366510000000 1.0
C      1  0.4845920000000  0.4873080000000  0.5999120000000 1.0
C      1  0.5025170000000  0.4046970000000  0.4681940000000 1.0
C      1  0.5345170000000  0.5046670000000  0.4793040000000 1.0
C      1  0.4864030000000  0.5755310000000  0.5758500000000 1.0
C      1  0.5265390000000  0.4988900000000  0.3915020000000 1.0
C      1  0.4367740000000  0.5808640000000  0.5148720000000 1.0
C      1  0.5441110000000  0.5411250000000  0.5088610000000 1.0
END
