TITL C-950532-2784-607 1.76685402729293e-06 125000 -684.897120186366 0 0 111 (C1) n - 1
REM
REM in /home/bkarasulu/work/CARBON/AIRSS/Generating-Clusters/EDIP-Nigel-Params/with-SteepDescent/Only-C1/SD-CG/HFTN-CG
REM
REM
REM
REM
REM
REM ./C.cell (11c1c37f851c82e70ff6c80c92926a4b)
REM
REM compiler GCC version 9.2.1 20190827 (Red Hat 9.2.1-1)
REM options -cpp -mtune=generic -march=x86-64 -g -O0 -fpre-include=/usr/include/finclude/math-vector-fortran.h
REM seed -1501094802 -1533912741 889696788 776590150 -952050822 -709514221 204547780 720620233 832529227 -1426389175 -226442771 719758197 2016434213 -1963988809 -1661488406 -221214481 86014816 1564063854 -101982318 -1373991241 -2076258593 -1062307214 -1632524764 -652344014 -746141872 -1846007226 -577643258 566406696 -1407495645 -198804721 -43641112 164598695 -2067422339
REM
CELL 1.54180   50.00000   50.00000   50.00000   90.00000   90.00000   90.00000
LATT -1
SFAC C  
C      1  0.5224830000000  0.4693690000000  0.5866510000000 1.0
C      1  0.4516270000000  0.4997650000000  0.4267070000000 1.0
C      1  0.5484770000000  0.5052930000000  0.4356900000000 1.0
C      1  0.4233120000000  0.5508800000000  0.4842320000000 1.0
C      1  0.5787010000000  0.5020730000000  0.5457230000000 1.0
C      1  0.4506610000000  0.5414140000000  0.4760350000000 1.0
C      1  0.4561270000000  0.4664090000000  0.5506800000000 1.0
C      1  0.4582430000000  0.5742970000000  0.5125110000000 1.0
C      1  0.5096450000000  0.4352660000000  0.5268140000000 1.0
C      1  0.4643300000000  0.4743920000000  0.5228310000000 1.0
C      1  0.5263110000000  0.5146940000000  0.5294580000000 1.0
C      1  0.4756120000000  0.5157680000000  0.4289250000000 1.0
C      1  0.4291850000000  0.4543180000000  0.5452310000000 1.0
C      1  0.5166550000000  0.4970170000000  0.4834900000000 1.0
C      1  0.4743670000000  0.4076190000000  0.5483010000000 1.0
C      1  0.4038980000000  0.4667840000000  0.4807080000000 1.0
C      1  0.4925210000000  0.4292960000000  0.5507570000000 1.0
C      1  0.5087340000000  0.4766080000000  0.4243560000000 1.0
C      1  0.5358580000000  0.5032360000000  0.5040840000000 1.0
C      1  0.5275220000000  0.5245270000000  0.5933860000000 1.0
C      1  0.4405340000000  0.5423720000000  0.4294170000000 1.0
C      1  0.4398770000000  0.5133150000000  0.5635830000000 1.0
C      1  0.5368150000000  0.4789350000000  0.4375810000000 1.0
C      1  0.5905560000000  0.4956760000000  0.4642160000000 1.0
C      1  0.5553920000000  0.4597200000000  0.4507000000000 1.0
C      1  0.4279660000000  0.5677190000000  0.5076670000000 1.0
C      1  0.5221680000000  0.4690140000000  0.4780520000000 1.0
C      1  0.5616490000000  0.4963770000000  0.5704990000000 1.0
C      1  0.5215870000000  0.4123490000000  0.5122470000000 1.0
C      1  0.5510620000000  0.4170290000000  0.5131890000000 1.0
C      1  0.4594430000000  0.4258450000000  0.4603940000000 1.0
C      1  0.4709480000000  0.4239640000000  0.4344780000000 1.0
C      1  0.5899280000000  0.5559160000000  0.4723030000000 1.0
C      1  0.4298890000000  0.5174620000000  0.4255750000000 1.0
C      1  0.4291020000000  0.4584030000000  0.4427340000000 1.0
C      1  0.5988900000000  0.5347630000000  0.4922100000000 1.0
C      1  0.4995270000000  0.4512040000000  0.4685030000000 1.0
C      1  0.4868840000000  0.4437320000000  0.4231230000000 1.0
C      1  0.5065810000000  0.5356840000000  0.5176800000000 1.0
C      1  0.4257320000000  0.4496400000000  0.4873770000000 1.0
C      1  0.4854990000000  0.4952850000000  0.5222750000000 1.0
C      1  0.5270080000000  0.5557600000000  0.5566710000000 1.0
C      1  0.4880160000000  0.5494520000000  0.4464590000000 1.0
C      1  0.5617750000000  0.4272390000000  0.4867760000000 1.0
C      1  0.5160530000000  0.4266270000000  0.4639910000000 1.0
C      1  0.5524830000000  0.5776480000000  0.5046470000000 1.0
C      1  0.4581780000000  0.4145800000000  0.5266490000000 1.0
C      1  0.4532630000000  0.4636590000000  0.4935660000000 1.0
C      1  0.4187120000000  0.5488110000000  0.5294670000000 1.0
C      1  0.5586180000000  0.4385380000000  0.5330400000000 1.0
C      1  0.5640790000000  0.4962520000000  0.4991540000000 1.0
C      1  0.5733360000000  0.5412830000000  0.4532730000000 1.0
C      1  0.4983280000000  0.5037230000000  0.4139350000000 1.0
C      1  0.4551790000000  0.4896210000000  0.5707160000000 1.0
C      1  0.5100060000000  0.5419880000000  0.5791900000000 1.0
C      1  0.5693210000000  0.5805370000000  0.4782840000000 1.0
C      1  0.4725540000000  0.4409450000000  0.4831720000000 1.0
C      1  0.4984680000000  0.5613280000000  0.4742590000000 1.0
C      1  0.4790170000000  0.5943070000000  0.5073150000000 1.0
C      1  0.4904480000000  0.4955390000000  0.4940320000000 1.0
C      1  0.5177650000000  0.4865700000000  0.5407560000000 1.0
C      1  0.5453310000000  0.5324330000000  0.5483020000000 1.0
C      1  0.5451550000000  0.5790560000000  0.4580730000000 1.0
C      1  0.5384040000000  0.4775920000000  0.5645390000000 1.0
C      1  0.4870980000000  0.4642810000000  0.4428640000000 1.0
C      1  0.4845020000000  0.5651690000000  0.5510810000000 1.0
C      1  0.5827100000000  0.4487280000000  0.4914660000000 1.0
C      1  0.5731350000000  0.5127790000000  0.4493790000000 1.0
C      1  0.4319730000000  0.4353310000000  0.4612750000000 1.0
C      1  0.4600030000000  0.5729960000000  0.5421220000000 1.0
C      1  0.5073690000000  0.5618190000000  0.5350080000000 1.0
C      1  0.5448870000000  0.4340660000000  0.4622270000000 1.0
C      1  0.5770930000000  0.4697860000000  0.4694250000000 1.0
C      1  0.4583820000000  0.5511070000000  0.4491650000000 1.0
C      1  0.4539360000000  0.4765620000000  0.4453840000000 1.0
C      1  0.4841910000000  0.5271880000000  0.5728660000000 1.0
C      1  0.5495410000000  0.5223570000000  0.5759380000000 1.0
C      1  0.5269750000000  0.5923630000000  0.4992790000000 1.0
C      1  0.4058170000000  0.4706060000000  0.4535500000000 1.0
C      1  0.4963120000000  0.4734040000000  0.5765380000000 1.0
C      1  0.5720230000000  0.5287700000000  0.5044040000000 1.0
C      1  0.5811240000000  0.4555110000000  0.5218930000000 1.0
C      1  0.5301600000000  0.5280370000000  0.4415210000000 1.0
C      1  0.4739650000000  0.4218480000000  0.5045470000000 1.0
C      1  0.4020770000000  0.5325000000000  0.4871410000000 1.0
C      1  0.5503780000000  0.5492220000000  0.4903930000000 1.0
C      1  0.4205950000000  0.5000970000000  0.5196200000000 1.0
C      1  0.4410080000000  0.5182020000000  0.5339290000000 1.0
C      1  0.5446170000000  0.4608550000000  0.4973830000000 1.0
C      1  0.5048290000000  0.5870360000000  0.5176060000000 1.0
C      1  0.4815310000000  0.4983890000000  0.5803260000000 1.0
C      1  0.5479340000000  0.5522210000000  0.4463990000000 1.0
C      1  0.4524000000000  0.4860870000000  0.4734190000000 1.0
C      1  0.4704100000000  0.5499430000000  0.4980810000000 1.0
C      1  0.5155070000000  0.5213790000000  0.4668360000000 1.0
C      1  0.4401930000000  0.5569620000000  0.5546310000000 1.0
C      1  0.4796520000000  0.4521790000000  0.5647580000000 1.0
C      1  0.4032730000000  0.5245530000000  0.5139630000000 1.0
C      1  0.5719840000000  0.4832870000000  0.5242120000000 1.0
C      1  0.4699300000000  0.5238440000000  0.5209980000000 1.0
C      1  0.5181720000000  0.5423770000000  0.4880650000000 1.0
C      1  0.4352690000000  0.4299670000000  0.5325230000000 1.0
C      1  0.5728460000000  0.5303910000000  0.5349140000000 1.0
C      1  0.5319130000000  0.4559340000000  0.5269880000000 1.0
C      1  0.5130940000000  0.4085270000000  0.4854670000000 1.0
C      1  0.4549820000000  0.5368290000000  0.5720200000000 1.0
C      1  0.5101010000000  0.5318560000000  0.4201200000000 1.0
C      1  0.5184540000000  0.5848640000000  0.4715250000000 1.0
C      1  0.4146480000000  0.4748370000000  0.5316440000000 1.0
C      1  0.6080700000000  0.5105260000000  0.4806360000000 1.0
C      1  0.4691440000000  0.5075080000000  0.4798270000000 1.0
END
