TITL C-950523-3027-111 -7.11916841657815e-06 125000 -1095.60699971036 0 0 175 (C1) n - 1
REM
REM in /home/bkarasulu/work/CARBON/AIRSS/Generating-Clusters/EDIP-Nigel-Params/with-SteepDescent/Only-C1/SD-CG/HFTN-CG
REM
REM
REM
REM
REM
REM ./C.cell (11c1c37f851c82e70ff6c80c92926a4b)
REM
REM compiler GCC version 9.2.1 20190827 (Red Hat 9.2.1-1)
REM options -cpp -mtune=generic -march=x86-64 -g -O0 -fpre-include=/usr/include/finclude/math-vector-fortran.h
REM seed -1016563424 345188755 1663757648 -890635913 341272070 1931496343 -751690505 1193586344 310553643 341003803 959305854 -1654945341 916974169 566018861 1814409185 1383630768 106000351 760047629 -112470341 176547940 563098000 -1232756798 -188274825 -1324508603 -1660172981 1249248803 -1489784545 -1729945655 -1641236265 1032620281 -1054083277 1755443852 -842374047
REM
CELL 1.54180   50.00000   50.00000   50.00000   90.00000   90.00000   90.00000
LATT -1
SFAC C  
C      1  0.4494980000000  0.4653370000000  0.4702020000000 1.0
C      1  0.5360670000000  0.5534050000000  0.4129430000000 1.0
C      1  0.5410670000000  0.5755280000000  0.5417160000000 1.0
C      1  0.5373630000000  0.5822460000000  0.4291810000000 1.0
C      1  0.4752370000000  0.4045740000000  0.5460920000000 1.0
C      1  0.5839440000000  0.5540520000000  0.5467420000000 1.0
C      1  0.5171820000000  0.5843440000000  0.5262580000000 1.0
C      1  0.5471820000000  0.4464890000000  0.4223990000000 1.0
C      1  0.4902450000000  0.5690880000000  0.4306600000000 1.0
C      1  0.4886030000000  0.4438120000000  0.4835360000000 1.0
C      1  0.4961790000000  0.5882480000000  0.5465010000000 1.0
C      1  0.4828190000000  0.5186640000000  0.4693440000000 1.0
C      1  0.4542430000000  0.5274290000000  0.6003420000000 1.0
C      1  0.4209230000000  0.5358350000000  0.5596080000000 1.0
C      1  0.5052990000000  0.5634230000000  0.5078230000000 1.0
C      1  0.4915800000000  0.4026130000000  0.4596900000000 1.0
C      1  0.5606960000000  0.4177790000000  0.4848400000000 1.0
C      1  0.5847460000000  0.5762850000000  0.4425740000000 1.0
C      1  0.5643350000000  0.4324720000000  0.5418940000000 1.0
C      1  0.5278500000000  0.4471450000000  0.4554670000000 1.0
C      1  0.5568580000000  0.5201940000000  0.4129020000000 1.0
C      1  0.4322410000000  0.4424080000000  0.5518700000000 1.0
C      1  0.4962400000000  0.4942310000000  0.5702630000000 1.0
C      1  0.4708470000000  0.3837160000000  0.4643800000000 1.0
C      1  0.6048130000000  0.4640090000000  0.5264170000000 1.0
C      1  0.3774240000000  0.4868560000000  0.5259360000000 1.0
C      1  0.4243110000000  0.5152830000000  0.5218750000000 1.0
C      1  0.5738870000000  0.5754590000000  0.5015550000000 1.0
C      1  0.4969360000000  0.4126390000000  0.4312160000000 1.0
C      1  0.5008590000000  0.4149620000000  0.5060770000000 1.0
C      1  0.5191720000000  0.4644860000000  0.6027800000000 1.0
C      1  0.5546800000000  0.5900870000000  0.4800780000000 1.0
C      1  0.5607060000000  0.4700870000000  0.5128750000000 1.0
C      1  0.5816400000000  0.4992790000000  0.5850580000000 1.0
C      1  0.5732550000000  0.5405080000000  0.5708240000000 1.0
C      1  0.4753320000000  0.5434170000000  0.3956540000000 1.0
C      1  0.5337880000000  0.4751040000000  0.4624040000000 1.0
C      1  0.5462260000000  0.4449080000000  0.5634590000000 1.0
C      1  0.4462260000000  0.4346870000000  0.5105460000000 1.0
C      1  0.3988690000000  0.5309710000000  0.5149380000000 1.0
C      1  0.5179740000000  0.4982720000000  0.3936360000000 1.0
C      1  0.5462850000000  0.4949850000000  0.4002550000000 1.0
C      1  0.5978800000000  0.4799430000000  0.5729570000000 1.0
C      1  0.4697670000000  0.5931440000000  0.5352480000000 1.0
C      1  0.4511970000000  0.4985350000000  0.5966190000000 1.0
C      1  0.4485790000000  0.5759810000000  0.5474290000000 1.0
C      1  0.4240950000000  0.4883430000000  0.5066770000000 1.0
C      1  0.5106390000000  0.5281990000000  0.3978530000000 1.0
C      1  0.5920420000000  0.5557630000000  0.4880710000000 1.0
C      1  0.5026790000000  0.5702610000000  0.5678620000000 1.0
C      1  0.4058720000000  0.4923400000000  0.4399740000000 1.0
C      1  0.4949220000000  0.4539340000000  0.5458920000000 1.0
C      1  0.4475930000000  0.4709130000000  0.5177040000000 1.0
C      1  0.3990340000000  0.4798800000000  0.5423710000000 1.0
C      1  0.4396760000000  0.5263360000000  0.4345390000000 1.0
C      1  0.4775740000000  0.4309800000000  0.4156910000000 1.0
C      1  0.5261970000000  0.4223310000000  0.5683960000000 1.0
C      1  0.5271350000000  0.4013210000000  0.5464640000000 1.0
C      1  0.4927940000000  0.4718080000000  0.4901830000000 1.0
C      1  0.4236250000000  0.4802370000000  0.4209440000000 1.0
C      1  0.4595450000000  0.4399620000000  0.4836190000000 1.0
C      1  0.5301980000000  0.5624550000000  0.5652540000000 1.0
C      1  0.5499200000000  0.5512700000000  0.4768520000000 1.0
C      1  0.4873920000000  0.5267320000000  0.4179560000000 1.0
C      1  0.5952340000000  0.4559080000000  0.4761220000000 1.0
C      1  0.5060640000000  0.6005870000000  0.4698360000000 1.0
C      1  0.4998040000000  0.5143530000000  0.5280430000000 1.0
C      1  0.4382740000000  0.4566250000000  0.5771420000000 1.0
C      1  0.5413530000000  0.5093890000000  0.5560480000000 1.0
C      1  0.5517100000000  0.4970780000000  0.5830470000000 1.0
C      1  0.4515830000000  0.5534860000000  0.4902960000000 1.0
C      1  0.5336360000000  0.4316380000000  0.4822280000000 1.0
C      1  0.5155190000000  0.4964600000000  0.5462930000000 1.0
C      1  0.4574350000000  0.4874890000000  0.5441180000000 1.0
C      1  0.5303430000000  0.6076840000000  0.4854410000000 1.0
C      1  0.5983620000000  0.5337330000000  0.5326320000000 1.0
C      1  0.4369330000000  0.5448950000000  0.5828480000000 1.0
C      1  0.5010930000000  0.5713640000000  0.4775470000000 1.0
C      1  0.4189160000000  0.4649600000000  0.4617480000000 1.0
C      1  0.4404110000000  0.5561090000000  0.4275840000000 1.0
C      1  0.4893230000000  0.6164200000000  0.5130660000000 1.0
C      1  0.4970180000000  0.4451620000000  0.4528650000000 1.0
C      1  0.5139870000000  0.5341430000000  0.5098120000000 1.0
C      1  0.5238930000000  0.5410380000000  0.4376380000000 1.0
C      1  0.6000580000000  0.5323380000000  0.5043250000000 1.0
C      1  0.4794590000000  0.5204110000000  0.5715080000000 1.0
C      1  0.4916000000000  0.5057370000000  0.4414940000000 1.0
C      1  0.5190650000000  0.4670590000000  0.5365470000000 1.0
C      1  0.4159920000000  0.5230980000000  0.4744840000000 1.0
C      1  0.5677440000000  0.4885950000000  0.5359670000000 1.0
C      1  0.5987550000000  0.5289200000000  0.4454140000000 1.0
C      1  0.4533480000000  0.4394360000000  0.4327130000000 1.0
C      1  0.5850640000000  0.5128350000000  0.4223000000000 1.0
C      1  0.5464990000000  0.5450630000000  0.5815390000000 1.0
C      1  0.4634080000000  0.5409180000000  0.4621580000000 1.0
C      1  0.5720090000000  0.4720630000000  0.4622130000000 1.0
C      1  0.5422120000000  0.4675780000000  0.5844800000000 1.0
C      1  0.5643270000000  0.5656020000000  0.5282960000000 1.0
C      1  0.5591740000000  0.5848710000000  0.4500810000000 1.0
C      1  0.5085040000000  0.5276710000000  0.4811020000000 1.0
C      1  0.4360850000000  0.5002380000000  0.4818140000000 1.0
C      1  0.5125690000000  0.4074650000000  0.4811030000000 1.0
C      1  0.4837800000000  0.4336650000000  0.5898120000000 1.0
C      1  0.4534610000000  0.4241250000000  0.5386620000000 1.0
C      1  0.5513570000000  0.4084430000000  0.5311790000000 1.0
C      1  0.4781420000000  0.4724010000000  0.5612680000000 1.0
C      1  0.5796720000000  0.4473810000000  0.5196910000000 1.0
C      1  0.3909150000000  0.5169480000000  0.4899470000000 1.0
C      1  0.5596360000000  0.5223770000000  0.4638170000000 1.0
C      1  0.5072100000000  0.5182030000000  0.6043140000000 1.0
C      1  0.5210620000000  0.4795090000000  0.4901570000000 1.0
C      1  0.5896820000000  0.5538810000000  0.4583620000000 1.0
C      1  0.5620800000000  0.5195820000000  0.5333640000000 1.0
C      1  0.4473870000000  0.4991070000000  0.4179910000000 1.0
C      1  0.6059700000000  0.5064820000000  0.4910090000000 1.0
C      1  0.4274130000000  0.5565740000000  0.5377070000000 1.0
C      1  0.4661440000000  0.5652640000000  0.4124740000000 1.0
C      1  0.4215810000000  0.4192590000000  0.5005500000000 1.0
C      1  0.4971540000000  0.4298920000000  0.5629800000000 1.0
C      1  0.5409960000000  0.5177100000000  0.4393760000000 1.0
C      1  0.5846070000000  0.4334910000000  0.4933450000000 1.0
C      1  0.5590110000000  0.4720280000000  0.4145010000000 1.0
C      1  0.4738300000000  0.4857070000000  0.5078190000000 1.0
C      1  0.5215410000000  0.4949270000000  0.4428380000000 1.0
C      1  0.5571640000000  0.3986100000000  0.5053090000000 1.0
C      1  0.4685340000000  0.4626020000000  0.4457740000000 1.0
C      1  0.5228440000000  0.4356480000000  0.4133190000000 1.0
C      1  0.4710720000000  0.4796900000000  0.6071000000000 1.0
C      1  0.4629970000000  0.5087360000000  0.4927250000000 1.0
C      1  0.5913000000000  0.5253610000000  0.5860380000000 1.0
C      1  0.5265160000000  0.4161340000000  0.5972420000000 1.0
C      1  0.5192980000000  0.6111190000000  0.5129320000000 1.0
C      1  0.4546990000000  0.5664870000000  0.5747350000000 1.0
C      1  0.4989750000000  0.4507480000000  0.4087170000000 1.0
C      1  0.5082540000000  0.4367000000000  0.6063070000000 1.0
C      1  0.4836640000000  0.5393890000000  0.6051570000000 1.0
C      1  0.5665820000000  0.4867210000000  0.4893400000000 1.0
C      1  0.6085840000000  0.4754450000000  0.4975500000000 1.0
C      1  0.4105740000000  0.4540990000000  0.5347290000000 1.0
C      1  0.4175430000000  0.5002180000000  0.5572810000000 1.0
C      1  0.5362370000000  0.5219210000000  0.5977780000000 1.0
C      1  0.4230820000000  0.5529870000000  0.4823820000000 1.0
C      1  0.4312510000000  0.5717650000000  0.4517780000000 1.0
C      1  0.3859690000000  0.4879860000000  0.4984360000000 1.0
C      1  0.4432700000000  0.3840750000000  0.4697670000000 1.0
C      1  0.4712610000000  0.4874410000000  0.4314270000000 1.0
C      1  0.3977690000000  0.4617510000000  0.4853580000000 1.0
C      1  0.4030650000000  0.4420140000000  0.5076690000000 1.0
C      1  0.4258420000000  0.4081840000000  0.4725760000000 1.0
C      1  0.4672700000000  0.4581880000000  0.5861920000000 1.0
C      1  0.4549620000000  0.5858150000000  0.4599810000000 1.0
C      1  0.4267540000000  0.4518640000000  0.4265130000000 1.0
C      1  0.4728430000000  0.4845230000000  0.3834680000000 1.0
C      1  0.4818650000000  0.5619200000000  0.5851190000000 1.0
C      1  0.5321960000000  0.4594400000000  0.5093560000000 1.0
C      1  0.4716460000000  0.5175650000000  0.5390680000000 1.0
C      1  0.4775360000000  0.5666030000000  0.4567410000000 1.0
C      1  0.5099820000000  0.5917700000000  0.4368910000000 1.0
C      1  0.4314330000000  0.4856390000000  0.5793320000000 1.0
C      1  0.5478820000000  0.5085810000000  0.4873960000000 1.0
C      1  0.4117850000000  0.5569720000000  0.5115350000000 1.0
C      1  0.4806450000000  0.6100350000000  0.4865240000000 1.0
C      1  0.4517240000000  0.4215320000000  0.4610060000000 1.0
C      1  0.4529320000000  0.5019920000000  0.3894890000000 1.0
C      1  0.5956260000000  0.5082480000000  0.4646530000000 1.0
C      1  0.5214700000000  0.5503680000000  0.4660720000000 1.0
C      1  0.5005720000000  0.3999720000000  0.5308560000000 1.0
C      1  0.4980900000000  0.4753360000000  0.3911960000000 1.0
C      1  0.4577460000000  0.5916200000000  0.4877790000000 1.0
C      1  0.5001240000000  0.4879510000000  0.6088240000000 1.0
C      1  0.4130370000000  0.5196930000000  0.4457510000000 1.0
C      1  0.5800860000000  0.4833150000000  0.4318800000000 1.0
C      1  0.5454180000000  0.5302640000000  0.5089240000000 1.0
C      1  0.4531220000000  0.5293040000000  0.5140960000000 1.0
C      1  0.5955300000000  0.4843010000000  0.5455160000000 1.0
END
