TITL C-950522-5749-299 -2.18564498375194e-07 125000 -349.648201419689 0 0 59 (C1) n - 1
REM
REM in /home/bkarasulu/work/CARBON/AIRSS/Generating-Clusters/EDIP-Nigel-Params/with-SteepDescent/Only-C1/SD-CG/HFTN-CG
REM
REM
REM
REM
REM
REM ./C.cell (11c1c37f851c82e70ff6c80c92926a4b)
REM
REM compiler GCC version 9.2.1 20190827 (Red Hat 9.2.1-1)
REM options -cpp -mtune=generic -march=x86-64 -g -O0 -fpre-include=/usr/include/finclude/math-vector-fortran.h
REM seed -1518719403 -325609994 421171334 -677403535 470415609 -70499518 -765803633 -1698783510 671845677 -1528020923 875871991 -776831931 1811325186 -1805123252 -1873773174 1899644557 -1883948286 -1252683818 -58849034 -1687559699 926977382 -1821208720 -592439411 1742643604 1727018426 1917446368 -492903535 -256144720 790779600 -1249237309 -1420765417 -776594851 832371895
REM
CELL 1.54180   50.00000   50.00000   50.00000   90.00000   90.00000   90.00000
LATT -1
SFAC C  
C      1  0.5464900000000  0.4852290000000  0.4635450000000 1.0
C      1  0.4480640000000  0.5377000000000  0.5022290000000 1.0
C      1  0.5573860000000  0.4683110000000  0.4864100000000 1.0
C      1  0.5426290000000  0.4419910000000  0.4934430000000 1.0
C      1  0.4795830000000  0.5251590000000  0.5336130000000 1.0
C      1  0.4737960000000  0.5075770000000  0.5558660000000 1.0
C      1  0.4268370000000  0.5069810000000  0.4605630000000 1.0
C      1  0.4984700000000  0.4588240000000  0.4919950000000 1.0
C      1  0.4482780000000  0.5216860000000  0.4541030000000 1.0
C      1  0.4917270000000  0.5672210000000  0.4914750000000 1.0
C      1  0.5376860000000  0.5798420000000  0.5045730000000 1.0
C      1  0.5407800000000  0.5769920000000  0.4768110000000 1.0
C      1  0.5252800000000  0.4835320000000  0.4196080000000 1.0
C      1  0.5264530000000  0.5024400000000  0.5526240000000 1.0
C      1  0.4480690000000  0.4810160000000  0.5231250000000 1.0
C      1  0.5051820000000  0.5009500000000  0.4192520000000 1.0
C      1  0.5040580000000  0.4407070000000  0.4714030000000 1.0
C      1  0.4680300000000  0.5167940000000  0.5070030000000 1.0
C      1  0.4835660000000  0.4315280000000  0.4553240000000 1.0
C      1  0.5054880000000  0.5408360000000  0.5281950000000 1.0
C      1  0.4690730000000  0.5683230000000  0.5340940000000 1.0
C      1  0.5276010000000  0.5351770000000  0.4590320000000 1.0
C      1  0.5319610000000  0.4366400000000  0.5195660000000 1.0
C      1  0.4358410000000  0.4637060000000  0.4821090000000 1.0
C      1  0.5558080000000  0.4746050000000  0.5793900000000 1.0
C      1  0.4756800000000  0.5243250000000  0.4566340000000 1.0
C      1  0.4248860000000  0.4905170000000  0.4827660000000 1.0
C      1  0.4359080000000  0.4461520000000  0.4606480000000 1.0
C      1  0.4627080000000  0.5636630000000  0.5046720000000 1.0
C      1  0.4613900000000  0.4338840000000  0.5118950000000 1.0
C      1  0.5333420000000  0.4774130000000  0.5621530000000 1.0
C      1  0.5548430000000  0.5121590000000  0.5102110000000 1.0
C      1  0.5294240000000  0.4292800000000  0.4719310000000 1.0
C      1  0.5507880000000  0.5601480000000  0.5196770000000 1.0
C      1  0.4855660000000  0.4227020000000  0.5164210000000 1.0
C      1  0.4459200000000  0.4566170000000  0.5079190000000 1.0
C      1  0.4993680000000  0.5702170000000  0.5358050000000 1.0
C      1  0.4573270000000  0.4334260000000  0.4508950000000 1.0
C      1  0.4965140000000  0.5730110000000  0.4630080000000 1.0
C      1  0.5429650000000  0.4753870000000  0.4378550000000 1.0
C      1  0.4771690000000  0.4601450000000  0.5575350000000 1.0
C      1  0.5367770000000  0.4784340000000  0.5181360000000 1.0
C      1  0.5075770000000  0.4291080000000  0.5323390000000 1.0
C      1  0.4904320000000  0.5171340000000  0.4344240000000 1.0
C      1  0.5231430000000  0.5630830000000  0.4602870000000 1.0
C      1  0.5520050000000  0.5338270000000  0.5288850000000 1.0
C      1  0.5442710000000  0.5140180000000  0.4674020000000 1.0
C      1  0.4880070000000  0.5202970000000  0.4840680000000 1.0
C      1  0.4633960000000  0.4823300000000  0.5480100000000 1.0
C      1  0.5104540000000  0.4816210000000  0.5032110000000 1.0
C      1  0.5086950000000  0.5842030000000  0.5109900000000 1.0
C      1  0.4322790000000  0.5026760000000  0.5086780000000 1.0
C      1  0.4614430000000  0.5434940000000  0.5474410000000 1.0
C      1  0.5070630000000  0.5412070000000  0.4955080000000 1.0
C      1  0.5282010000000  0.5288480000000  0.5439120000000 1.0
C      1  0.5672730000000  0.4862970000000  0.5091340000000 1.0
C      1  0.4983600000000  0.4438680000000  0.5540720000000 1.0
C      1  0.5112300000000  0.5024100000000  0.4836860000000 1.0
C      1  0.5574590000000  0.4643300000000  0.5544400000000 1.0
END
