TITL C-951336-9012-239 1.41760324806096e-08 125000 -209.44823444443 0 0 36 (C1) n - 1
REM
REM in /home/bkarasulu/work/CARBON/AIRSS/Generating-Clusters/EDIP-Nigel-Params/with-SteepDescent/Only-C1/SD-CG/HFTN-CG
REM
REM
REM
REM
REM
REM ./C.cell (11c1c37f851c82e70ff6c80c92926a4b)
REM
REM compiler GCC version 9.2.1 20190827 (Red Hat 9.2.1-1)
REM options -cpp -mtune=generic -march=x86-64 -g -O0 -fpre-include=/usr/include/finclude/math-vector-fortran.h
REM seed 398709494 -72989942 1465647759 -1136242257 -1069109912 -440374219 101245876 -22982142 -279027586 -796424577 -1424875472 734295311 774873317 -2047354387 206626159 255327676 1130896552 -1741743524 -1342922533 80113426 1446063451 -379137170 -1817454141 -1902250564 1735970169 1738212688 -2059250982 -438728293 -106527246 -48001814 149337449 -1837489663 2029928071
REM
CELL 1.54180   50.00000   50.00000   50.00000   90.00000   90.00000   90.00000
LATT -1
SFAC C  
C      1  0.5394510000000  0.4859690000000  0.4305930000000 1.0
C      1  0.4506230000000  0.5634390000000  0.5303460000000 1.0
C      1  0.4913820000000  0.5239530000000  0.5301810000000 1.0
C      1  0.5495300000000  0.4673790000000  0.4489540000000 1.0
C      1  0.5525440000000  0.4513680000000  0.4932900000000 1.0
C      1  0.4569490000000  0.4597240000000  0.5284960000000 1.0
C      1  0.5911500000000  0.4607740000000  0.5712930000000 1.0
C      1  0.5567730000000  0.4609010000000  0.5177410000000 1.0
C      1  0.4101990000000  0.5101830000000  0.4797240000000 1.0
C      1  0.5107090000000  0.4522680000000  0.4717950000000 1.0
C      1  0.4379020000000  0.5092220000000  0.4792960000000 1.0
C      1  0.5085690000000  0.5839810000000  0.4939370000000 1.0
C      1  0.5356180000000  0.4962990000000  0.5401570000000 1.0
C      1  0.4133680000000  0.4688690000000  0.5058170000000 1.0
C      1  0.5013540000000  0.4943400000000  0.4517390000000 1.0
C      1  0.5151330000000  0.5131290000000  0.5390460000000 1.0
C      1  0.4106400000000  0.4825910000000  0.4822930000000 1.0
C      1  0.4884930000000  0.4873310000000  0.4989170000000 1.0
C      1  0.5049560000000  0.5593250000000  0.4880080000000 1.0
C      1  0.5089700000000  0.5213950000000  0.4584600000000 1.0
C      1  0.4792190000000  0.4702580000000  0.5185120000000 1.0
C      1  0.5789950000000  0.4811100000000  0.5841750000000 1.0
C      1  0.5116220000000  0.4829250000000  0.4276850000000 1.0
C      1  0.5775470000000  0.4803120000000  0.5558420000000 1.0
C      1  0.4990670000000  0.5330580000000  0.4826220000000 1.0
C      1  0.4829480000000  0.5167590000000  0.5021460000000 1.0
C      1  0.5451990000000  0.5132660000000  0.4340800000000 1.0
C      1  0.5387280000000  0.4517770000000  0.4694890000000 1.0
C      1  0.4957780000000  0.4760130000000  0.4734200000000 1.0
C      1  0.5534900000000  0.4753750000000  0.5409370000000 1.0
C      1  0.4845770000000  0.5498830000000  0.5403010000000 1.0
C      1  0.4308770000000  0.4595250000000  0.5234720000000 1.0
C      1  0.4618640000000  0.5567510000000  0.5547830000000 1.0
C      1  0.5283870000000  0.5333280000000  0.4419910000000 1.0
C      1  0.4536610000000  0.5223740000000  0.4990470000000 1.0
C      1  0.4437260000000  0.5448450000000  0.5114160000000 1.0
END
