TITL C-950527-2551-39 2.44705292039359e-07 125000 -35.451771384668 0 0 7 (Cs) n - 1
REM
REM in /home/bkarasulu/work/CARBON/AIRSS/Generating-Clusters/EDIP-Nigel-Params/with-SteepDescent/Only-C1/SD-CG/HFTN-CG
REM
REM
REM
REM
REM
REM ./C.cell (11c1c37f851c82e70ff6c80c92926a4b)
REM
REM compiler GCC version 9.2.1 20190827 (Red Hat 9.2.1-1)
REM options -cpp -mtune=generic -march=x86-64 -g -O0 -fpre-include=/usr/include/finclude/math-vector-fortran.h
REM seed -1932083414 1008386779 -455500908 382581052 647756940 -964552499 1912326217 1125057341 -346085252 -78956993 1925858747 1549574996 -1063573216 -2115852557 -659169907 -843527041 1229856383 -1342379033 1310162568 -2015576786 -2030394780 1513667017 -737594589 1861212976 -722102206 -2068736638 -1946278660 -1618086877 -556847113 -160847913 284193501 1669297749 -793303111
REM
CELL 1.54180   50.00000   50.00000   50.00000   90.00000   90.00000   90.00000
LATT -1
SFAC C  
C      1  0.4293520000000  0.5111130000000  0.4880650000000 1.0
C      1  0.5048570000000  0.4973260000000  0.5039110000000 1.0
C      1  0.4540250000000  0.5066880000000  0.4931140000000 1.0
C      1  0.5298720000000  0.4905020000000  0.5128130000000 1.0
C      1  0.5519340000000  0.5078010000000  0.5085960000000 1.0
C      1  0.4792390000000  0.5016790000000  0.4990610000000 1.0
C      1  0.5507210000000  0.4848910000000  0.4944400000000 1.0
END
