TITL C-950521-2237-675 -2.62320094482612e-06 125000 -555.100153289531 0 0 91 (C1) n - 1
REM
REM in /home/bkarasulu/work/CARBON/AIRSS/Generating-Clusters/EDIP-Nigel-Params/with-SteepDescent/Only-C1/SD-CG/HFTN-CG
REM
REM
REM
REM
REM
REM ./C.cell (11c1c37f851c82e70ff6c80c92926a4b)
REM
REM compiler GCC version 9.2.1 20190827 (Red Hat 9.2.1-1)
REM options -cpp -mtune=generic -march=x86-64 -g -O0 -fpre-include=/usr/include/finclude/math-vector-fortran.h
REM seed 741785204 -2094730314 -1560870424 1055589471 1039839993 142395343 -234337418 -1998636172 -1468464940 601421606 1944328994 -804909567 198196842 -589521381 575022479 -1896373155 -345003907 -1111223506 751233659 378562262 -77077014 -270027509 1078569779 2072202075 461654647 517027642 -241808542 1354966980 -1980067355 -2108019664 -1858659535 -726072749 2032043217
REM
CELL 1.54180   50.00000   50.00000   50.00000   90.00000   90.00000   90.00000
LATT -1
SFAC C  
C      1  0.4306260000000  0.4438620000000  0.4937310000000 1.0
C      1  0.5336280000000  0.5386040000000  0.4214650000000 1.0
C      1  0.5308010000000  0.4328780000000  0.4724860000000 1.0
C      1  0.4796420000000  0.5882350000000  0.4695000000000 1.0
C      1  0.4251660000000  0.5041790000000  0.4566710000000 1.0
C      1  0.4706820000000  0.5267060000000  0.4951980000000 1.0
C      1  0.5190340000000  0.4747770000000  0.5131140000000 1.0
C      1  0.5116050000000  0.5193080000000  0.4128310000000 1.0
C      1  0.4438790000000  0.5122670000000  0.5408040000000 1.0
C      1  0.5305490000000  0.5470920000000  0.5696090000000 1.0
C      1  0.4568920000000  0.5709490000000  0.5057620000000 1.0
C      1  0.5683180000000  0.4823560000000  0.5157550000000 1.0
C      1  0.4493220000000  0.5466980000000  0.4913410000000 1.0
C      1  0.5359830000000  0.5163190000000  0.5284040000000 1.0
C      1  0.5668560000000  0.4565440000000  0.4985040000000 1.0
C      1  0.4515540000000  0.5483220000000  0.4610520000000 1.0
C      1  0.4884620000000  0.5568420000000  0.5610950000000 1.0
C      1  0.5515810000000  0.5355770000000  0.4453880000000 1.0
C      1  0.4764000000000  0.4690230000000  0.5801840000000 1.0
C      1  0.5881200000000  0.5037220000000  0.5046100000000 1.0
C      1  0.4836140000000  0.5128330000000  0.5833730000000 1.0
C      1  0.4864350000000  0.5133070000000  0.5527580000000 1.0
C      1  0.5446950000000  0.5027990000000  0.4773800000000 1.0
C      1  0.5063570000000  0.5750220000000  0.5080560000000 1.0
C      1  0.4857200000000  0.5292290000000  0.4204590000000 1.0
C      1  0.4706850000000  0.5072630000000  0.4726790000000 1.0
C      1  0.5426130000000  0.4398540000000  0.4987890000000 1.0
C      1  0.4511720000000  0.5180360000000  0.4520560000000 1.0
C      1  0.4569160000000  0.4372720000000  0.5087330000000 1.0
C      1  0.4441710000000  0.4842680000000  0.5488580000000 1.0
C      1  0.5666580000000  0.5479930000000  0.4903590000000 1.0
C      1  0.4795840000000  0.4571400000000  0.4333540000000 1.0
C      1  0.5027570000000  0.5457950000000  0.4592650000000 1.0
C      1  0.5803730000000  0.5319030000000  0.5117880000000 1.0
C      1  0.5081280000000  0.4498230000000  0.4360490000000 1.0
C      1  0.4158230000000  0.4647690000000  0.5095790000000 1.0
C      1  0.4806310000000  0.5831410000000  0.4968520000000 1.0
C      1  0.4634450000000  0.4433590000000  0.5372370000000 1.0
C      1  0.5626970000000  0.5314240000000  0.5354150000000 1.0
C      1  0.5195830000000  0.4940980000000  0.4626070000000 1.0
C      1  0.4981500000000  0.5284780000000  0.5085300000000 1.0
C      1  0.5114610000000  0.5053310000000  0.5935010000000 1.0
C      1  0.4774250000000  0.5628780000000  0.4572620000000 1.0
C      1  0.5550460000000  0.5717810000000  0.4998960000000 1.0
C      1  0.5486600000000  0.4490860000000  0.4533670000000 1.0
C      1  0.5452730000000  0.4522050000000  0.4245580000000 1.0
C      1  0.4471160000000  0.5327390000000  0.5597180000000 1.0
C      1  0.5104840000000  0.4908220000000  0.4194950000000 1.0
C      1  0.4221600000000  0.5342880000000  0.4986640000000 1.0
C      1  0.4098070000000  0.5174050000000  0.4772440000000 1.0
C      1  0.5425230000000  0.4945430000000  0.5066200000000 1.0
C      1  0.4973410000000  0.5145750000000  0.4544440000000 1.0
C      1  0.5540640000000  0.4552590000000  0.5556370000000 1.0
C      1  0.5043000000000  0.4168430000000  0.4786220000000 1.0
C      1  0.5265300000000  0.4318270000000  0.5210780000000 1.0
C      1  0.5281340000000  0.4472440000000  0.5459950000000 1.0
C      1  0.5100010000000  0.4650990000000  0.4644050000000 1.0
C      1  0.4640210000000  0.4436430000000  0.4535310000000 1.0
C      1  0.5030080000000  0.4214900000000  0.5075630000000 1.0
C      1  0.4987110000000  0.4977020000000  0.5130690000000 1.0
C      1  0.5209380000000  0.4486080000000  0.5742950000000 1.0
C      1  0.4558790000000  0.4814020000000  0.4859730000000 1.0
C      1  0.5016530000000  0.4572820000000  0.4948980000000 1.0
C      1  0.4663320000000  0.5447280000000  0.5761390000000 1.0
C      1  0.4822380000000  0.4851310000000  0.4256160000000 1.0
C      1  0.5277330000000  0.4693490000000  0.4099330000000 1.0
C      1  0.4648910000000  0.4919250000000  0.5920870000000 1.0
C      1  0.5703660000000  0.4620690000000  0.4690020000000 1.0
C      1  0.4247990000000  0.4683720000000  0.5359080000000 1.0
C      1  0.4803290000000  0.4235920000000  0.4651360000000 1.0
C      1  0.4424600000000  0.4596190000000  0.4680310000000 1.0
C      1  0.4993120000000  0.5369900000000  0.5398720000000 1.0
C      1  0.4246230000000  0.5130070000000  0.5192150000000 1.0
C      1  0.4649240000000  0.5100340000000  0.4258610000000 1.0
C      1  0.5173340000000  0.5448590000000  0.4861340000000 1.0
C      1  0.4727660000000  0.4633730000000  0.5047360000000 1.0
C      1  0.5332410000000  0.5167160000000  0.5770270000000 1.0
C      1  0.4956860000000  0.4877040000000  0.5415270000000 1.0
C      1  0.5336030000000  0.5714180000000  0.5176940000000 1.0
C      1  0.5709040000000  0.4912790000000  0.4657460000000 1.0
C      1  0.5208260000000  0.5579420000000  0.4392680000000 1.0
C      1  0.4270020000000  0.4903550000000  0.4984780000000 1.0
C      1  0.4702100000000  0.4696010000000  0.5505000000000 1.0
C      1  0.5048700000000  0.4695030000000  0.5862940000000 1.0
C      1  0.5093510000000  0.5638130000000  0.5788130000000 1.0
C      1  0.5370530000000  0.4991950000000  0.5525680000000 1.0
C      1  0.5401460000000  0.5526520000000  0.5409510000000 1.0
C      1  0.5612670000000  0.4814860000000  0.5470150000000 1.0
C      1  0.5943400000000  0.5018320000000  0.4772430000000 1.0
C      1  0.4240150000000  0.4761210000000  0.4527410000000 1.0
C      1  0.5455360000000  0.5332160000000  0.4749490000000 1.0
END
