TITL C-951343-2256-588 -2.2274207881799e-07 125000 -1125.10880567195 0 0 178 (C1) n - 1
REM
REM in /home/bkarasulu/work/CARBON/AIRSS/Generating-Clusters/EDIP-Nigel-Params/with-SteepDescent/Only-C1/SD-CG/HFTN-CG
REM
REM
REM
REM
REM
REM ./C.cell (11c1c37f851c82e70ff6c80c92926a4b)
REM
REM compiler GCC version 9.2.1 20190827 (Red Hat 9.2.1-1)
REM options -cpp -mtune=generic -march=x86-64 -g -O0 -fpre-include=/usr/include/finclude/math-vector-fortran.h
REM seed -413976287 -1718059550 734089615 -1679798935 1928241124 -1931683229 2135068565 535246786 -635254546 690631171 242856498 578720572 221766485 1261492796 -967305431 -1738636482 -58085710 -2026845774 657509861 -1224317650 749487088 176445085 -1941933206 -620614259 -1669949572 -1611178506 -1879663337 -1385912526 857212181 -189309940 2045062991 1906280608 1170909527
REM
CELL 1.54180   50.00000   50.00000   50.00000   90.00000   90.00000   90.00000
LATT -1
SFAC C  
C      1  0.4793350000000  0.4442960000000  0.5003660000000 1.0
C      1  0.4614230000000  0.5581750000000  0.4816890000000 1.0
C      1  0.4279120000000  0.5114980000000  0.5785170000000 1.0
C      1  0.4940060000000  0.6207190000000  0.5246120000000 1.0
C      1  0.5243110000000  0.5965960000000  0.5543130000000 1.0
C      1  0.4466310000000  0.5520530000000  0.5696950000000 1.0
C      1  0.5701330000000  0.5897900000000  0.5435580000000 1.0
C      1  0.4634090000000  0.4499520000000  0.4547330000000 1.0
C      1  0.5092670000000  0.5484510000000  0.4615710000000 1.0
C      1  0.5731880000000  0.4183620000000  0.4973630000000 1.0
C      1  0.5916200000000  0.4952520000000  0.5209140000000 1.0
C      1  0.5288440000000  0.4687850000000  0.5975560000000 1.0
C      1  0.5360120000000  0.5456070000000  0.5395810000000 1.0
C      1  0.5668990000000  0.5187670000000  0.5695910000000 1.0
C      1  0.5672750000000  0.5142980000000  0.5972450000000 1.0
C      1  0.4920180000000  0.5407520000000  0.5985230000000 1.0
C      1  0.5589040000000  0.5582540000000  0.4974110000000 1.0
C      1  0.5062740000000  0.4375730000000  0.4770470000000 1.0
C      1  0.5744400000000  0.5698120000000  0.4731750000000 1.0
C      1  0.5658060000000  0.4688850000000  0.4426780000000 1.0
C      1  0.5830140000000  0.4295610000000  0.5481370000000 1.0
C      1  0.5165880000000  0.5308530000000  0.4855590000000 1.0
C      1  0.5081270000000  0.4208880000000  0.5235850000000 1.0
C      1  0.5464140000000  0.4822540000000  0.4918520000000 1.0
C      1  0.5765200000000  0.4425260000000  0.5748860000000 1.0
C      1  0.5426530000000  0.5325970000000  0.4507730000000 1.0
C      1  0.5992620000000  0.4753940000000  0.5448120000000 1.0
C      1  0.5051900000000  0.4909710000000  0.5480290000000 1.0
C      1  0.4938800000000  0.5453940000000  0.5243370000000 1.0
C      1  0.6023640000000  0.4483400000000  0.5346860000000 1.0
C      1  0.5456230000000  0.4544920000000  0.5258340000000 1.0
C      1  0.3983960000000  0.4837840000000  0.5400790000000 1.0
C      1  0.4025400000000  0.5597440000000  0.5264450000000 1.0
C      1  0.4147880000000  0.5349320000000  0.5348480000000 1.0
C      1  0.5221570000000  0.5698380000000  0.5669050000000 1.0
C      1  0.4292070000000  0.4091670000000  0.4500330000000 1.0
C      1  0.5358220000000  0.5690380000000  0.5177150000000 1.0
C      1  0.4538690000000  0.6025110000000  0.5082350000000 1.0
C      1  0.5475910000000  0.5317450000000  0.4862320000000 1.0
C      1  0.4155770000000  0.5819350000000  0.5161280000000 1.0
C      1  0.4532630000000  0.4005370000000  0.4368080000000 1.0
C      1  0.5796530000000  0.5638970000000  0.5481480000000 1.0
C      1  0.5543620000000  0.5008700000000  0.4114430000000 1.0
C      1  0.4571050000000  0.4792110000000  0.4552410000000 1.0
C      1  0.4971660000000  0.6026780000000  0.5462790000000 1.0
C      1  0.5255390000000  0.5270480000000  0.4078170000000 1.0
C      1  0.4958750000000  0.4735190000000  0.4118810000000 1.0
C      1  0.5064150000000  0.4463090000000  0.4071460000000 1.0
C      1  0.4921040000000  0.5669000000000  0.4802120000000 1.0
C      1  0.4070720000000  0.4461700000000  0.4663460000000 1.0
C      1  0.5519120000000  0.4265290000000  0.4560830000000 1.0
C      1  0.5280280000000  0.5431390000000  0.6044530000000 1.0
C      1  0.5403810000000  0.5168250000000  0.6054320000000 1.0
C      1  0.4474950000000  0.4904980000000  0.4261600000000 1.0
C      1  0.4502880000000  0.4471730000000  0.4060230000000 1.0
C      1  0.4076930000000  0.4932210000000  0.5849180000000 1.0
C      1  0.4678910000000  0.3884740000000  0.4576410000000 1.0
C      1  0.4412920000000  0.4871060000000  0.4867270000000 1.0
C      1  0.3913190000000  0.5092380000000  0.5013380000000 1.0
C      1  0.5151790000000  0.5020670000000  0.5230860000000 1.0
C      1  0.4320260000000  0.5358590000000  0.4454290000000 1.0
C      1  0.4513000000000  0.5316850000000  0.4685350000000 1.0
C      1  0.4615170000000  0.5624350000000  0.4234700000000 1.0
C      1  0.4503360000000  0.4733700000000  0.5381720000000 1.0
C      1  0.5905990000000  0.5466750000000  0.4617020000000 1.0
C      1  0.5324870000000  0.4060340000000  0.5169240000000 1.0
C      1  0.4235080000000  0.5361270000000  0.5635710000000 1.0
C      1  0.5289870000000  0.5868460000000  0.4524930000000 1.0
C      1  0.5099140000000  0.4854400000000  0.4398860000000 1.0
C      1  0.5572510000000  0.4051770000000  0.4765670000000 1.0
C      1  0.4439940000000  0.5791860000000  0.5249110000000 1.0
C      1  0.5594890000000  0.5469650000000  0.5625180000000 1.0
C      1  0.4327820000000  0.5171080000000  0.4880270000000 1.0
C      1  0.5558430000000  0.5537900000000  0.4331320000000 1.0
C      1  0.4869880000000  0.4511860000000  0.5764000000000 1.0
C      1  0.4331730000000  0.5977160000000  0.4861850000000 1.0
C      1  0.4623550000000  0.4156530000000  0.4986640000000 1.0
C      1  0.4399520000000  0.5301950000000  0.5148270000000 1.0
C      1  0.4194080000000  0.4811640000000  0.4234270000000 1.0
C      1  0.5146260000000  0.5767830000000  0.4288640000000 1.0
C      1  0.4021720000000  0.4737170000000  0.4704240000000 1.0
C      1  0.5376810000000  0.4180410000000  0.4314430000000 1.0
C      1  0.5336170000000  0.5088040000000  0.4334560000000 1.0
C      1  0.5327860000000  0.5564140000000  0.4134350000000 1.0
C      1  0.4434700000000  0.5208940000000  0.4223370000000 1.0
C      1  0.6085240000000  0.4495960000000  0.5066220000000 1.0
C      1  0.4803620000000  0.3969490000000  0.4812640000000 1.0
C      1  0.5557000000000  0.4713000000000  0.5501080000000 1.0
C      1  0.5112190000000  0.4067270000000  0.4404710000000 1.0
C      1  0.5945810000000  0.4953410000000  0.4731280000000 1.0
C      1  0.4533340000000  0.5554760000000  0.5100340000000 1.0
C      1  0.5804920000000  0.5107610000000  0.4250920000000 1.0
C      1  0.3962470000000  0.5120820000000  0.5299790000000 1.0
C      1  0.5402230000000  0.4742310000000  0.4606160000000 1.0
C      1  0.4297210000000  0.4702630000000  0.5128260000000 1.0
C      1  0.4924740000000  0.4477800000000  0.4538280000000 1.0
C      1  0.6124220000000  0.5425850000000  0.5170890000000 1.0
C      1  0.4762330000000  0.5195760000000  0.4584230000000 1.0
C      1  0.5429390000000  0.5609310000000  0.5864590000000 1.0
C      1  0.4600240000000  0.4105390000000  0.5310190000000 1.0
C      1  0.6240180000000  0.5568140000000  0.4953920000000 1.0
C      1  0.4101480000000  0.4732120000000  0.5655630000000 1.0
C      1  0.5565430000000  0.5777150000000  0.4507720000000 1.0
C      1  0.4603680000000  0.5419830000000  0.5945480000000 1.0
C      1  0.5216440000000  0.4973150000000  0.5955280000000 1.0
C      1  0.3919300000000  0.4655500000000  0.5187730000000 1.0
C      1  0.4229790000000  0.4513820000000  0.4189410000000 1.0
C      1  0.5409560000000  0.5151850000000  0.5293060000000 1.0
C      1  0.4749120000000  0.4580850000000  0.5289210000000 1.0
C      1  0.5938050000000  0.4354920000000  0.4877050000000 1.0
C      1  0.4368270000000  0.5661500000000  0.4417790000000 1.0
C      1  0.4485260000000  0.5807380000000  0.4661680000000 1.0
C      1  0.4872880000000  0.5099530000000  0.5603540000000 1.0
C      1  0.4142550000000  0.4280190000000  0.4880430000000 1.0
C      1  0.4971540000000  0.4623320000000  0.5479590000000 1.0
C      1  0.4849180000000  0.5809420000000  0.4311720000000 1.0
C      1  0.4928290000000  0.5084360000000  0.5907900000000 1.0
C      1  0.5192900000000  0.6079050000000  0.4680010000000 1.0
C      1  0.4789590000000  0.5842410000000  0.5615150000000 1.0
C      1  0.4311350000000  0.4065350000000  0.4790070000000 1.0
C      1  0.5198410000000  0.4433520000000  0.5393930000000 1.0
C      1  0.4607590000000  0.4657130000000  0.5844070000000 1.0
C      1  0.5444600000000  0.5938660000000  0.5330490000000 1.0
C      1  0.4388800000000  0.4599020000000  0.5630150000000 1.0
C      1  0.5041570000000  0.4567320000000  0.5983870000000 1.0
C      1  0.4221760000000  0.4368700000000  0.4445650000000 1.0
C      1  0.6169480000000  0.5119860000000  0.4821090000000 1.0
C      1  0.4396210000000  0.4306900000000  0.5561970000000 1.0
C      1  0.4881860000000  0.4090690000000  0.5424280000000 1.0
C      1  0.5267250000000  0.4294280000000  0.5654050000000 1.0
C      1  0.5762260000000  0.4412550000000  0.4474160000000 1.0
C      1  0.4839630000000  0.6028870000000  0.5041350000000 1.0
C      1  0.4239650000000  0.4241010000000  0.5342450000000 1.0
C      1  0.5315950000000  0.3965230000000  0.4886520000000 1.0
C      1  0.4949240000000  0.5382080000000  0.5519430000000 1.0
C      1  0.5074770000000  0.4073710000000  0.4722550000000 1.0
C      1  0.4678410000000  0.4924370000000  0.5996880000000 1.0
C      1  0.5879090000000  0.4695270000000  0.5711190000000 1.0
C      1  0.5578370000000  0.5093330000000  0.5044980000000 1.0
C      1  0.5340000000000  0.4463780000000  0.4695890000000 1.0
C      1  0.5352450000000  0.4433530000000  0.4128300000000 1.0
C      1  0.5577330000000  0.4246590000000  0.5224530000000 1.0
C      1  0.6171180000000  0.5404930000000  0.4730300000000 1.0
C      1  0.5184220000000  0.4809820000000  0.5037570000000 1.0
C      1  0.4857910000000  0.4913510000000  0.4601490000000 1.0
C      1  0.4271980000000  0.4398620000000  0.5106710000000 1.0
C      1  0.5849230000000  0.4778950000000  0.4953950000000 1.0
C      1  0.4650140000000  0.4743300000000  0.4067160000000 1.0
C      1  0.5449140000000  0.4519160000000  0.5767460000000 1.0
C      1  0.5852790000000  0.5508730000000  0.5231500000000 1.0
C      1  0.4479830000000  0.5150640000000  0.5991400000000 1.0
C      1  0.3968100000000  0.5284130000000  0.4805110000000 1.0
C      1  0.4515160000000  0.5772440000000  0.5550850000000 1.0
C      1  0.4943270000000  0.4300470000000  0.4295820000000 1.0
C      1  0.3904270000000  0.4814860000000  0.4950270000000 1.0
C      1  0.4744230000000  0.5943870000000  0.4560790000000 1.0
C      1  0.4921520000000  0.6092090000000  0.4753860000000 1.0
C      1  0.4625730000000  0.4285130000000  0.4276920000000 1.0
C      1  0.4945170000000  0.5596940000000  0.5718230000000 1.0
C      1  0.5827920000000  0.5397340000000  0.4335080000000 1.0
C      1  0.4569300000000  0.5391320000000  0.4039140000000 1.0
C      1  0.6145720000000  0.5132600000000  0.5119540000000 1.0
C      1  0.4636250000000  0.5135440000000  0.5218160000000 1.0
C      1  0.4971020000000  0.5240290000000  0.4135590000000 1.0
C      1  0.5037870000000  0.5700370000000  0.5099710000000 1.0
C      1  0.5864960000000  0.4902210000000  0.4456800000000 1.0
C      1  0.4669980000000  0.4916570000000  0.5012740000000 1.0
C      1  0.4913610000000  0.4773000000000  0.4893490000000 1.0
C      1  0.4040860000000  0.4917330000000  0.4476980000000 1.0
C      1  0.4879630000000  0.5383980000000  0.4388390000000 1.0
C      1  0.6002460000000  0.4362780000000  0.4607120000000 1.0
C      1  0.4955490000000  0.4206220000000  0.5699300000000 1.0
C      1  0.5537720000000  0.4694350000000  0.4153810000000 1.0
C      1  0.4592150000000  0.5019860000000  0.5484460000000 1.0
C      1  0.4980780000000  0.5218490000000  0.5080850000000 1.0
C      1  0.4055610000000  0.5215500000000  0.4537040000000 1.0
C      1  0.4798250000000  0.5282230000000  0.3917620000000 1.0
C      1  0.5516240000000  0.5009850000000  0.5522780000000 1.0
END
