TITL C-951341-1326-192 -2.14818150024856e-06 125000 -668.81208801993 0 0 107 (C1) n - 1
REM
REM in /home/bkarasulu/work/CARBON/AIRSS/Generating-Clusters/EDIP-Nigel-Params/with-SteepDescent/Only-C1/SD-CG/HFTN-CG
REM
REM
REM
REM
REM
REM ./C.cell (11c1c37f851c82e70ff6c80c92926a4b)
REM
REM compiler GCC version 9.2.1 20190827 (Red Hat 9.2.1-1)
REM options -cpp -mtune=generic -march=x86-64 -g -O0 -fpre-include=/usr/include/finclude/math-vector-fortran.h
REM seed -1482721545 -760250282 -373837148 -1022016325 980343829 -900328286 1964008656 -1147599164 213093837 -1141337282 886004545 -2073223922 -1207018822 486785932 72495742 1931656869 -521444362 750083312 1061377360 512743890 1205552468 1696600371 1408763471 1270628270 71243086 1229111105 1528380982 -90188318 807448349 -839182360 -1818779343 -1896702133 -911548045
REM
CELL 1.54180   50.00000   50.00000   50.00000   90.00000   90.00000   90.00000
LATT -1
SFAC C  
C      1  0.5036310000000  0.4725480000000  0.5303810000000 1.0
C      1  0.4830980000000  0.5056330000000  0.5831740000000 1.0
C      1  0.5664660000000  0.4567520000000  0.4579900000000 1.0
C      1  0.5607970000000  0.5550150000000  0.5279850000000 1.0
C      1  0.5533470000000  0.5119400000000  0.5065530000000 1.0
C      1  0.5305310000000  0.4999500000000  0.5526140000000 1.0
C      1  0.4603040000000  0.4893540000000  0.4894490000000 1.0
C      1  0.5166590000000  0.4336200000000  0.5632500000000 1.0
C      1  0.4825140000000  0.5344510000000  0.4789660000000 1.0
C      1  0.5152260000000  0.5283690000000  0.5228660000000 1.0
C      1  0.4597800000000  0.5188230000000  0.5707800000000 1.0
C      1  0.4653050000000  0.5034470000000  0.4314150000000 1.0
C      1  0.4442810000000  0.5543120000000  0.5405340000000 1.0
C      1  0.5543860000000  0.4717950000000  0.4144750000000 1.0
C      1  0.5247150000000  0.5186880000000  0.4427720000000 1.0
C      1  0.4414220000000  0.4739780000000  0.5614780000000 1.0
C      1  0.5188280000000  0.5815650000000  0.5225380000000 1.0
C      1  0.5551480000000  0.4551490000000  0.5789990000000 1.0
C      1  0.5095410000000  0.4588750000000  0.5798580000000 1.0
C      1  0.5305030000000  0.4581530000000  0.4912530000000 1.0
C      1  0.4189180000000  0.5036790000000  0.4459040000000 1.0
C      1  0.4827130000000  0.5477940000000  0.4153230000000 1.0
C      1  0.4616800000000  0.5312540000000  0.4234220000000 1.0
C      1  0.4144720000000  0.4881430000000  0.5150470000000 1.0
C      1  0.4450140000000  0.4252220000000  0.5099580000000 1.0
C      1  0.5837990000000  0.5497010000000  0.5124510000000 1.0
C      1  0.5736320000000  0.4900920000000  0.4256530000000 1.0
C      1  0.4975510000000  0.5763410000000  0.4530350000000 1.0
C      1  0.5309220000000  0.4692730000000  0.5204490000000 1.0
C      1  0.5285670000000  0.5596220000000  0.4186060000000 1.0
C      1  0.5427450000000  0.5393520000000  0.4309680000000 1.0
C      1  0.5176130000000  0.5805490000000  0.4747950000000 1.0
C      1  0.5036890000000  0.5231940000000  0.5916360000000 1.0
C      1  0.4704250000000  0.4111780000000  0.5042560000000 1.0
C      1  0.4827450000000  0.4708540000000  0.4871090000000 1.0
C      1  0.5310470000000  0.4852370000000  0.4068980000000 1.0
C      1  0.4047980000000  0.4674110000000  0.5319420000000 1.0
C      1  0.5581840000000  0.4258980000000  0.5418110000000 1.0
C      1  0.5459060000000  0.4305490000000  0.5675250000000 1.0
C      1  0.4209920000000  0.5307840000000  0.4521850000000 1.0
C      1  0.4848620000000  0.5338180000000  0.5232340000000 1.0
C      1  0.5730510000000  0.5335380000000  0.4913640000000 1.0
C      1  0.4929560000000  0.5569650000000  0.5597900000000 1.0
C      1  0.4352910000000  0.5733370000000  0.4988140000000 1.0
C      1  0.4426030000000  0.4894290000000  0.4421140000000 1.0
C      1  0.4998660000000  0.5804050000000  0.5443140000000 1.0
C      1  0.4493990000000  0.5725050000000  0.4439630000000 1.0
C      1  0.5176470000000  0.4788430000000  0.4709870000000 1.0
C      1  0.5223430000000  0.4391920000000  0.4374530000000 1.0
C      1  0.5907090000000  0.4843660000000  0.5194250000000 1.0
C      1  0.4463580000000  0.4621850000000  0.4525770000000 1.0
C      1  0.5128010000000  0.5031130000000  0.4187130000000 1.0
C      1  0.5573340000000  0.4469110000000  0.4838320000000 1.0
C      1  0.4289090000000  0.4545780000000  0.4755920000000 1.0
C      1  0.4100300000000  0.5398150000000  0.4760330000000 1.0
C      1  0.5635430000000  0.5478360000000  0.4466390000000 1.0
C      1  0.5598150000000  0.5377660000000  0.5512140000000 1.0
C      1  0.5743600000000  0.4868030000000  0.5421230000000 1.0
C      1  0.4945200000000  0.4284960000000  0.5110600000000 1.0
C      1  0.5129950000000  0.5457390000000  0.5774730000000 1.0
C      1  0.4517780000000  0.5761120000000  0.5230120000000 1.0
C      1  0.5099760000000  0.4232920000000  0.4593370000000 1.0
C      1  0.4626560000000  0.4623700000000  0.5742060000000 1.0
C      1  0.4857740000000  0.4763330000000  0.5789750000000 1.0
C      1  0.4639430000000  0.5177210000000  0.4945850000000 1.0
C      1  0.4896690000000  0.4883060000000  0.4270880000000 1.0
C      1  0.5384450000000  0.4976480000000  0.4595410000000 1.0
C      1  0.4176870000000  0.5507940000000  0.5003910000000 1.0
C      1  0.5729460000000  0.4900930000000  0.4982680000000 1.0
C      1  0.4493370000000  0.4529760000000  0.5201180000000 1.0
C      1  0.4233740000000  0.5103600000000  0.5333620000000 1.0
C      1  0.5386290000000  0.4119210000000  0.5257700000000 1.0
C      1  0.4650020000000  0.5459200000000  0.5603120000000 1.0
C      1  0.5311410000000  0.5552800000000  0.4834530000000 1.0
C      1  0.5845750000000  0.5012760000000  0.4742550000000 1.0
C      1  0.4789650000000  0.5659410000000  0.5153790000000 1.0
C      1  0.5114460000000  0.4196140000000  0.5357920000000 1.0
C      1  0.5550460000000  0.5103490000000  0.5384080000000 1.0
C      1  0.5350670000000  0.4974480000000  0.5807410000000 1.0
C      1  0.4686450000000  0.5611150000000  0.4854930000000 1.0
C      1  0.4372570000000  0.4727590000000  0.4992780000000 1.0
C      1  0.5502020000000  0.4486350000000  0.4337420000000 1.0
C      1  0.5587380000000  0.5515610000000  0.4733970000000 1.0
C      1  0.5666570000000  0.4874530000000  0.4542420000000 1.0
C      1  0.5409420000000  0.4152440000000  0.4970370000000 1.0
C      1  0.4419880000000  0.5458580000000  0.4385950000000 1.0
C      1  0.5089560000000  0.5929240000000  0.4986940000000 1.0
C      1  0.4998560000000  0.4989240000000  0.5433820000000 1.0
C      1  0.4699790000000  0.5796230000000  0.4620040000000 1.0
C      1  0.4749050000000  0.4543400000000  0.4609330000000 1.0
C      1  0.4661750000000  0.4073850000000  0.4755590000000 1.0
C      1  0.4707080000000  0.5022720000000  0.5298480000000 1.0
C      1  0.5132610000000  0.5304350000000  0.4751300000000 1.0
C      1  0.5537820000000  0.4639430000000  0.5416820000000 1.0
C      1  0.5323580000000  0.5555310000000  0.5155840000000 1.0
C      1  0.5023730000000  0.5642590000000  0.4263970000000 1.0
C      1  0.5231330000000  0.5130340000000  0.4980080000000 1.0
C      1  0.4834390000000  0.4569120000000  0.5142520000000 1.0
C      1  0.5164140000000  0.4301980000000  0.4884580000000 1.0
C      1  0.4289370000000  0.4565480000000  0.5424250000000 1.0
C      1  0.4339860000000  0.4266990000000  0.4832170000000 1.0
C      1  0.4296290000000  0.5363240000000  0.5226810000000 1.0
C      1  0.5340340000000  0.4709700000000  0.5900260000000 1.0
C      1  0.4470490000000  0.5010390000000  0.5498640000000 1.0
C      1  0.4807550000000  0.4247900000000  0.4576570000000 1.0
C      1  0.5399990000000  0.5459870000000  0.5696490000000 1.0
C      1  0.4990970000000  0.4673000000000  0.4467560000000 1.0
END
