TITL C-950534-5965-709 -7.30416804491468e-06 125000 -1189.36365129011 0 0 190 (C1) n - 1
REM
REM in /home/bkarasulu/work/CARBON/AIRSS/Generating-Clusters/EDIP-Nigel-Params/with-SteepDescent/Only-C1/SD-CG/HFTN-CG
REM
REM
REM
REM
REM
REM ./C.cell (11c1c37f851c82e70ff6c80c92926a4b)
REM
REM compiler GCC version 9.2.1 20190827 (Red Hat 9.2.1-1)
REM options -cpp -mtune=generic -march=x86-64 -g -O0 -fpre-include=/usr/include/finclude/math-vector-fortran.h
REM seed 940034849 369894986 -215221910 633096667 737222903 -343565659 -1221702753 -763025338 -1173336576 1467368658 -2030410727 103790152 1726703348 -949447114 838765300 -1648473509 1864257392 377035245 2004097040 -2118419057 -725396400 -1255356944 -825151580 -1244207249 -641994717 -410363083 891425008 -1096926348 -1699426055 -1237907479 371279024 -2601348 1027385189
REM
CELL 1.54180   50.00000   50.00000   50.00000   90.00000   90.00000   90.00000
LATT -1
SFAC C  
C      1  0.4133290000000  0.4978770000000  0.4471680000000 1.0
C      1  0.4291260000000  0.5872580000000  0.5371490000000 1.0
C      1  0.5082240000000  0.4599470000000  0.5851750000000 1.0
C      1  0.4556690000000  0.4640300000000  0.5483280000000 1.0
C      1  0.5115100000000  0.5221950000000  0.5478350000000 1.0
C      1  0.3921650000000  0.4899710000000  0.4701440000000 1.0
C      1  0.6084280000000  0.5158190000000  0.5287860000000 1.0
C      1  0.5318500000000  0.5612320000000  0.4616950000000 1.0
C      1  0.5545690000000  0.4071700000000  0.4838030000000 1.0
C      1  0.4669620000000  0.5798340000000  0.5030220000000 1.0
C      1  0.4989510000000  0.5843910000000  0.4163310000000 1.0
C      1  0.4833260000000  0.5098610000000  0.5462950000000 1.0
C      1  0.5410550000000  0.4303920000000  0.4179230000000 1.0
C      1  0.4858870000000  0.5274400000000  0.4889740000000 1.0
C      1  0.4025750000000  0.5584940000000  0.5167240000000 1.0
C      1  0.5467320000000  0.5008260000000  0.4062980000000 1.0
C      1  0.4329500000000  0.4101700000000  0.4969110000000 1.0
C      1  0.4981190000000  0.4375280000000  0.5217560000000 1.0
C      1  0.4193170000000  0.5582910000000  0.4917390000000 1.0
C      1  0.4628270000000  0.4476940000000  0.4784050000000 1.0
C      1  0.4928750000000  0.4831400000000  0.5343220000000 1.0
C      1  0.6149130000000  0.4698290000000  0.5082770000000 1.0
C      1  0.5982010000000  0.4663650000000  0.4538380000000 1.0
C      1  0.4273630000000  0.5347330000000  0.4158800000000 1.0
C      1  0.5027730000000  0.5209180000000  0.3975950000000 1.0
C      1  0.4602540000000  0.4155590000000  0.5489030000000 1.0
C      1  0.5674630000000  0.5491950000000  0.4298260000000 1.0
C      1  0.4904060000000  0.5541220000000  0.4476000000000 1.0
C      1  0.4588810000000  0.5174570000000  0.4509800000000 1.0
C      1  0.4080090000000  0.4243260000000  0.5070760000000 1.0
C      1  0.5052950000000  0.4940600000000  0.3855600000000 1.0
C      1  0.4720280000000  0.4459750000000  0.4170040000000 1.0
C      1  0.4328120000000  0.5136750000000  0.4639230000000 1.0
C      1  0.5170860000000  0.5127580000000  0.4496510000000 1.0
C      1  0.5323050000000  0.4563250000000  0.4589850000000 1.0
C      1  0.4999860000000  0.5065030000000  0.4737890000000 1.0
C      1  0.4773530000000  0.6068550000000  0.4624910000000 1.0
C      1  0.5763160000000  0.5797400000000  0.4742210000000 1.0
C      1  0.5893470000000  0.5633330000000  0.5199090000000 1.0
C      1  0.5214550000000  0.5150040000000  0.5848360000000 1.0
C      1  0.4511990000000  0.4348480000000  0.5037970000000 1.0
C      1  0.4917290000000  0.5732100000000  0.4873930000000 1.0
C      1  0.4231080000000  0.4784190000000  0.5066180000000 1.0
C      1  0.5447690000000  0.4344300000000  0.5385310000000 1.0
C      1  0.3958550000000  0.5143320000000  0.4882500000000 1.0
C      1  0.4321860000000  0.5535110000000  0.5724170000000 1.0
C      1  0.5130370000000  0.4657000000000  0.5559490000000 1.0
C      1  0.4724650000000  0.4229150000000  0.5206330000000 1.0
C      1  0.5152950000000  0.4362380000000  0.5462430000000 1.0
C      1  0.4656150000000  0.5578440000000  0.5236480000000 1.0
C      1  0.4856250000000  0.6065170000000  0.5408370000000 1.0
C      1  0.4604790000000  0.4684270000000  0.5955180000000 1.0
C      1  0.3827310000000  0.5126500000000  0.5342100000000 1.0
C      1  0.5636930000000  0.6068320000000  0.5157760000000 1.0
C      1  0.4000380000000  0.4695940000000  0.4908690000000 1.0
C      1  0.6223460000000  0.4907350000000  0.4899760000000 1.0
C      1  0.4489410000000  0.4312510000000  0.4257630000000 1.0
C      1  0.5422280000000  0.5489500000000  0.4145780000000 1.0
C      1  0.5680090000000  0.4098680000000  0.5104440000000 1.0
C      1  0.4739860000000  0.5294620000000  0.5941360000000 1.0
C      1  0.5310800000000  0.4796940000000  0.3925300000000 1.0
C      1  0.5437840000000  0.4801160000000  0.4738650000000 1.0
C      1  0.5256700000000  0.3912400000000  0.5295740000000 1.0
C      1  0.5758670000000  0.5866530000000  0.5331500000000 1.0
C      1  0.4383130000000  0.5503280000000  0.5293450000000 1.0
C      1  0.5512820000000  0.5274500000000  0.5222050000000 1.0
C      1  0.4871460000000  0.4785820000000  0.5952570000000 1.0
C      1  0.5429960000000  0.4946340000000  0.5956350000000 1.0
C      1  0.4139790000000  0.5066350000000  0.5121370000000 1.0
C      1  0.5724970000000  0.4972620000000  0.5873550000000 1.0
C      1  0.5292820000000  0.6066790000000  0.4847910000000 1.0
C      1  0.5772060000000  0.4716880000000  0.5176500000000 1.0
C      1  0.5565330000000  0.5530480000000  0.5652890000000 1.0
C      1  0.5490290000000  0.4640290000000  0.5294080000000 1.0
C      1  0.5534490000000  0.3976180000000  0.5320340000000 1.0
C      1  0.5053980000000  0.3933210000000  0.5511140000000 1.0
C      1  0.4045560000000  0.5435250000000  0.5665300000000 1.0
C      1  0.4773790000000  0.5360330000000  0.4060430000000 1.0
C      1  0.6018670000000  0.5191620000000  0.4563850000000 1.0
C      1  0.4300230000000  0.4781000000000  0.4320020000000 1.0
C      1  0.4342510000000  0.4092770000000  0.4657730000000 1.0
C      1  0.5855310000000  0.4694700000000  0.5864120000000 1.0
C      1  0.4319190000000  0.4206170000000  0.5509200000000 1.0
C      1  0.6084000000000  0.4916060000000  0.4644520000000 1.0
C      1  0.4383770000000  0.5246140000000  0.5136450000000 1.0
C      1  0.5999750000000  0.4648660000000  0.5595990000000 1.0
C      1  0.5044160000000  0.5486600000000  0.4997120000000 1.0
C      1  0.3970670000000  0.5380410000000  0.5382830000000 1.0
C      1  0.5440640000000  0.5923780000000  0.4367680000000 1.0
C      1  0.4266840000000  0.4387460000000  0.4639430000000 1.0
C      1  0.4529950000000  0.5924230000000  0.4575720000000 1.0
C      1  0.5079380000000  0.4135500000000  0.4271810000000 1.0
C      1  0.4572980000000  0.4094170000000  0.4453940000000 1.0
C      1  0.5545160000000  0.5489390000000  0.5927650000000 1.0
C      1  0.4878750000000  0.4341350000000  0.4651100000000 1.0
C      1  0.4785240000000  0.4935990000000  0.4568560000000 1.0
C      1  0.5796380000000  0.5222500000000  0.4370130000000 1.0
C      1  0.5306900000000  0.5249780000000  0.4053910000000 1.0
C      1  0.5260220000000  0.4545020000000  0.4089250000000 1.0
C      1  0.5113380000000  0.4094810000000  0.5742510000000 1.0
C      1  0.5662830000000  0.5148030000000  0.4995320000000 1.0
C      1  0.4038360000000  0.5215370000000  0.4295950000000 1.0
C      1  0.4794760000000  0.4708960000000  0.4886550000000 1.0
C      1  0.5266180000000  0.6175970000000  0.5123620000000 1.0
C      1  0.4732510000000  0.4753460000000  0.4097690000000 1.0
C      1  0.3882840000000  0.4855920000000  0.5396980000000 1.0
C      1  0.6201070000000  0.5178630000000  0.5013600000000 1.0
C      1  0.5284450000000  0.5409510000000  0.5973570000000 1.0
C      1  0.4671870000000  0.5149540000000  0.5117490000000 1.0
C      1  0.4681050000000  0.6076270000000  0.5163720000000 1.0
C      1  0.4760230000000  0.3879560000000  0.5454020000000 1.0
C      1  0.4397670000000  0.5831750000000  0.4849730000000 1.0
C      1  0.5049460000000  0.4571740000000  0.5002210000000 1.0
C      1  0.3953400000000  0.5436050000000  0.4484630000000 1.0
C      1  0.5042390000000  0.5953050000000  0.4677350000000 1.0
C      1  0.6019020000000  0.4423470000000  0.4706090000000 1.0
C      1  0.4610080000000  0.4924500000000  0.5630440000000 1.0
C      1  0.5142950000000  0.4412300000000  0.4774890000000 1.0
C      1  0.5907640000000  0.4880320000000  0.5411000000000 1.0
C      1  0.4343680000000  0.5039550000000  0.5636490000000 1.0
C      1  0.3969230000000  0.5219430000000  0.5836740000000 1.0
C      1  0.5900100000000  0.4376250000000  0.5485140000000 1.0
C      1  0.5590280000000  0.5709970000000  0.4503890000000 1.0
C      1  0.4384390000000  0.6091700000000  0.5209650000000 1.0
C      1  0.5298210000000  0.5724940000000  0.5359670000000 1.0
C      1  0.4725420000000  0.3842590000000  0.5159800000000 1.0
C      1  0.6078340000000  0.5365000000000  0.4803930000000 1.0
C      1  0.5641100000000  0.4319850000000  0.5625110000000 1.0
C      1  0.4435530000000  0.4555810000000  0.5753820000000 1.0
C      1  0.5518100000000  0.5251280000000  0.4773880000000 1.0
C      1  0.4469050000000  0.5369290000000  0.5902790000000 1.0
C      1  0.5616510000000  0.4506220000000  0.5866290000000 1.0
C      1  0.4717030000000  0.5399530000000  0.4656710000000 1.0
C      1  0.5677280000000  0.5005580000000  0.5578900000000 1.0
C      1  0.4824190000000  0.4782820000000  0.3823310000000 1.0
C      1  0.5668100000000  0.4179590000000  0.4590320000000 1.0
C      1  0.5463740000000  0.5633480000000  0.5098360000000 1.0
C      1  0.4702650000000  0.4847770000000  0.5124880000000 1.0
C      1  0.4167580000000  0.4709960000000  0.5742710000000 1.0
C      1  0.4947300000000  0.4871120000000  0.4309770000000 1.0
C      1  0.5946250000000  0.4176420000000  0.4601790000000 1.0
C      1  0.5648680000000  0.4863880000000  0.4946110000000 1.0
C      1  0.4867970000000  0.3959470000000  0.4425960000000 1.0
C      1  0.5884830000000  0.4299900000000  0.5188280000000 1.0
C      1  0.5017590000000  0.4320380000000  0.5868740000000 1.0
C      1  0.4422560000000  0.5802270000000  0.5616450000000 1.0
C      1  0.6060270000000  0.4443170000000  0.4996080000000 1.0
C      1  0.5256980000000  0.4799710000000  0.5135070000000 1.0
C      1  0.4924570000000  0.5068020000000  0.5898170000000 1.0
C      1  0.5549240000000  0.4416900000000  0.4427270000000 1.0
C      1  0.4160720000000  0.5014350000000  0.5853300000000 1.0
C      1  0.5192000000000  0.3795750000000  0.5044410000000 1.0
C      1  0.4114370000000  0.5353070000000  0.4730790000000 1.0
C      1  0.5153490000000  0.5942700000000  0.4377770000000 1.0
C      1  0.5150560000000  0.6000030000000  0.5324420000000 1.0
C      1  0.4156760000000  0.4394010000000  0.5344360000000 1.0
C      1  0.4819170000000  0.5591420000000  0.5490850000000 1.0
C      1  0.5096620000000  0.5611920000000  0.5988070000000 1.0
C      1  0.4375530000000  0.4567010000000  0.5229840000000 1.0
C      1  0.5173720000000  0.5429240000000  0.4429640000000 1.0
C      1  0.5078290000000  0.5506700000000  0.5354400000000 1.0
C      1  0.4876830000000  0.5524210000000  0.5843810000000 1.0
C      1  0.5362220000000  0.4660260000000  0.5945290000000 1.0
C      1  0.4939590000000  0.4390470000000  0.4356420000000 1.0
C      1  0.5331680000000  0.3877280000000  0.4805700000000 1.0
C      1  0.5748970000000  0.4665110000000  0.4358390000000 1.0
C      1  0.4920930000000  0.3796240000000  0.4952690000000 1.0
C      1  0.4031800000000  0.5689150000000  0.4380680000000 1.0
C      1  0.4000340000000  0.4622360000000  0.5508060000000 1.0
C      1  0.4264670000000  0.6073490000000  0.4955050000000 1.0
C      1  0.4792060000000  0.5634610000000  0.4225380000000 1.0
C      1  0.5548560000000  0.5889340000000  0.4938800000000 1.0
C      1  0.5443930000000  0.5039120000000  0.4571760000000 1.0
C      1  0.5940430000000  0.5397630000000  0.5380280000000 1.0
C      1  0.4981550000000  0.3823950000000  0.4658360000000 1.0
C      1  0.4734360000000  0.5863910000000  0.5606010000000 1.0
C      1  0.5432120000000  0.4810170000000  0.5534590000000 1.0
C      1  0.5128850000000  0.4624680000000  0.4347000000000 1.0
C      1  0.4274150000000  0.4490430000000  0.4360830000000 1.0
C      1  0.5672010000000  0.5307300000000  0.5479690000000 1.0
C      1  0.5266210000000  0.5105090000000  0.5254800000000 1.0
C      1  0.5633200000000  0.4965330000000  0.4313580000000 1.0
C      1  0.5928260000000  0.5606680000000  0.4904080000000 1.0
C      1  0.4484420000000  0.4904390000000  0.4131330000000 1.0
C      1  0.4535690000000  0.5199390000000  0.4194920000000 1.0
C      1  0.4030700000000  0.4417590000000  0.4824760000000 1.0
C      1  0.5326780000000  0.5472940000000  0.4872330000000 1.0
C      1  0.5610010000000  0.5800740000000  0.5571060000000 1.0
C      1  0.4529060000000  0.5744750000000  0.4335800000000 1.0
C      1  0.4275120000000  0.5627190000000  0.4249940000000 1.0
END
