TITL C-950530-3293-728 -1.15432346864898e-06 125000 -448.059508549112 0 0 73 (C1) n - 1
REM
REM in /home/bkarasulu/work/CARBON/AIRSS/Generating-Clusters/EDIP-Nigel-Params/with-SteepDescent/Only-C1/SD-CG/HFTN-CG
REM
REM
REM
REM
REM
REM ./C.cell (11c1c37f851c82e70ff6c80c92926a4b)
REM
REM compiler GCC version 9.2.1 20190827 (Red Hat 9.2.1-1)
REM options -cpp -mtune=generic -march=x86-64 -g -O0 -fpre-include=/usr/include/finclude/math-vector-fortran.h
REM seed -1891447491 -2074121143 2144863650 480896889 -177547614 -1928949960 1827395362 -473965612 -1815585913 -238833750 772693870 1282891334 2070201015 650555005 -2032803374 -855558394 -1810410110 762473734 -1894902684 -339824369 -594450450 1389563203 -1434878250 197412690 1908938164 -1571248045 717078711 -892748111 1805662155 1962014843 -264695810 -1265047213 -167289810
REM
CELL 1.54180   50.00000   50.00000   50.00000   90.00000   90.00000   90.00000
LATT -1
SFAC C  
C      1  0.4574770000000  0.4802770000000  0.4334640000000 1.0
C      1  0.4207130000000  0.5122570000000  0.5108460000000 1.0
C      1  0.4326350000000  0.5411180000000  0.5081230000000 1.0
C      1  0.4398280000000  0.4496400000000  0.4672640000000 1.0
C      1  0.5525180000000  0.4914570000000  0.5614970000000 1.0
C      1  0.5367900000000  0.5179250000000  0.5638990000000 1.0
C      1  0.5319200000000  0.5788260000000  0.5008880000000 1.0
C      1  0.5350780000000  0.4734760000000  0.4320190000000 1.0
C      1  0.4990920000000  0.4531960000000  0.5313820000000 1.0
C      1  0.5740570000000  0.4667330000000  0.4925110000000 1.0
C      1  0.4456580000000  0.4566900000000  0.5132040000000 1.0
C      1  0.5580780000000  0.4412250000000  0.4900430000000 1.0
C      1  0.5301650000000  0.4780760000000  0.4842010000000 1.0
C      1  0.4418530000000  0.5255220000000  0.5534080000000 1.0
C      1  0.5321390000000  0.5746980000000  0.4716080000000 1.0
C      1  0.4922510000000  0.5222520000000  0.5621830000000 1.0
C      1  0.4563120000000  0.5032370000000  0.4499940000000 1.0
C      1  0.5265350000000  0.5554820000000  0.5304880000000 1.0
C      1  0.4675770000000  0.4439440000000  0.4980600000000 1.0
C      1  0.4500540000000  0.4796490000000  0.5338930000000 1.0
C      1  0.4806390000000  0.4386540000000  0.4414300000000 1.0
C      1  0.5721700000000  0.4943040000000  0.5381030000000 1.0
C      1  0.5283620000000  0.4571530000000  0.5307880000000 1.0
C      1  0.5138230000000  0.5205620000000  0.5804060000000 1.0
C      1  0.4971050000000  0.5047770000000  0.4050210000000 1.0
C      1  0.4292480000000  0.4925790000000  0.4876120000000 1.0
C      1  0.4803560000000  0.5768190000000  0.5054260000000 1.0
C      1  0.5070350000000  0.5869210000000  0.5154430000000 1.0
C      1  0.4951310000000  0.4988250000000  0.5434130000000 1.0
C      1  0.5312720000000  0.4490800000000  0.4754440000000 1.0
C      1  0.4723830000000  0.5140420000000  0.4987590000000 1.0
C      1  0.4620950000000  0.5479420000000  0.4622100000000 1.0
C      1  0.4281880000000  0.4629370000000  0.4905600000000 1.0
C      1  0.5004380000000  0.5615180000000  0.5438470000000 1.0
C      1  0.5025640000000  0.5138230000000  0.4955500000000 1.0
C      1  0.5068270000000  0.4351260000000  0.4370030000000 1.0
C      1  0.4287490000000  0.5014640000000  0.5379950000000 1.0
C      1  0.4902910000000  0.4336630000000  0.5127870000000 1.0
C      1  0.5403520000000  0.4327370000000  0.5148870000000 1.0
C      1  0.4641960000000  0.5175880000000  0.5732110000000 1.0
C      1  0.5064480000000  0.4933250000000  0.4732000000000 1.0
C      1  0.5127740000000  0.5093050000000  0.4451810000000 1.0
C      1  0.5344450000000  0.4673250000000  0.5597030000000 1.0
C      1  0.4579030000000  0.4965110000000  0.4787250000000 1.0
C      1  0.4872940000000  0.4579890000000  0.5575740000000 1.0
C      1  0.5306480000000  0.4469570000000  0.4453690000000 1.0
C      1  0.4879470000000  0.5265680000000  0.4206860000000 1.0
C      1  0.5540390000000  0.4931610000000  0.4464140000000 1.0
C      1  0.5083180000000  0.4873140000000  0.4247490000000 1.0
C      1  0.4638810000000  0.4591030000000  0.4525960000000 1.0
C      1  0.4473200000000  0.5483910000000  0.5340240000000 1.0
C      1  0.5161200000000  0.5049570000000  0.5221620000000 1.0
C      1  0.4755840000000  0.5588400000000  0.5286430000000 1.0
C      1  0.5293530000000  0.4805270000000  0.5134270000000 1.0
C      1  0.5076760000000  0.4746080000000  0.5692600000000 1.0
C      1  0.4600860000000  0.4693170000000  0.5605100000000 1.0
C      1  0.5786690000000  0.4734400000000  0.5197590000000 1.0
C      1  0.4594480000000  0.5408890000000  0.4924350000000 1.0
C      1  0.4604560000000  0.4900800000000  0.5796840000000 1.0
C      1  0.4711660000000  0.4985310000000  0.5253070000000 1.0
C      1  0.4782700000000  0.4734530000000  0.4758790000000 1.0
C      1  0.5499840000000  0.5435400000000  0.4571180000000 1.0
C      1  0.4722430000000  0.5261240000000  0.4450820000000 1.0
C      1  0.5148970000000  0.4254810000000  0.4995910000000 1.0
C      1  0.5094510000000  0.5561430000000  0.4702980000000 1.0
C      1  0.5640300000000  0.5195190000000  0.5252130000000 1.0
C      1  0.5456840000000  0.5313580000000  0.4827680000000 1.0
C      1  0.5419150000000  0.5204950000000  0.4400060000000 1.0
C      1  0.5574280000000  0.4892790000000  0.4771370000000 1.0
C      1  0.5360750000000  0.5258290000000  0.5346850000000 1.0
C      1  0.5679180000000  0.5202160000000  0.4971230000000 1.0
C      1  0.5182950000000  0.5377790000000  0.4911470000000 1.0
C      1  0.4822800000000  0.5674530000000  0.4756770000000 1.0
END
