TITL C-950535-5962-436 -3.52091491650853e-06 125000 -947.691405693302 0 0 151 (C1) n - 1
REM
REM in /home/bkarasulu/work/CARBON/AIRSS/Generating-Clusters/EDIP-Nigel-Params/with-SteepDescent/Only-C1/SD-CG/HFTN-CG
REM
REM
REM
REM
REM
REM ./C.cell (11c1c37f851c82e70ff6c80c92926a4b)
REM
REM compiler GCC version 9.2.1 20190827 (Red Hat 9.2.1-1)
REM options -cpp -mtune=generic -march=x86-64 -g -O0 -fpre-include=/usr/include/finclude/math-vector-fortran.h
REM seed 1168361580 -1868669847 -1773367264 -1162518973 1430793137 -1769215993 -1908342086 -1314839966 1715045361 94725572 1493932266 1067737498 -1420848155 -952454683 -396228644 871979860 -734373306 -1371328394 -1167748680 -286633489 -1956997499 -1928394920 -342147028 -2014328207 -546332182 -172017144 1840503733 -125534609 1021951513 -251672764 1535093402 -2041000314 1783804065
REM
CELL 1.54180   50.00000   50.00000   50.00000   90.00000   90.00000   90.00000
LATT -1
SFAC C  
C      1  0.4630760000000  0.5802350000000  0.5096630000000 1.0
C      1  0.4957620000000  0.5472800000000  0.5330830000000 1.0
C      1  0.5554160000000  0.4160180000000  0.5215470000000 1.0
C      1  0.5491660000000  0.5318060000000  0.4759540000000 1.0
C      1  0.5650440000000  0.5072950000000  0.4428250000000 1.0
C      1  0.5178060000000  0.5242070000000  0.4094250000000 1.0
C      1  0.5135480000000  0.4884100000000  0.5897320000000 1.0
C      1  0.4945480000000  0.5856280000000  0.5820890000000 1.0
C      1  0.4275970000000  0.4269660000000  0.4839550000000 1.0
C      1  0.4237460000000  0.4482550000000  0.5404240000000 1.0
C      1  0.4669390000000  0.4815830000000  0.4390230000000 1.0
C      1  0.4772060000000  0.5732330000000  0.4822800000000 1.0
C      1  0.5760470000000  0.4614620000000  0.5766320000000 1.0
C      1  0.4839040000000  0.4487940000000  0.5977700000000 1.0
C      1  0.5395880000000  0.4224990000000  0.5673310000000 1.0
C      1  0.5398080000000  0.4344290000000  0.4379150000000 1.0
C      1  0.4902460000000  0.4278740000000  0.4501720000000 1.0
C      1  0.5507400000000  0.5685530000000  0.5597280000000 1.0
C      1  0.4723910000000  0.5313230000000  0.4506030000000 1.0
C      1  0.6113190000000  0.4703310000000  0.5159360000000 1.0
C      1  0.5383100000000  0.4896910000000  0.5533870000000 1.0
C      1  0.4735010000000  0.4110230000000  0.4912090000000 1.0
C      1  0.4686770000000  0.5178420000000  0.4088790000000 1.0
C      1  0.5796280000000  0.5539760000000  0.4501700000000 1.0
C      1  0.5214140000000  0.5948460000000  0.4963050000000 1.0
C      1  0.4669550000000  0.4589410000000  0.5369800000000 1.0
C      1  0.5117050000000  0.5688510000000  0.5487920000000 1.0
C      1  0.4708270000000  0.5092650000000  0.5562060000000 1.0
C      1  0.5874060000000  0.4896760000000  0.5563330000000 1.0
C      1  0.5158820000000  0.4954710000000  0.4518120000000 1.0
C      1  0.5982210000000  0.5285980000000  0.4908360000000 1.0
C      1  0.5217570000000  0.4971970000000  0.3990370000000 1.0
C      1  0.5214900000000  0.5675820000000  0.4291330000000 1.0
C      1  0.5189570000000  0.5060030000000  0.5359060000000 1.0
C      1  0.5279300000000  0.5930440000000  0.5402260000000 1.0
C      1  0.6080460000000  0.5064170000000  0.4726030000000 1.0
C      1  0.5406390000000  0.5742760000000  0.5020600000000 1.0
C      1  0.4379870000000  0.5904290000000  0.4676560000000 1.0
C      1  0.4398280000000  0.4179100000000  0.4572300000000 1.0
C      1  0.5421510000000  0.4648020000000  0.5318730000000 1.0
C      1  0.4070280000000  0.5476840000000  0.4630190000000 1.0
C      1  0.5998450000000  0.4527060000000  0.4724410000000 1.0
C      1  0.4974080000000  0.5351300000000  0.4884800000000 1.0
C      1  0.4451820000000  0.5253610000000  0.4236530000000 1.0
C      1  0.4583340000000  0.5491140000000  0.4730200000000 1.0
C      1  0.5346210000000  0.4087430000000  0.5405250000000 1.0
C      1  0.5082010000000  0.6034500000000  0.5216120000000 1.0
C      1  0.5753410000000  0.5467520000000  0.4784070000000 1.0
C      1  0.4304510000000  0.4837350000000  0.5661590000000 1.0
C      1  0.4991920000000  0.4791660000000  0.3993110000000 1.0
C      1  0.4604040000000  0.5503970000000  0.5246510000000 1.0
C      1  0.5124300000000  0.4625010000000  0.5204740000000 1.0
C      1  0.5399590000000  0.4976950000000  0.5913010000000 1.0
C      1  0.4545700000000  0.4855760000000  0.5453860000000 1.0
C      1  0.4894410000000  0.5060900000000  0.4970100000000 1.0
C      1  0.4517390000000  0.4720690000000  0.4045090000000 1.0
C      1  0.5686940000000  0.4940870000000  0.4949120000000 1.0
C      1  0.5943430000000  0.4450710000000  0.5185540000000 1.0
C      1  0.4723250000000  0.4907000000000  0.3975040000000 1.0
C      1  0.4640350000000  0.5046390000000  0.4577680000000 1.0
C      1  0.5035500000000  0.4500370000000  0.4048210000000 1.0
C      1  0.4628400000000  0.4600500000000  0.4812210000000 1.0
C      1  0.4510130000000  0.5738500000000  0.5679320000000 1.0
C      1  0.5449320000000  0.4840040000000  0.4067960000000 1.0
C      1  0.5243990000000  0.5453120000000  0.4674950000000 1.0
C      1  0.5817240000000  0.4655080000000  0.4540520000000 1.0
C      1  0.5061050000000  0.5603550000000  0.5911970000000 1.0
C      1  0.5697020000000  0.5541620000000  0.5420260000000 1.0
C      1  0.4663080000000  0.4930620000000  0.5898900000000 1.0
C      1  0.5377680000000  0.4627060000000  0.4809100000000 1.0
C      1  0.4128310000000  0.5501520000000  0.5399760000000 1.0
C      1  0.5039390000000  0.4904870000000  0.5175100000000 1.0
C      1  0.4212850000000  0.5114770000000  0.4341650000000 1.0
C      1  0.5638440000000  0.5261640000000  0.5327090000000 1.0
C      1  0.4653320000000  0.4940190000000  0.4850120000000 1.0
C      1  0.4913910000000  0.5357450000000  0.4108500000000 1.0
C      1  0.5291180000000  0.4413930000000  0.4128680000000 1.0
C      1  0.4582990000000  0.5465750000000  0.5792680000000 1.0
C      1  0.4946880000000  0.4740610000000  0.4482750000000 1.0
C      1  0.5812800000000  0.4939060000000  0.4646870000000 1.0
C      1  0.4060130000000  0.5330700000000  0.4886470000000 1.0
C      1  0.5267200000000  0.4090930000000  0.4810990000000 1.0
C      1  0.5635160000000  0.5064980000000  0.5551590000000 1.0
C      1  0.4941750000000  0.4525830000000  0.5411360000000 1.0
C      1  0.5051610000000  0.5264020000000  0.4510690000000 1.0
C      1  0.5635520000000  0.5358390000000  0.4344560000000 1.0
C      1  0.5854860000000  0.5122660000000  0.5135720000000 1.0
C      1  0.4304690000000  0.4547150000000  0.5693950000000 1.0
C      1  0.5587310000000  0.4656690000000  0.5036570000000 1.0
C      1  0.4903100000000  0.4529840000000  0.4688750000000 1.0
C      1  0.4149190000000  0.4987080000000  0.4828870000000 1.0
C      1  0.4749510000000  0.5894950000000  0.5607790000000 1.0
C      1  0.4531420000000  0.4336620000000  0.4976360000000 1.0
C      1  0.4910620000000  0.5072430000000  0.5949440000000 1.0
C      1  0.4806200000000  0.5947790000000  0.5305140000000 1.0
C      1  0.5513580000000  0.4590410000000  0.4522290000000 1.0
C      1  0.5357770000000  0.5230830000000  0.5185750000000 1.0
C      1  0.4096700000000  0.4487300000000  0.4845250000000 1.0
C      1  0.4071180000000  0.4986350000000  0.5552810000000 1.0
C      1  0.4735410000000  0.5798750000000  0.4347320000000 1.0
C      1  0.5435480000000  0.5091810000000  0.4924290000000 1.0
C      1  0.5258880000000  0.4896290000000  0.4790820000000 1.0
C      1  0.5438490000000  0.4870790000000  0.4361100000000 1.0
C      1  0.4225410000000  0.4894420000000  0.4549880000000 1.0
C      1  0.5027560000000  0.4117210000000  0.5004890000000 1.0
C      1  0.4359970000000  0.4411970000000  0.4384080000000 1.0
C      1  0.4493040000000  0.4366850000000  0.5287140000000 1.0
C      1  0.4093540000000  0.5526780000000  0.5111230000000 1.0
C      1  0.4820210000000  0.4028950000000  0.5484090000000 1.0
C      1  0.4214350000000  0.5244110000000  0.5508660000000 1.0
C      1  0.5106540000000  0.4594420000000  0.5948750000000 1.0
C      1  0.5321890000000  0.5543880000000  0.5781500000000 1.0
C      1  0.4569900000000  0.4116120000000  0.5404240000000 1.0
C      1  0.4487040000000  0.5359130000000  0.4994290000000 1.0
C      1  0.4123130000000  0.5798110000000  0.5050150000000 1.0
C      1  0.4371980000000  0.4933380000000  0.5234310000000 1.0
C      1  0.5269180000000  0.5738850000000  0.4573240000000 1.0
C      1  0.5197370000000  0.4184640000000  0.4535800000000 1.0
C      1  0.5820110000000  0.5690320000000  0.5218250000000 1.0
C      1  0.5073380000000  0.4002100000000  0.5290750000000 1.0
C      1  0.5613160000000  0.4802310000000  0.5910340000000 1.0
C      1  0.4928780000000  0.5610290000000  0.4259120000000 1.0
C      1  0.5123360000000  0.4487520000000  0.4916470000000 1.0
C      1  0.5599200000000  0.4435090000000  0.5594260000000 1.0
C      1  0.4827370000000  0.4365660000000  0.4212100000000 1.0
C      1  0.5689860000000  0.5700770000000  0.4971150000000 1.0
C      1  0.4338540000000  0.5616520000000  0.4584200000000 1.0
C      1  0.6025400000000  0.4943020000000  0.5312130000000 1.0
C      1  0.4981030000000  0.5218580000000  0.5485290000000 1.0
C      1  0.4693250000000  0.4098400000000  0.4621310000000 1.0
C      1  0.4136810000000  0.4745340000000  0.5260500000000 1.0
C      1  0.4865870000000  0.5377180000000  0.5880760000000 1.0
C      1  0.4982800000000  0.4273600000000  0.5554090000000 1.0
C      1  0.5533100000000  0.4146950000000  0.4925040000000 1.0
C      1  0.4297540000000  0.5711520000000  0.5492220000000 1.0
C      1  0.5162940000000  0.5457170000000  0.5108920000000 1.0
C      1  0.6154300000000  0.4751830000000  0.4862720000000 1.0
C      1  0.4364440000000  0.5921210000000  0.4977950000000 1.0
C      1  0.4549410000000  0.4454210000000  0.4157950000000 1.0
C      1  0.5734810000000  0.4337790000000  0.5354170000000 1.0
C      1  0.4013620000000  0.5298850000000  0.4418240000000 1.0
C      1  0.4512660000000  0.5319730000000  0.5535190000000 1.0
C      1  0.4044390000000  0.4733310000000  0.4972220000000 1.0
C      1  0.4434560000000  0.4655690000000  0.4541590000000 1.0
C      1  0.5375920000000  0.5434600000000  0.4204010000000 1.0
C      1  0.5133310000000  0.4291680000000  0.5823760000000 1.0
C      1  0.4667280000000  0.5917440000000  0.4596480000000 1.0
C      1  0.5090560000000  0.5917950000000  0.4710210000000 1.0
C      1  0.4616450000000  0.4641900000000  0.5896350000000 1.0
C      1  0.5831620000000  0.4380970000000  0.4922510000000 1.0
C      1  0.4416350000000  0.5061950000000  0.4978860000000 1.0
END
