TITL C-951345-2650-520 -5.37192107710918e-06 125000 -1037.89405973198 0 0 169 (C1) n - 1
REM
REM in /home/bkarasulu/work/CARBON/AIRSS/Generating-Clusters/EDIP-Nigel-Params/with-SteepDescent/Only-C1/SD-CG/HFTN-CG
REM
REM
REM
REM
REM
REM ./C.cell (11c1c37f851c82e70ff6c80c92926a4b)
REM
REM compiler GCC version 9.2.1 20190827 (Red Hat 9.2.1-1)
REM options -cpp -mtune=generic -march=x86-64 -g -O0 -fpre-include=/usr/include/finclude/math-vector-fortran.h
REM seed -1515896815 -1082603915 1047376357 1443057556 -779387259 -1209401684 -405596767 -594731535 -1224560231 -569128856 1796175296 1202764125 -1528002603 -1407831929 -1507978242 1892479788 715258 -1660953149 656237258 -235474670 -1708916459 1868497827 -1421376932 -543785624 1988936050 1957064488 2004992049 -1182070016 1112892038 674455694 -1899377689 -1827320562 -2070374489
REM
CELL 1.54180   50.00000   50.00000   50.00000   90.00000   90.00000   90.00000
LATT -1
SFAC C  
C      1  0.4326080000000  0.5503230000000  0.5638860000000 1.0
C      1  0.4318560000000  0.4883960000000  0.5110600000000 1.0
C      1  0.5060420000000  0.4743850000000  0.4444570000000 1.0
C      1  0.4631840000000  0.4740280000000  0.4223610000000 1.0
C      1  0.5281850000000  0.3978670000000  0.5055430000000 1.0
C      1  0.4587110000000  0.4083920000000  0.5248830000000 1.0
C      1  0.3855270000000  0.5035600000000  0.4892630000000 1.0
C      1  0.5399010000000  0.4510460000000  0.5284260000000 1.0
C      1  0.5279830000000  0.5539230000000  0.4268910000000 1.0
C      1  0.5489730000000  0.5507790000000  0.5759240000000 1.0
C      1  0.5754160000000  0.5499030000000  0.5469730000000 1.0
C      1  0.5556180000000  0.4911360000000  0.4318950000000 1.0
C      1  0.4261260000000  0.4327630000000  0.5542170000000 1.0
C      1  0.5140690000000  0.5720620000000  0.5044240000000 1.0
C      1  0.5035440000000  0.5448080000000  0.6026960000000 1.0
C      1  0.4032190000000  0.5260470000000  0.5002760000000 1.0
C      1  0.5369770000000  0.5072360000000  0.5996280000000 1.0
C      1  0.4795710000000  0.5534810000000  0.4771740000000 1.0
C      1  0.5579570000000  0.4326950000000  0.5461940000000 1.0
C      1  0.4637760000000  0.5641170000000  0.4522660000000 1.0
C      1  0.4474130000000  0.4678790000000  0.5249150000000 1.0
C      1  0.4365620000000  0.5389180000000  0.4158130000000 1.0
C      1  0.5319030000000  0.4700830000000  0.3943310000000 1.0
C      1  0.4573090000000  0.5266260000000  0.4007090000000 1.0
C      1  0.5506890000000  0.4509220000000  0.4500070000000 1.0
C      1  0.4849580000000  0.5771510000000  0.4357380000000 1.0
C      1  0.5257740000000  0.4883870000000  0.4868070000000 1.0
C      1  0.5373990000000  0.6068940000000  0.4811090000000 1.0
C      1  0.5181710000000  0.4059720000000  0.4334780000000 1.0
C      1  0.5071870000000  0.4611270000000  0.4734580000000 1.0
C      1  0.5133120000000  0.4354800000000  0.5240630000000 1.0
C      1  0.5667260000000  0.5188590000000  0.4927290000000 1.0
C      1  0.4577510000000  0.4953740000000  0.5969190000000 1.0
C      1  0.5604370000000  0.5166410000000  0.4166310000000 1.0
C      1  0.4485040000000  0.4473460000000  0.5701240000000 1.0
C      1  0.5203680000000  0.4051630000000  0.5335580000000 1.0
C      1  0.5799040000000  0.4865710000000  0.5285480000000 1.0
C      1  0.5742520000000  0.4378170000000  0.4660150000000 1.0
C      1  0.4202740000000  0.5718310000000  0.5079000000000 1.0
C      1  0.5299930000000  0.4320520000000  0.4311210000000 1.0
C      1  0.3932240000000  0.4919560000000  0.4625930000000 1.0
C      1  0.5577420000000  0.4679130000000  0.5795520000000 1.0
C      1  0.4130310000000  0.4751130000000  0.5538540000000 1.0
C      1  0.5786810000000  0.4854820000000  0.4519820000000 1.0
C      1  0.5766640000000  0.4164490000000  0.4878140000000 1.0
C      1  0.4340510000000  0.4258640000000  0.5255630000000 1.0
C      1  0.5799060000000  0.4205980000000  0.5168720000000 1.0
C      1  0.4028020000000  0.5214190000000  0.5307840000000 1.0
C      1  0.4169940000000  0.4328150000000  0.5002210000000 1.0
C      1  0.6076270000000  0.4725140000000  0.4869390000000 1.0
C      1  0.4935580000000  0.4654150000000  0.5571740000000 1.0
C      1  0.5228600000000  0.4747660000000  0.5642750000000 1.0
C      1  0.4334860000000  0.5876870000000  0.5407280000000 1.0
C      1  0.4977190000000  0.3905850000000  0.5443220000000 1.0
C      1  0.4457470000000  0.5123660000000  0.5227600000000 1.0
C      1  0.5093970000000  0.5753990000000  0.5726600000000 1.0
C      1  0.4769010000000  0.4930660000000  0.5574850000000 1.0
C      1  0.4664980000000  0.4845710000000  0.4725300000000 1.0
C      1  0.4731250000000  0.5035510000000  0.5301850000000 1.0
C      1  0.5483160000000  0.5475080000000  0.5297660000000 1.0
C      1  0.6013880000000  0.5085870000000  0.5310890000000 1.0
C      1  0.5607680000000  0.4959670000000  0.5847360000000 1.0
C      1  0.5095770000000  0.5123250000000  0.4092900000000 1.0
C      1  0.5974230000000  0.4406670000000  0.5242550000000 1.0
C      1  0.4974860000000  0.4707910000000  0.6008770000000 1.0
C      1  0.5393670000000  0.4217530000000  0.4884620000000 1.0
C      1  0.4070790000000  0.5542240000000  0.4884150000000 1.0
C      1  0.4664900000000  0.4302450000000  0.4186310000000 1.0
C      1  0.6160940000000  0.5213200000000  0.5065910000000 1.0
C      1  0.4343510000000  0.4830450000000  0.4189770000000 1.0
C      1  0.4644830000000  0.5995160000000  0.4881170000000 1.0
C      1  0.5346480000000  0.5292570000000  0.4117110000000 1.0
C      1  0.4204750000000  0.4597030000000  0.4266660000000 1.0
C      1  0.5445590000000  0.5252190000000  0.5100950000000 1.0
C      1  0.5132080000000  0.4937490000000  0.5868540000000 1.0
C      1  0.4890100000000  0.6083110000000  0.4719840000000 1.0
C      1  0.4754790000000  0.5245480000000  0.4894820000000 1.0
C      1  0.4530990000000  0.5237240000000  0.4574970000000 1.0
C      1  0.4620780000000  0.5220420000000  0.6003100000000 1.0
C      1  0.5008450000000  0.3921220000000  0.4958590000000 1.0
C      1  0.5242420000000  0.5029840000000  0.5146370000000 1.0
C      1  0.5602980000000  0.5658110000000  0.4735040000000 1.0
C      1  0.5488900000000  0.4478200000000  0.5011940000000 1.0
C      1  0.5395230000000  0.5756660000000  0.5189400000000 1.0
C      1  0.4612710000000  0.5591800000000  0.5694660000000 1.0
C      1  0.4250160000000  0.4264210000000  0.4711040000000 1.0
C      1  0.4917890000000  0.5436930000000  0.5329480000000 1.0
C      1  0.4027590000000  0.4489880000000  0.5556570000000 1.0
C      1  0.4455600000000  0.5579570000000  0.5102420000000 1.0
C      1  0.5514420000000  0.4713230000000  0.4833500000000 1.0
C      1  0.4931320000000  0.5192800000000  0.5161880000000 1.0
C      1  0.5868490000000  0.5232870000000  0.5518840000000 1.0
C      1  0.6148390000000  0.5004390000000  0.4827360000000 1.0
C      1  0.4420270000000  0.5811160000000  0.4620960000000 1.0
C      1  0.4950910000000  0.4573480000000  0.5297860000000 1.0
C      1  0.4844650000000  0.5294070000000  0.4157540000000 1.0
C      1  0.4900410000000  0.5697080000000  0.5196660000000 1.0
C      1  0.4835620000000  0.5937070000000  0.5363520000000 1.0
C      1  0.5992420000000  0.5056730000000  0.4578670000000 1.0
C      1  0.5779450000000  0.5346740000000  0.4285340000000 1.0
C      1  0.5748610000000  0.4889510000000  0.4964150000000 1.0
C      1  0.4127880000000  0.4465880000000  0.4505540000000 1.0
C      1  0.5314000000000  0.5972170000000  0.4532570000000 1.0
C      1  0.4867990000000  0.4433700000000  0.4016960000000 1.0
C      1  0.5517510000000  0.4673340000000  0.4156220000000 1.0
C      1  0.4987960000000  0.5573190000000  0.4197840000000 1.0
C      1  0.5154440000000  0.4254200000000  0.5801560000000 1.0
C      1  0.4205400000000  0.5603900000000  0.4610240000000 1.0
C      1  0.4386710000000  0.4886250000000  0.4796080000000 1.0
C      1  0.5085350000000  0.5624110000000  0.4763120000000 1.0
C      1  0.5938490000000  0.5700570000000  0.5383010000000 1.0
C      1  0.5263150000000  0.4975840000000  0.4413130000000 1.0
C      1  0.5249700000000  0.5393980000000  0.4685580000000 1.0
C      1  0.4735220000000  0.4627720000000  0.5129530000000 1.0
C      1  0.4596410000000  0.5851670000000  0.5532800000000 1.0
C      1  0.3962150000000  0.4550710000000  0.4947950000000 1.0
C      1  0.4780740000000  0.4877520000000  0.4447580000000 1.0
C      1  0.4846070000000  0.4139830000000  0.5093630000000 1.0
C      1  0.5356120000000  0.5944250000000  0.5433500000000 1.0
C      1  0.4219250000000  0.5002560000000  0.4573150000000 1.0
C      1  0.5035840000000  0.5872690000000  0.4571810000000 1.0
C      1  0.4763290000000  0.4390310000000  0.4443240000000 1.0
C      1  0.4506150000000  0.4977860000000  0.3947900000000 1.0
C      1  0.5458070000000  0.5720390000000  0.4468910000000 1.0
C      1  0.4752540000000  0.5463610000000  0.5940340000000 1.0
C      1  0.5105950000000  0.4530060000000  0.4204460000000 1.0
C      1  0.4056440000000  0.4903100000000  0.5283770000000 1.0
C      1  0.6115370000000  0.5568540000000  0.5220130000000 1.0
C      1  0.4778260000000  0.4610820000000  0.4840460000000 1.0
C      1  0.5627440000000  0.5057670000000  0.5569040000000 1.0
C      1  0.4514190000000  0.4083000000000  0.4655750000000 1.0
C      1  0.4475440000000  0.5304980000000  0.5004480000000 1.0
C      1  0.5319740000000  0.5369970000000  0.5985630000000 1.0
C      1  0.4282050000000  0.5357420000000  0.4435050000000 1.0
C      1  0.5110580000000  0.4463310000000  0.5981410000000 1.0
C      1  0.4961900000000  0.3937580000000  0.4458130000000 1.0
C      1  0.4946450000000  0.5134370000000  0.5728070000000 1.0
C      1  0.5918460000000  0.5331430000000  0.4525320000000 1.0
C      1  0.4798300000000  0.6147750000000  0.5144070000000 1.0
C      1  0.4931200000000  0.4266020000000  0.5608430000000 1.0
C      1  0.5742240000000  0.4514430000000  0.5621290000000 1.0
C      1  0.5262790000000  0.5109220000000  0.4667790000000 1.0
C      1  0.4807590000000  0.4731870000000  0.3931790000000 1.0
C      1  0.4674660000000  0.4025050000000  0.4388080000000 1.0
C      1  0.4155780000000  0.5721850000000  0.5558130000000 1.0
C      1  0.4438590000000  0.4729820000000  0.5550690000000 1.0
C      1  0.5806080000000  0.5427330000000  0.4786890000000 1.0
C      1  0.4626340000000  0.4379600000000  0.4696600000000 1.0
C      1  0.5067300000000  0.5984570000000  0.5536460000000 1.0
C      1  0.5395990000000  0.5786850000000  0.5751100000000 1.0
C      1  0.5334070000000  0.5381110000000  0.5540060000000 1.0
C      1  0.3931960000000  0.4615990000000  0.4661520000000 1.0
C      1  0.5078310000000  0.4874790000000  0.3929900000000 1.0
C      1  0.4689790000000  0.4700150000000  0.5930730000000 1.0
C      1  0.4285740000000  0.5255580000000  0.5464000000000 1.0
C      1  0.5408530000000  0.4224370000000  0.5679290000000 1.0
C      1  0.5906750000000  0.4624210000000  0.4654790000000 1.0
C      1  0.5174000000000  0.4309470000000  0.4692580000000 1.0
C      1  0.3861810000000  0.4797520000000  0.5087760000000 1.0
C      1  0.5375750000000  0.4837150000000  0.5372550000000 1.0
C      1  0.4951660000000  0.4096560000000  0.4716170000000 1.0
C      1  0.5046540000000  0.5421410000000  0.5590690000000 1.0
C      1  0.5914490000000  0.4620020000000  0.5410210000000 1.0
C      1  0.6056630000000  0.5488020000000  0.4951030000000 1.0
C      1  0.4774930000000  0.5168600000000  0.4414250000000 1.0
C      1  0.4731380000000  0.4042960000000  0.5508370000000 1.0
C      1  0.4687620000000  0.5707100000000  0.4988230000000 1.0
C      1  0.5040810000000  0.6179480000000  0.4951910000000 1.0
C      1  0.5547570000000  0.5866360000000  0.4943850000000 1.0
END
