TITL C-950522-5749-74 -8.6932077166664e-07 125000 -919.227761712767 0 0 146 (C1) n - 1
REM
REM in /home/bkarasulu/work/CARBON/AIRSS/Generating-Clusters/EDIP-Nigel-Params/with-SteepDescent/Only-C1/SD-CG/HFTN-CG
REM
REM
REM
REM
REM
REM ./C.cell (11c1c37f851c82e70ff6c80c92926a4b)
REM
REM compiler GCC version 9.2.1 20190827 (Red Hat 9.2.1-1)
REM options -cpp -mtune=generic -march=x86-64 -g -O0 -fpre-include=/usr/include/finclude/math-vector-fortran.h
REM seed -1433165554 -317904821 -259901087 -951030560 -275504412 1074241819 -1016231790 769569069 1159705625 336913871 -1130410275 -1933032037 45345689 2012786455 -1239605176 187241184 -147477233 668608181 369555752 -1514041853 1182996464 503531669 -367505505 -634044408 684008612 -817395044 -1729896383 -882273904 -1278531704 168245771 1530432221 532764681 640344975
REM
CELL 1.54180   50.00000   50.00000   50.00000   90.00000   90.00000   90.00000
LATT -1
SFAC C  
C      1  0.4146030000000  0.5171870000000  0.4842300000000 1.0
C      1  0.5302220000000  0.4352920000000  0.4389330000000 1.0
C      1  0.4806480000000  0.4915020000000  0.4431450000000 1.0
C      1  0.5101240000000  0.5172690000000  0.5934930000000 1.0
C      1  0.5198240000000  0.4107710000000  0.4495890000000 1.0
C      1  0.5940930000000  0.5536330000000  0.4743290000000 1.0
C      1  0.4871590000000  0.5162280000000  0.4575980000000 1.0
C      1  0.5654200000000  0.5372490000000  0.5685200000000 1.0
C      1  0.5451330000000  0.4224090000000  0.4878580000000 1.0
C      1  0.5580740000000  0.4134560000000  0.5370000000000 1.0
C      1  0.4437440000000  0.5009130000000  0.5394900000000 1.0
C      1  0.5927190000000  0.5114810000000  0.5365840000000 1.0
C      1  0.5091220000000  0.5300540000000  0.4424060000000 1.0
C      1  0.5155530000000  0.4944530000000  0.5742700000000 1.0
C      1  0.5905960000000  0.5344850000000  0.5177910000000 1.0
C      1  0.5661980000000  0.5598380000000  0.5512310000000 1.0
C      1  0.5790630000000  0.4942250000000  0.5801410000000 1.0
C      1  0.4986990000000  0.4742640000000  0.4817790000000 1.0
C      1  0.5844370000000  0.4420340000000  0.5081140000000 1.0
C      1  0.5091530000000  0.4702750000000  0.4130200000000 1.0
C      1  0.5712900000000  0.4614270000000  0.4237580000000 1.0
C      1  0.5573570000000  0.4822470000000  0.4089720000000 1.0
C      1  0.4045010000000  0.5425820000000  0.4701590000000 1.0
C      1  0.5425720000000  0.4737680000000  0.4791640000000 1.0
C      1  0.4668390000000  0.6043850000000  0.4835690000000 1.0
C      1  0.5639240000000  0.5291980000000  0.4738160000000 1.0
C      1  0.5546420000000  0.4920340000000  0.5012750000000 1.0
C      1  0.5011800000000  0.4487670000000  0.5018570000000 1.0
C      1  0.4547300000000  0.5626060000000  0.5671490000000 1.0
C      1  0.4888260000000  0.5364820000000  0.5405090000000 1.0
C      1  0.4509460000000  0.4353670000000  0.4390030000000 1.0
C      1  0.5530800000000  0.5416500000000  0.5932980000000 1.0
C      1  0.4062310000000  0.5621500000000  0.4932440000000 1.0
C      1  0.4514430000000  0.4699280000000  0.4750530000000 1.0
C      1  0.4396250000000  0.5291950000000  0.5317420000000 1.0
C      1  0.5639580000000  0.4709020000000  0.5776090000000 1.0
C      1  0.4698180000000  0.5367550000000  0.5176950000000 1.0
C      1  0.5283060000000  0.5757130000000  0.5102320000000 1.0
C      1  0.5127460000000  0.5570610000000  0.4911150000000 1.0
C      1  0.5531900000000  0.5662840000000  0.4532770000000 1.0
C      1  0.4683470000000  0.5011860000000  0.5800130000000 1.0
C      1  0.4823400000000  0.5476820000000  0.5680300000000 1.0
C      1  0.4478010000000  0.5838560000000  0.4746610000000 1.0
C      1  0.4348720000000  0.4562790000000  0.4251760000000 1.0
C      1  0.5168550000000  0.3941820000000  0.5167760000000 1.0
C      1  0.4148400000000  0.4527040000000  0.5083230000000 1.0
C      1  0.5583140000000  0.5240110000000  0.4238160000000 1.0
C      1  0.5484270000000  0.4878110000000  0.5337410000000 1.0
C      1  0.4929710000000  0.4076580000000  0.5275570000000 1.0
C      1  0.5901890000000  0.4968350000000  0.4489360000000 1.0
C      1  0.4263030000000  0.4978950000000  0.4434000000000 1.0
C      1  0.5836720000000  0.4616540000000  0.5285620000000 1.0
C      1  0.3964260000000  0.4926580000000  0.4892540000000 1.0
C      1  0.5093310000000  0.5832260000000  0.4631910000000 1.0
C      1  0.4495450000000  0.4750170000000  0.4070700000000 1.0
C      1  0.5061080000000  0.4451430000000  0.4252050000000 1.0
C      1  0.4952580000000  0.5131080000000  0.4008240000000 1.0
C      1  0.4780980000000  0.6022250000000  0.5559660000000 1.0
C      1  0.5976510000000  0.4863490000000  0.5211130000000 1.0
C      1  0.4319970000000  0.5769070000000  0.4984800000000 1.0
C      1  0.5396000000000  0.4128890000000  0.5157340000000 1.0
C      1  0.4335920000000  0.5441420000000  0.5577340000000 1.0
C      1  0.4965430000000  0.5069840000000  0.4868060000000 1.0
C      1  0.4408760000000  0.5017510000000  0.5696210000000 1.0
C      1  0.4679090000000  0.5611790000000  0.4701460000000 1.0
C      1  0.5064870000000  0.5976190000000  0.5170510000000 1.0
C      1  0.4784160000000  0.5368470000000  0.4051550000000 1.0
C      1  0.4784830000000  0.4683080000000  0.4605730000000 1.0
C      1  0.5853950000000  0.4934440000000  0.4944930000000 1.0
C      1  0.5716690000000  0.5720750000000  0.4754800000000 1.0
C      1  0.4823540000000  0.5601850000000  0.4967320000000 1.0
C      1  0.5932280000000  0.5272390000000  0.4892350000000 1.0
C      1  0.4109890000000  0.4625700000000  0.5580640000000 1.0
C      1  0.4992750000000  0.4296300000000  0.5469540000000 1.0
C      1  0.5577990000000  0.4376830000000  0.4310490000000 1.0
C      1  0.5767340000000  0.4525680000000  0.4612460000000 1.0
C      1  0.4164170000000  0.5485360000000  0.4451980000000 1.0
C      1  0.4891730000000  0.4788050000000  0.5390740000000 1.0
C      1  0.4089130000000  0.4665110000000  0.4818500000000 1.0
C      1  0.4825870000000  0.4231360000000  0.5037540000000 1.0
C      1  0.3969260000000  0.4962420000000  0.5195550000000 1.0
C      1  0.5706650000000  0.5093640000000  0.5571020000000 1.0
C      1  0.5571780000000  0.5542110000000  0.4257400000000 1.0
C      1  0.4523860000000  0.5816460000000  0.5218360000000 1.0
C      1  0.4819300000000  0.5250960000000  0.5884110000000 1.0
C      1  0.4921800000000  0.4165060000000  0.4562100000000 1.0
C      1  0.5254980000000  0.5411050000000  0.5877430000000 1.0
C      1  0.5698140000000  0.5072630000000  0.4028500000000 1.0
C      1  0.4127370000000  0.5246810000000  0.5158820000000 1.0
C      1  0.4574140000000  0.4654980000000  0.5041530000000 1.0
C      1  0.5041940000000  0.6002410000000  0.5460790000000 1.0
C      1  0.4181660000000  0.4706160000000  0.4461160000000 1.0
C      1  0.5640190000000  0.5097410000000  0.4504310000000 1.0
C      1  0.4260700000000  0.4782320000000  0.5806170000000 1.0
C      1  0.5602100000000  0.5745180000000  0.5034150000000 1.0
C      1  0.5169610000000  0.5312960000000  0.5326730000000 1.0
C      1  0.5520470000000  0.4380650000000  0.5498670000000 1.0
C      1  0.5916770000000  0.4776390000000  0.4691510000000 1.0
C      1  0.4840280000000  0.4032540000000  0.4806260000000 1.0
C      1  0.5315100000000  0.5599530000000  0.5365860000000 1.0
C      1  0.5183220000000  0.5275060000000  0.5005480000000 1.0
C      1  0.5107590000000  0.4468890000000  0.5868780000000 1.0
C      1  0.4295390000000  0.4381400000000  0.5634680000000 1.0
C      1  0.5315110000000  0.5841170000000  0.4454750000000 1.0
C      1  0.4849160000000  0.4873910000000  0.4136110000000 1.0
C      1  0.3964650000000  0.5490800000000  0.5166240000000 1.0
C      1  0.4871810000000  0.5715670000000  0.4501190000000 1.0
C      1  0.4440680000000  0.4537410000000  0.5861250000000 1.0
C      1  0.4810810000000  0.4413700000000  0.4430510000000 1.0
C      1  0.5199680000000  0.5783520000000  0.5576770000000 1.0
C      1  0.5457970000000  0.5189830000000  0.4945760000000 1.0
C      1  0.4438560000000  0.5007900000000  0.4202900000000 1.0
C      1  0.4779120000000  0.5892880000000  0.5068050000000 1.0
C      1  0.4805400000000  0.4549890000000  0.5814780000000 1.0
C      1  0.5370200000000  0.4593580000000  0.5346070000000 1.0
C      1  0.5271380000000  0.4472070000000  0.4811340000000 1.0
C      1  0.4114970000000  0.4725410000000  0.5297240000000 1.0
C      1  0.4426310000000  0.4407610000000  0.5124290000000 1.0
C      1  0.5280610000000  0.5060590000000  0.5475410000000 1.0
C      1  0.4738660000000  0.4364530000000  0.5583650000000 1.0
C      1  0.5735980000000  0.4327060000000  0.4839710000000 1.0
C      1  0.4877370000000  0.4823480000000  0.5684980000000 1.0
C      1  0.5250620000000  0.5690550000000  0.4195120000000 1.0
C      1  0.5307450000000  0.4702500000000  0.5849730000000 1.0
C      1  0.4491210000000  0.4334670000000  0.5424880000000 1.0
C      1  0.4551470000000  0.5871180000000  0.5506330000000 1.0
C      1  0.4991800000000  0.5544270000000  0.4286030000000 1.0
C      1  0.5070990000000  0.5626390000000  0.5785330000000 1.0
C      1  0.4268620000000  0.5258600000000  0.5778170000000 1.0
C      1  0.5738030000000  0.5575170000000  0.5239620000000 1.0
C      1  0.5318290000000  0.4868900000000  0.4239830000000 1.0
C      1  0.4491680000000  0.4197530000000  0.4886600000000 1.0
C      1  0.4409410000000  0.4400650000000  0.4670110000000 1.0
C      1  0.4506080000000  0.5293660000000  0.4134140000000 1.0
C      1  0.5206700000000  0.5156370000000  0.4181980000000 1.0
C      1  0.4737260000000  0.5104870000000  0.5045920000000 1.0
C      1  0.4587910000000  0.5311920000000  0.4605880000000 1.0
C      1  0.5160200000000  0.4238080000000  0.5708290000000 1.0
C      1  0.4659290000000  0.4879890000000  0.5223180000000 1.0
C      1  0.4432430000000  0.5448400000000  0.4371630000000 1.0
C      1  0.5073850000000  0.4554570000000  0.5309800000000 1.0
C      1  0.5335940000000  0.3988890000000  0.4720690000000 1.0
C      1  0.5415750000000  0.4890540000000  0.4537180000000 1.0
C      1  0.5102960000000  0.3878260000000  0.4882960000000 1.0
C      1  0.5754370000000  0.4533390000000  0.5564170000000 1.0
C      1  0.4391240000000  0.5062600000000  0.4691530000000 1.0
END
