TITL C-951344-124-133 1.79861307424996e-06 125000 -1212.82942804773 0 0 193 (C1) n - 1
REM
REM in /home/bkarasulu/work/CARBON/AIRSS/Generating-Clusters/EDIP-Nigel-Params/with-SteepDescent/Only-C1/SD-CG/HFTN-CG
REM
REM
REM
REM
REM
REM ./C.cell (11c1c37f851c82e70ff6c80c92926a4b)
REM
REM compiler GCC version 9.2.1 20190827 (Red Hat 9.2.1-1)
REM options -cpp -mtune=generic -march=x86-64 -g -O0 -fpre-include=/usr/include/finclude/math-vector-fortran.h
REM seed -17520325 -488307394 -1887201453 -149757630 1901475515 -1591876959 448751533 -720096347 1455592561 595518133 937833012 -628487775 824355876 1414133789 -1549811229 -495342986 1220749500 1734538882 -1945527162 424122774 11118118 680644514 -1418212486 212021171 183457942 -850887033 -1580913375 1376103528 604900871 1048827821 272597313 -1160040989 -185933457
REM
CELL 1.54180   50.00000   50.00000   50.00000   90.00000   90.00000   90.00000
LATT -1
SFAC C  
C      1  0.4857270000000  0.4609050000000  0.4035490000000 1.0
C      1  0.4581910000000  0.6039990000000  0.4612370000000 1.0
C      1  0.5001660000000  0.5782470000000  0.4986430000000 1.0
C      1  0.3974560000000  0.4974640000000  0.4586160000000 1.0
C      1  0.5127910000000  0.4117020000000  0.5666870000000 1.0
C      1  0.5936400000000  0.5388160000000  0.4511740000000 1.0
C      1  0.5570230000000  0.5040460000000  0.6130600000000 1.0
C      1  0.4993520000000  0.3964610000000  0.4300850000000 1.0
C      1  0.5869520000000  0.4929010000000  0.4316820000000 1.0
C      1  0.4455870000000  0.4912250000000  0.5329270000000 1.0
C      1  0.4417710000000  0.4603740000000  0.5762690000000 1.0
C      1  0.5319820000000  0.5553550000000  0.4323970000000 1.0
C      1  0.4859330000000  0.5288380000000  0.5027210000000 1.0
C      1  0.5371420000000  0.4655380000000  0.4652330000000 1.0
C      1  0.4822060000000  0.5009740000000  0.5073440000000 1.0
C      1  0.5370110000000  0.6103500000000  0.4801550000000 1.0
C      1  0.5583660000000  0.5909710000000  0.5185430000000 1.0
C      1  0.5484270000000  0.5291870000000  0.4363990000000 1.0
C      1  0.4060560000000  0.4379480000000  0.5069760000000 1.0
C      1  0.4498030000000  0.5891880000000  0.5101730000000 1.0
C      1  0.5238200000000  0.5050860000000  0.5445310000000 1.0
C      1  0.4573850000000  0.6176090000000  0.5080760000000 1.0
C      1  0.4566510000000  0.5259200000000  0.4232260000000 1.0
C      1  0.4256770000000  0.5049340000000  0.5721360000000 1.0
C      1  0.4921290000000  0.5104260000000  0.4562780000000 1.0
C      1  0.4499420000000  0.4984450000000  0.4158510000000 1.0
C      1  0.4745580000000  0.4575950000000  0.5094970000000 1.0
C      1  0.4161220000000  0.4464310000000  0.4601130000000 1.0
C      1  0.5747410000000  0.4318940000000  0.5436130000000 1.0
C      1  0.5169790000000  0.5866670000000  0.5861260000000 1.0
C      1  0.4955140000000  0.4389810000000  0.4996570000000 1.0
C      1  0.3903990000000  0.5361230000000  0.4877210000000 1.0
C      1  0.5612190000000  0.5074650000000  0.4793420000000 1.0
C      1  0.5504510000000  0.4894860000000  0.4561000000000 1.0
C      1  0.5300940000000  0.5036480000000  0.6045480000000 1.0
C      1  0.4158110000000  0.5595260000000  0.5203500000000 1.0
C      1  0.5676450000000  0.4738920000000  0.4186240000000 1.0
C      1  0.4263190000000  0.4417640000000  0.4338840000000 1.0
C      1  0.4298220000000  0.4858230000000  0.4306970000000 1.0
C      1  0.4333750000000  0.5333020000000  0.5712610000000 1.0
C      1  0.4868630000000  0.4889910000000  0.3859370000000 1.0
C      1  0.5068650000000  0.3923050000000  0.5221310000000 1.0
C      1  0.5603960000000  0.5575870000000  0.4807390000000 1.0
C      1  0.4892690000000  0.4911160000000  0.4791330000000 1.0
C      1  0.4824190000000  0.4128530000000  0.5656920000000 1.0
C      1  0.5998310000000  0.4829180000000  0.4546780000000 1.0
C      1  0.4218510000000  0.5712360000000  0.4739190000000 1.0
C      1  0.5519700000000  0.4145120000000  0.5346180000000 1.0
C      1  0.5847650000000  0.5448040000000  0.5394370000000 1.0
C      1  0.5600010000000  0.4108320000000  0.5072340000000 1.0
C      1  0.5782370000000  0.5229270000000  0.4321320000000 1.0
C      1  0.5368530000000  0.5020190000000  0.4326230000000 1.0
C      1  0.3912610000000  0.4647890000000  0.4951520000000 1.0
C      1  0.4426540000000  0.5190800000000  0.4678880000000 1.0
C      1  0.5268640000000  0.4571690000000  0.5448760000000 1.0
C      1  0.5607140000000  0.6074350000000  0.4958500000000 1.0
C      1  0.4185690000000  0.4270580000000  0.4814120000000 1.0
C      1  0.5940540000000  0.5663050000000  0.4457560000000 1.0
C      1  0.4557910000000  0.5450510000000  0.5862670000000 1.0
C      1  0.5976570000000  0.5654450000000  0.5230890000000 1.0
C      1  0.6175460000000  0.4507830000000  0.5188370000000 1.0
C      1  0.4872890000000  0.6026920000000  0.5467070000000 1.0
C      1  0.3819540000000  0.5092920000000  0.4815280000000 1.0
C      1  0.5497050000000  0.4532700000000  0.5143570000000 1.0
C      1  0.4769450000000  0.5636680000000  0.5739480000000 1.0
C      1  0.5243940000000  0.4390420000000  0.5703140000000 1.0
C      1  0.3819980000000  0.4915190000000  0.5061970000000 1.0
C      1  0.4880970000000  0.5598140000000  0.4070210000000 1.0
C      1  0.4649000000000  0.4593970000000  0.5388670000000 1.0
C      1  0.5268750000000  0.4002040000000  0.5434570000000 1.0
C      1  0.4765860000000  0.5335750000000  0.4036700000000 1.0
C      1  0.4694450000000  0.5727500000000  0.4902070000000 1.0
C      1  0.5692940000000  0.5216420000000  0.5943940000000 1.0
C      1  0.4645130000000  0.4553150000000  0.6233620000000 1.0
C      1  0.4259880000000  0.4399030000000  0.5298050000000 1.0
C      1  0.5787900000000  0.5350580000000  0.4769830000000 1.0
C      1  0.5604870000000  0.4547300000000  0.4838080000000 1.0
C      1  0.4370030000000  0.4886640000000  0.4607190000000 1.0
C      1  0.4587910000000  0.4860070000000  0.3918460000000 1.0
C      1  0.5939670000000  0.4713410000000  0.4803080000000 1.0
C      1  0.5338310000000  0.5077140000000  0.4948000000000 1.0
C      1  0.5162980000000  0.6151310000000  0.5238330000000 1.0
C      1  0.4709490000000  0.4251390000000  0.5401990000000 1.0
C      1  0.5567090000000  0.5464670000000  0.5476950000000 1.0
C      1  0.6175660000000  0.4616740000000  0.4938090000000 1.0
C      1  0.4721300000000  0.4325180000000  0.4091010000000 1.0
C      1  0.5507890000000  0.4396560000000  0.5827610000000 1.0
C      1  0.4431760000000  0.4158660000000  0.5326520000000 1.0
C      1  0.5209320000000  0.5268740000000  0.3916270000000 1.0
C      1  0.4346060000000  0.5872070000000  0.4534890000000 1.0
C      1  0.5795720000000  0.5066910000000  0.5692460000000 1.0
C      1  0.4998100000000  0.5428320000000  0.6060330000000 1.0
C      1  0.4774090000000  0.5570390000000  0.4555470000000 1.0
C      1  0.4868010000000  0.4728060000000  0.5542570000000 1.0
C      1  0.5120880000000  0.6065370000000  0.4953450000000 1.0
C      1  0.5427940000000  0.5034470000000  0.5215870000000 1.0
C      1  0.4232010000000  0.4586060000000  0.5528910000000 1.0
C      1  0.4980070000000  0.4674120000000  0.4309750000000 1.0
C      1  0.3980990000000  0.4683630000000  0.4662740000000 1.0
C      1  0.5621450000000  0.4441570000000  0.4254750000000 1.0
C      1  0.5082230000000  0.5623280000000  0.4542910000000 1.0
C      1  0.5061550000000  0.5726060000000  0.5301880000000 1.0
C      1  0.5671690000000  0.4797450000000  0.5573990000000 1.0
C      1  0.4186200000000  0.5163940000000  0.5046000000000 1.0
C      1  0.5042180000000  0.3843190000000  0.4728830000000 1.0
C      1  0.4946420000000  0.5476380000000  0.5525470000000 1.0
C      1  0.5431130000000  0.4001740000000  0.4875220000000 1.0
C      1  0.5201880000000  0.3852820000000  0.4964530000000 1.0
C      1  0.5205580000000  0.4479470000000  0.4395550000000 1.0
C      1  0.4188160000000  0.4886070000000  0.5470360000000 1.0
C      1  0.4685640000000  0.5277440000000  0.4518060000000 1.0
C      1  0.4792880000000  0.4559140000000  0.4510910000000 1.0
C      1  0.5545130000000  0.5651120000000  0.5697910000000 1.0
C      1  0.4300710000000  0.4678200000000  0.4961790000000 1.0
C      1  0.4806950000000  0.3700050000000  0.4645810000000 1.0
C      1  0.5332730000000  0.5838870000000  0.5634510000000 1.0
C      1  0.4726050000000  0.3868490000000  0.4426120000000 1.0
C      1  0.4518480000000  0.4275990000000  0.4316290000000 1.0
C      1  0.5183840000000  0.4806760000000  0.4856010000000 1.0
C      1  0.5453410000000  0.5127160000000  0.3915120000000 1.0
C      1  0.4240560000000  0.5687030000000  0.5461250000000 1.0
C      1  0.4410130000000  0.5716580000000  0.4285540000000 1.0
C      1  0.5116770000000  0.4072930000000  0.4555530000000 1.0
C      1  0.4423780000000  0.4876470000000  0.5881470000000 1.0
C      1  0.5274540000000  0.5498820000000  0.5228040000000 1.0
C      1  0.5004440000000  0.4625030000000  0.5817180000000 1.0
C      1  0.5507970000000  0.5470000000000  0.5935680000000 1.0
C      1  0.4647580000000  0.4990120000000  0.6036670000000 1.0
C      1  0.4038080000000  0.5499220000000  0.4668430000000 1.0
C      1  0.4217240000000  0.5812610000000  0.5008940000000 1.0
C      1  0.4625940000000  0.4123440000000  0.4562790000000 1.0
C      1  0.4557970000000  0.4562150000000  0.4888740000000 1.0
C      1  0.4585820000000  0.6243700000000  0.4809370000000 1.0
C      1  0.5243240000000  0.5307790000000  0.5917520000000 1.0
C      1  0.4178110000000  0.5292890000000  0.4511790000000 1.0
C      1  0.4714770000000  0.5733320000000  0.4299540000000 1.0
C      1  0.4956570000000  0.5711110000000  0.5959600000000 1.0
C      1  0.4004000000000  0.5041930000000  0.5266510000000 1.0
C      1  0.4206140000000  0.4628340000000  0.4169300000000 1.0
C      1  0.5360610000000  0.4822970000000  0.5602460000000 1.0
C      1  0.5931120000000  0.4372600000000  0.5212280000000 1.0
C      1  0.4971810000000  0.5120110000000  0.4025880000000 1.0
C      1  0.4668190000000  0.5876490000000  0.5598780000000 1.0
C      1  0.4946230000000  0.4975810000000  0.5374920000000 1.0
C      1  0.5422940000000  0.4099590000000  0.4599070000000 1.0
C      1  0.4905720000000  0.4172740000000  0.5186780000000 1.0
C      1  0.5974690000000  0.5211400000000  0.5506180000000 1.0
C      1  0.5249090000000  0.4801960000000  0.5877680000000 1.0
C      1  0.5497860000000  0.5806970000000  0.4365140000000 1.0
C      1  0.4607480000000  0.5425610000000  0.4934680000000 1.0
C      1  0.5860950000000  0.4291290000000  0.4702700000000 1.0
C      1  0.5001080000000  0.4221080000000  0.4154480000000 1.0
C      1  0.4729170000000  0.5274890000000  0.6022340000000 1.0
C      1  0.5848540000000  0.4214110000000  0.4985350000000 1.0
C      1  0.5352590000000  0.4378310000000  0.4158540000000 1.0
C      1  0.5549860000000  0.5621890000000  0.5118110000000 1.0
C      1  0.5155560000000  0.5344580000000  0.4976650000000 1.0
C      1  0.4488770000000  0.5809620000000  0.5394790000000 1.0
C      1  0.4375130000000  0.5378680000000  0.5153000000000 1.0
C      1  0.5811990000000  0.4920350000000  0.4982450000000 1.0
C      1  0.4786750000000  0.6230940000000  0.5270850000000 1.0
C      1  0.5054450000000  0.4988640000000  0.4319340000000 1.0
C      1  0.4803510000000  0.6005010000000  0.4415100000000 1.0
C      1  0.5065310000000  0.5927580000000  0.4535950000000 1.0
C      1  0.5715850000000  0.4501750000000  0.5665600000000 1.0
C      1  0.5180750000000  0.5540060000000  0.4050930000000 1.0
C      1  0.5632540000000  0.4812460000000  0.5230170000000 1.0
C      1  0.6133780000000  0.5058360000000  0.5334790000000 1.0
C      1  0.4897500000000  0.4308690000000  0.4664250000000 1.0
C      1  0.5702730000000  0.5759810000000  0.4580540000000 1.0
C      1  0.5187120000000  0.4588310000000  0.5067700000000 1.0
C      1  0.4657690000000  0.4735560000000  0.4685010000000 1.0
C      1  0.4417330000000  0.4091030000000  0.4815140000000 1.0
C      1  0.4387050000000  0.4942950000000  0.5044790000000 1.0
C      1  0.5165180000000  0.5595720000000  0.4812930000000 1.0
C      1  0.4695080000000  0.4193430000000  0.5906890000000 1.0
C      1  0.4652150000000  0.3770020000000  0.5143270000000 1.0
C      1  0.4877920000000  0.3711930000000  0.5285950000000 1.0
C      1  0.5644460000000  0.4272720000000  0.4508970000000 1.0
C      1  0.4479290000000  0.4384290000000  0.5941160000000 1.0
C      1  0.6029420000000  0.5100160000000  0.5079170000000 1.0
C      1  0.5859710000000  0.5917010000000  0.5225170000000 1.0
C      1  0.5495960000000  0.4864320000000  0.3997850000000 1.0
C      1  0.4315730000000  0.5428230000000  0.4263320000000 1.0
C      1  0.4505600000000  0.5215030000000  0.5399640000000 1.0
C      1  0.4794440000000  0.5224750000000  0.5459300000000 1.0
C      1  0.5381210000000  0.6007660000000  0.5391000000000 1.0
C      1  0.4460110000000  0.3971700000000  0.5091100000000 1.0
C      1  0.5990870000000  0.5366760000000  0.4985420000000 1.0
C      1  0.5201210000000  0.5310860000000  0.5613640000000 1.0
C      1  0.4890220000000  0.4474020000000  0.6070180000000 1.0
C      1  0.5324360000000  0.6033300000000  0.4441730000000 1.0
C      1  0.4762930000000  0.4811370000000  0.6219810000000 1.0
END
