TITL C-950532-2784-628 -3.11832263965326e-06 125000 -977.994830858661 0 0 155 (C1) n - 1
REM
REM in /home/bkarasulu/work/CARBON/AIRSS/Generating-Clusters/EDIP-Nigel-Params/with-SteepDescent/Only-C1/SD-CG/HFTN-CG
REM
REM
REM
REM
REM
REM ./C.cell (11c1c37f851c82e70ff6c80c92926a4b)
REM
REM compiler GCC version 9.2.1 20190827 (Red Hat 9.2.1-1)
REM options -cpp -mtune=generic -march=x86-64 -g -O0 -fpre-include=/usr/include/finclude/math-vector-fortran.h
REM seed 384084328 -1530324029 1204474134 -419883705 -1750562734 499881524 2134349949 973411550 -1469628811 -174008526 -589904999 1141719729 1476327012 608534998 1568892321 1876578460 1729669731 438193991 787970963 1943006555 -316139816 -710269776 1214969913 1590020460 -2099195008 1282337800 -2011825687 -1098050671 294526959 254671349 1343899799 -470418032 -782465183
REM
CELL 1.54180   50.00000   50.00000   50.00000   90.00000   90.00000   90.00000
LATT -1
SFAC C  
C      1  0.4490510000000  0.3945840000000  0.5034040000000 1.0
C      1  0.4144010000000  0.4686660000000  0.5621970000000 1.0
C      1  0.5329400000000  0.5787400000000  0.5214900000000 1.0
C      1  0.4297990000000  0.5452760000000  0.4471100000000 1.0
C      1  0.5947380000000  0.4891410000000  0.4760930000000 1.0
C      1  0.5849240000000  0.4399330000000  0.4870340000000 1.0
C      1  0.5116350000000  0.5731000000000  0.5780800000000 1.0
C      1  0.4731260000000  0.4870510000000  0.6200690000000 1.0
C      1  0.5564370000000  0.4704200000000  0.4393740000000 1.0
C      1  0.5570740000000  0.4340230000000  0.4771260000000 1.0
C      1  0.5146660000000  0.4953810000000  0.4359920000000 1.0
C      1  0.6110210000000  0.5313520000000  0.4960360000000 1.0
C      1  0.5468600000000  0.4799370000000  0.4731800000000 1.0
C      1  0.5180170000000  0.4815210000000  0.4638810000000 1.0
C      1  0.5347220000000  0.5585810000000  0.5689740000000 1.0
C      1  0.5301070000000  0.5874400000000  0.4529490000000 1.0
C      1  0.4072190000000  0.5149880000000  0.5519710000000 1.0
C      1  0.5521600000000  0.5057900000000  0.4892740000000 1.0
C      1  0.3990730000000  0.4795130000000  0.4675770000000 1.0
C      1  0.4530470000000  0.5287910000000  0.4933310000000 1.0
C      1  0.6018220000000  0.5676610000000  0.4661410000000 1.0
C      1  0.4438110000000  0.5018410000000  0.5843660000000 1.0
C      1  0.4783460000000  0.4325190000000  0.4995590000000 1.0
C      1  0.5273580000000  0.5211210000000  0.3944040000000 1.0
C      1  0.5140270000000  0.4480940000000  0.4965860000000 1.0
C      1  0.4458270000000  0.5525250000000  0.5679460000000 1.0
C      1  0.5481650000000  0.5698360000000  0.5463250000000 1.0
C      1  0.4971410000000  0.5987080000000  0.4891160000000 1.0
C      1  0.5813200000000  0.5574440000000  0.4202250000000 1.0
C      1  0.5312810000000  0.4788600000000  0.5338870000000 1.0
C      1  0.4256130000000  0.5752710000000  0.5146150000000 1.0
C      1  0.5041710000000  0.5008510000000  0.5725490000000 1.0
C      1  0.4104970000000  0.4550170000000  0.5129250000000 1.0
C      1  0.4541370000000  0.5734340000000  0.5190240000000 1.0
C      1  0.3976120000000  0.4991530000000  0.5289440000000 1.0
C      1  0.4645290000000  0.4574130000000  0.5168540000000 1.0
C      1  0.5191810000000  0.4361600000000  0.4466270000000 1.0
C      1  0.5663160000000  0.5249800000000  0.4521020000000 1.0
C      1  0.4831190000000  0.5017610000000  0.4137330000000 1.0
C      1  0.5076820000000  0.4441940000000  0.4210690000000 1.0
C      1  0.4221890000000  0.5295200000000  0.4960460000000 1.0
C      1  0.4899440000000  0.5822110000000  0.5590580000000 1.0
C      1  0.4763830000000  0.4102450000000  0.4522610000000 1.0
C      1  0.5602230000000  0.4758000000000  0.5271670000000 1.0
C      1  0.4654770000000  0.4817730000000  0.5001480000000 1.0
C      1  0.5494500000000  0.5416990000000  0.5855770000000 1.0
C      1  0.4192220000000  0.5409370000000  0.5461360000000 1.0
C      1  0.4183410000000  0.4363270000000  0.4519850000000 1.0
C      1  0.4875100000000  0.4623280000000  0.5358360000000 1.0
C      1  0.4628250000000  0.4267310000000  0.4273770000000 1.0
C      1  0.5116310000000  0.4870340000000  0.5982770000000 1.0
C      1  0.4154750000000  0.5023570000000  0.5060660000000 1.0
C      1  0.5263200000000  0.3955450000000  0.5335360000000 1.0
C      1  0.5142370000000  0.5366170000000  0.5035400000000 1.0
C      1  0.5156240000000  0.5451160000000  0.5316070000000 1.0
C      1  0.5499310000000  0.4403710000000  0.4478930000000 1.0
C      1  0.4658500000000  0.6019730000000  0.5204780000000 1.0
C      1  0.5481710000000  0.4073490000000  0.5185610000000 1.0
C      1  0.5350520000000  0.4804340000000  0.4186240000000 1.0
C      1  0.4681410000000  0.4159080000000  0.5412740000000 1.0
C      1  0.4723320000000  0.4063930000000  0.5136740000000 1.0
C      1  0.5990560000000  0.5562740000000  0.4929480000000 1.0
C      1  0.5469140000000  0.4990000000000  0.3979410000000 1.0
C      1  0.4354030000000  0.4314900000000  0.4755890000000 1.0
C      1  0.4204480000000  0.4787600000000  0.4880780000000 1.0
C      1  0.4548480000000  0.4801000000000  0.6004140000000 1.0
C      1  0.4655010000000  0.5250790000000  0.4174290000000 1.0
C      1  0.4925750000000  0.5568820000000  0.5948420000000 1.0
C      1  0.4349700000000  0.4696320000000  0.5284950000000 1.0
C      1  0.5122140000000  0.5524570000000  0.4788860000000 1.0
C      1  0.5812710000000  0.4874770000000  0.4299280000000 1.0
C      1  0.4421550000000  0.4297080000000  0.5434010000000 1.0
C      1  0.5026390000000  0.4325740000000  0.5741510000000 1.0
C      1  0.5121810000000  0.4188370000000  0.5289120000000 1.0
C      1  0.5253720000000  0.5098520000000  0.5030540000000 1.0
C      1  0.5682570000000  0.4721200000000  0.5580480000000 1.0
C      1  0.4873500000000  0.5706790000000  0.4806340000000 1.0
C      1  0.5134840000000  0.6066840000000  0.4660110000000 1.0
C      1  0.4612010000000  0.5536150000000  0.5414950000000 1.0
C      1  0.5291780000000  0.4654190000000  0.5968880000000 1.0
C      1  0.6065950000000  0.5039070000000  0.4976770000000 1.0
C      1  0.4990660000000  0.4931670000000  0.6223020000000 1.0
C      1  0.4105550000000  0.5319630000000  0.4665990000000 1.0
C      1  0.4274970000000  0.4991560000000  0.4328680000000 1.0
C      1  0.5032690000000  0.5356340000000  0.4563850000000 1.0
C      1  0.4572690000000  0.4541150000000  0.5872710000000 1.0
C      1  0.5607880000000  0.4315650000000  0.5315100000000 1.0
C      1  0.5056850000000  0.4550480000000  0.4667470000000 1.0
C      1  0.4765770000000  0.5502260000000  0.4128070000000 1.0
C      1  0.4867930000000  0.5371270000000  0.5463640000000 1.0
C      1  0.4380210000000  0.4493240000000  0.5653310000000 1.0
C      1  0.4735710000000  0.5737580000000  0.4541710000000 1.0
C      1  0.4904570000000  0.6011420000000  0.5365570000000 1.0
C      1  0.5724830000000  0.5081740000000  0.4090840000000 1.0
C      1  0.5975210000000  0.4613020000000  0.4741680000000 1.0
C      1  0.4046050000000  0.5041200000000  0.4516630000000 1.0
C      1  0.5190210000000  0.5704320000000  0.4302720000000 1.0
C      1  0.5292240000000  0.4456830000000  0.5770630000000 1.0
C      1  0.5215810000000  0.3993240000000  0.4758740000000 1.0
C      1  0.4627800000000  0.5074430000000  0.5131430000000 1.0
C      1  0.4866460000000  0.5311350000000  0.5783060000000 1.0
C      1  0.4462250000000  0.5669210000000  0.4539390000000 1.0
C      1  0.5020500000000  0.5086470000000  0.3932120000000 1.0
C      1  0.5308570000000  0.5001270000000  0.5554590000000 1.0
C      1  0.5536240000000  0.4448960000000  0.5582050000000 1.0
C      1  0.4724620000000  0.6135970000000  0.4949090000000 1.0
C      1  0.5802260000000  0.4455430000000  0.5151390000000 1.0
C      1  0.5671040000000  0.5216160000000  0.5764670000000 1.0
C      1  0.4752390000000  0.4574690000000  0.4592670000000 1.0
C      1  0.3961210000000  0.4700690000000  0.5365120000000 1.0
C      1  0.5541840000000  0.4939740000000  0.5740500000000 1.0
C      1  0.4797270000000  0.4519610000000  0.4277140000000 1.0
C      1  0.4281950000000  0.4125450000000  0.4971860000000 1.0
C      1  0.4519550000000  0.4819060000000  0.4740700000000 1.0
C      1  0.5795860000000  0.5300060000000  0.5510500000000 1.0
C      1  0.4892870000000  0.5683860000000  0.4299370000000 1.0
C      1  0.5661250000000  0.5520610000000  0.4649960000000 1.0
C      1  0.5337550000000  0.5389930000000  0.4190430000000 1.0
C      1  0.4677970000000  0.4757170000000  0.4127420000000 1.0
C      1  0.5230670000000  0.4590110000000  0.4041630000000 1.0
C      1  0.5451960000000  0.4084960000000  0.4882370000000 1.0
C      1  0.5234800000000  0.5228930000000  0.4414990000000 1.0
C      1  0.4676080000000  0.5737070000000  0.5799750000000 1.0
C      1  0.4879460000000  0.5138740000000  0.4672070000000 1.0
C      1  0.5881960000000  0.5046730000000  0.4525970000000 1.0
C      1  0.4564500000000  0.5282500000000  0.5835970000000 1.0
C      1  0.5087550000000  0.4713440000000  0.5159440000000 1.0
C      1  0.5115990000000  0.5987510000000  0.5162610000000 1.0
C      1  0.4458890000000  0.5214020000000  0.4394100000000 1.0
C      1  0.5704740000000  0.5540710000000  0.5364680000000 1.0
C      1  0.4801950000000  0.5104240000000  0.5354680000000 1.0
C      1  0.5440960000000  0.4559240000000  0.4923550000000 1.0
C      1  0.5736660000000  0.5596760000000  0.5077240000000 1.0
C      1  0.5812730000000  0.5699270000000  0.4455000000000 1.0
C      1  0.5037090000000  0.4958380000000  0.4859970000000 1.0
C      1  0.5394340000000  0.5674190000000  0.4731780000000 1.0
C      1  0.4588280000000  0.5124990000000  0.4666320000000 1.0
C      1  0.6000350000000  0.5136910000000  0.5416860000000 1.0
C      1  0.4189190000000  0.4963800000000  0.5712010000000 1.0
C      1  0.4152080000000  0.5497780000000  0.5182490000000 1.0
C      1  0.5666940000000  0.5047270000000  0.5173490000000 1.0
C      1  0.5517130000000  0.5770730000000  0.4987710000000 1.0
C      1  0.4930670000000  0.4322370000000  0.5463530000000 1.0
C      1  0.4660180000000  0.5573220000000  0.4974700000000 1.0
C      1  0.6035420000000  0.4938520000000  0.5233770000000 1.0
C      1  0.4359620000000  0.4434980000000  0.4295370000000 1.0
C      1  0.5641840000000  0.5338820000000  0.4236970000000 1.0
C      1  0.5397380000000  0.5224120000000  0.5362860000000 1.0
C      1  0.3974980000000  0.4550910000000  0.4539270000000 1.0
C      1  0.4215160000000  0.4280710000000  0.5212410000000 1.0
C      1  0.4845190000000  0.4875150000000  0.5529150000000 1.0
C      1  0.4654110000000  0.4315600000000  0.4716550000000 1.0
C      1  0.5074460000000  0.4093310000000  0.4536740000000 1.0
C      1  0.4809920000000  0.4393070000000  0.5907710000000 1.0
C      1  0.4408400000000  0.4735340000000  0.4251670000000 1.0
END
