TITL C-950535-5962-645 1.60018521654178e-06 125000 -236.108642408534 0 0 40 (C1) n - 1
REM
REM in /home/bkarasulu/work/CARBON/AIRSS/Generating-Clusters/EDIP-Nigel-Params/with-SteepDescent/Only-C1/SD-CG/HFTN-CG
REM
REM
REM
REM
REM
REM ./C.cell (11c1c37f851c82e70ff6c80c92926a4b)
REM
REM compiler GCC version 9.2.1 20190827 (Red Hat 9.2.1-1)
REM options -cpp -mtune=generic -march=x86-64 -g -O0 -fpre-include=/usr/include/finclude/math-vector-fortran.h
REM seed -996034797 1995205194 764147418 1449776156 1610733303 904511891 1632201106 2040144727 -567349852 -144147995 -1898565387 2050752706 -1525770620 -182475184 -1191812112 -1672711872 612817449 1745613683 -879977413 1990975090 248703838 -1480276832 -902648375 1897573458 -71647401 -2074982414 961269386 -1965761612 -680399919 -63792793 1104120014 828336538 -152806647
REM
CELL 1.54180   50.00000   50.00000   50.00000   90.00000   90.00000   90.00000
LATT -1
SFAC C  
C      1  0.4831370000000  0.4333740000000  0.5379420000000 1.0
C      1  0.5089620000000  0.4391820000000  0.5432650000000 1.0
C      1  0.5269580000000  0.4932980000000  0.4950100000000 1.0
C      1  0.4467630000000  0.5014750000000  0.4994000000000 1.0
C      1  0.5248170000000  0.4552450000000  0.5270810000000 1.0
C      1  0.5796830000000  0.5325290000000  0.5146630000000 1.0
C      1  0.4982040000000  0.5027820000000  0.5662680000000 1.0
C      1  0.4744690000000  0.5188650000000  0.4524270000000 1.0
C      1  0.5131690000000  0.4668290000000  0.4856790000000 1.0
C      1  0.4768270000000  0.4897290000000  0.4968360000000 1.0
C      1  0.4609690000000  0.4624500000000  0.4845700000000 1.0
C      1  0.5215390000000  0.5205190000000  0.4690110000000 1.0
C      1  0.4699440000000  0.5294860000000  0.5360210000000 1.0
C      1  0.4951890000000  0.5440010000000  0.5293600000000 1.0
C      1  0.4647040000000  0.4911060000000  0.4453540000000 1.0
C      1  0.5186490000000  0.5314980000000  0.5394410000000 1.0
C      1  0.4469600000000  0.4811600000000  0.4663250000000 1.0
C      1  0.5565380000000  0.4919510000000  0.4894430000000 1.0
C      1  0.4765450000000  0.5025420000000  0.5474140000000 1.0
C      1  0.5381510000000  0.4727930000000  0.4493060000000 1.0
C      1  0.4639870000000  0.5465920000000  0.4914370000000 1.0
C      1  0.5263570000000  0.5485840000000  0.4668840000000 1.0
C      1  0.4852850000000  0.4832400000000  0.5257880000000 1.0
C      1  0.4512730000000  0.5292800000000  0.5117540000000 1.0
C      1  0.5595700000000  0.4792470000000  0.4646900000000 1.0
C      1  0.5516030000000  0.5378410000000  0.5104450000000 1.0
C      1  0.4701360000000  0.4574990000000  0.5319090000000 1.0
C      1  0.5252020000000  0.4457540000000  0.5004980000000 1.0
C      1  0.4950760000000  0.5101150000000  0.4709650000000 1.0
C      1  0.5676880000000  0.5188580000000  0.4921450000000 1.0
C      1  0.5398690000000  0.5624960000000  0.5004910000000 1.0
C      1  0.5122780000000  0.4642590000000  0.4562670000000 1.0
C      1  0.4575850000000  0.5375610000000  0.4652110000000 1.0
C      1  0.5206710000000  0.5048930000000  0.5489090000000 1.0
C      1  0.4325270000000  0.4827030000000  0.5164360000000 1.0
C      1  0.4481380000000  0.4589330000000  0.5118520000000 1.0
C      1  0.5164610000000  0.4843520000000  0.5264210000000 1.0
C      1  0.4921860000000  0.5477790000000  0.5008700000000 1.0
C      1  0.4887910000000  0.4753350000000  0.4444250000000 1.0
C      1  0.5131400000000  0.5638630000000  0.4877860000000 1.0
END
