TITL C-950524-1808-579 -1.5872401749618e-06 125000 -1114.19898296233 0 0 178 (C1) n - 1
REM
REM in /home/bkarasulu/work/CARBON/AIRSS/Generating-Clusters/EDIP-Nigel-Params/with-SteepDescent/Only-C1/SD-CG/HFTN-CG
REM
REM
REM
REM
REM
REM ./C.cell (11c1c37f851c82e70ff6c80c92926a4b)
REM
REM compiler GCC version 9.2.1 20190827 (Red Hat 9.2.1-1)
REM options -cpp -mtune=generic -march=x86-64 -g -O0 -fpre-include=/usr/include/finclude/math-vector-fortran.h
REM seed -794976257 1887416144 -2125081655 -1484799262 -1294963726 1775928827 -1281038452 1670447800 383287641 -1846544738 -1096025870 1891754890 1723575831 -868080351 461946825 -152424075 921209546 1075253253 531886084 -1441772369 1013255825 -224753115 -479134535 312174738 895848014 1482833456 1156074939 798939046 -312733923 698139366 -573464323 -1938289854 1999996030
REM
CELL 1.54180   50.00000   50.00000   50.00000   90.00000   90.00000   90.00000
LATT -1
SFAC C  
C      1  0.4598300000000  0.4990360000000  0.3983220000000 1.0
C      1  0.5747500000000  0.4809940000000  0.5003040000000 1.0
C      1  0.4907810000000  0.4704890000000  0.5554250000000 1.0
C      1  0.6199780000000  0.4989110000000  0.5262770000000 1.0
C      1  0.5155240000000  0.4253370000000  0.4763530000000 1.0
C      1  0.4603500000000  0.4355120000000  0.5430490000000 1.0
C      1  0.5002550000000  0.5556460000000  0.5764420000000 1.0
C      1  0.4517780000000  0.4539250000000  0.4866190000000 1.0
C      1  0.4922910000000  0.5560900000000  0.5174940000000 1.0
C      1  0.4248800000000  0.4402410000000  0.4889200000000 1.0
C      1  0.6056890000000  0.4655080000000  0.5518520000000 1.0
C      1  0.5433430000000  0.5521790000000  0.4490670000000 1.0
C      1  0.4227550000000  0.5189950000000  0.4411580000000 1.0
C      1  0.4784510000000  0.4061060000000  0.5598110000000 1.0
C      1  0.5493120000000  0.5844940000000  0.5834380000000 1.0
C      1  0.4775040000000  0.4490840000000  0.4470820000000 1.0
C      1  0.4152270000000  0.5590630000000  0.5544730000000 1.0
C      1  0.6038640000000  0.5275810000000  0.4842720000000 1.0
C      1  0.4204570000000  0.5705770000000  0.4866120000000 1.0
C      1  0.5255540000000  0.4938070000000  0.4362010000000 1.0
C      1  0.5521850000000  0.5582020000000  0.5733050000000 1.0
C      1  0.5126300000000  0.5184040000000  0.6060850000000 1.0
C      1  0.4418280000000  0.5786460000000  0.5068220000000 1.0
C      1  0.4444600000000  0.4557070000000  0.4133070000000 1.0
C      1  0.4092410000000  0.5189420000000  0.5282660000000 1.0
C      1  0.5315750000000  0.5222440000000  0.4867390000000 1.0
C      1  0.5583440000000  0.4827080000000  0.3942440000000 1.0
C      1  0.5289340000000  0.4043090000000  0.4397200000000 1.0
C      1  0.4066830000000  0.4517150000000  0.4683670000000 1.0
C      1  0.4503150000000  0.4495970000000  0.5845260000000 1.0
C      1  0.5034600000000  0.4932550000000  0.4558510000000 1.0
C      1  0.5210940000000  0.3901620000000  0.5011540000000 1.0
C      1  0.4568620000000  0.5111720000000  0.5314740000000 1.0
C      1  0.4673840000000  0.5330580000000  0.6025460000000 1.0
C      1  0.4354350000000  0.4836260000000  0.4067840000000 1.0
C      1  0.4767680000000  0.4048740000000  0.5119370000000 1.0
C      1  0.5275900000000  0.4879320000000  0.5287280000000 1.0
C      1  0.3881790000000  0.5105720000000  0.5085200000000 1.0
C      1  0.5975520000000  0.4628790000000  0.5020030000000 1.0
C      1  0.4778060000000  0.6035160000000  0.4702900000000 1.0
C      1  0.5215120000000  0.5637970000000  0.5108260000000 1.0
C      1  0.6019450000000  0.5412680000000  0.5111350000000 1.0
C      1  0.4237900000000  0.4926640000000  0.4317310000000 1.0
C      1  0.5670990000000  0.5581830000000  0.4914150000000 1.0
C      1  0.5997870000000  0.4594580000000  0.4537540000000 1.0
C      1  0.4292360000000  0.4901010000000  0.4980780000000 1.0
C      1  0.5592250000000  0.5868400000000  0.4925660000000 1.0
C      1  0.4225960000000  0.5502300000000  0.5261880000000 1.0
C      1  0.5520030000000  0.4806080000000  0.4823950000000 1.0
C      1  0.5181580000000  0.4631380000000  0.5452690000000 1.0
C      1  0.4296220000000  0.4108470000000  0.4788820000000 1.0
C      1  0.5522580000000  0.4572240000000  0.4642110000000 1.0
C      1  0.6088850000000  0.5236400000000  0.5333750000000 1.0
C      1  0.5269880000000  0.5991330000000  0.5730350000000 1.0
C      1  0.4527870000000  0.5306260000000  0.4920620000000 1.0
C      1  0.5307780000000  0.4987960000000  0.5971990000000 1.0
C      1  0.6110050000000  0.4714860000000  0.4763070000000 1.0
C      1  0.5467560000000  0.4441330000000  0.5133220000000 1.0
C      1  0.4744410000000  0.4570020000000  0.4180970000000 1.0
C      1  0.3886480000000  0.4713110000000  0.4797370000000 1.0
C      1  0.4710890000000  0.5704660000000  0.4988450000000 1.0
C      1  0.4301380000000  0.4960090000000  0.5267510000000 1.0
C      1  0.5223960000000  0.4260230000000  0.5703960000000 1.0
C      1  0.5630390000000  0.4192270000000  0.5088200000000 1.0
C      1  0.5251650000000  0.4806170000000  0.4997340000000 1.0
C      1  0.5023010000000  0.4251010000000  0.5043050000000 1.0
C      1  0.4781790000000  0.4458190000000  0.5885000000000 1.0
C      1  0.4171130000000  0.5424330000000  0.4835400000000 1.0
C      1  0.4079750000000  0.5218570000000  0.4661150000000 1.0
C      1  0.4685460000000  0.5516760000000  0.4758220000000 1.0
C      1  0.4725430000000  0.4608250000000  0.5334010000000 1.0
C      1  0.5903360000000  0.5253840000000  0.5569670000000 1.0
C      1  0.5603490000000  0.4089990000000  0.5368320000000 1.0
C      1  0.4572200000000  0.5344370000000  0.5765290000000 1.0
C      1  0.4199610000000  0.3922730000000  0.4983440000000 1.0
C      1  0.4388270000000  0.4465550000000  0.5590570000000 1.0
C      1  0.5134440000000  0.5963020000000  0.4441760000000 1.0
C      1  0.5738110000000  0.4552010000000  0.4445990000000 1.0
C      1  0.5439290000000  0.5521290000000  0.4201240000000 1.0
C      1  0.4441690000000  0.5366000000000  0.4323100000000 1.0
C      1  0.5885660000000  0.4340230000000  0.5025520000000 1.0
C      1  0.5142090000000  0.5192760000000  0.3971210000000 1.0
C      1  0.5913660000000  0.5373220000000  0.4597680000000 1.0
C      1  0.4544860000000  0.4994770000000  0.4861550000000 1.0
C      1  0.5515420000000  0.5303070000000  0.5323850000000 1.0
C      1  0.5585670000000  0.6050570000000  0.5364250000000 1.0
C      1  0.4772730000000  0.4180260000000  0.4512630000000 1.0
C      1  0.4724430000000  0.3859740000000  0.4885530000000 1.0
C      1  0.4197760000000  0.4648890000000  0.5429540000000 1.0
C      1  0.4868850000000  0.3907880000000  0.5364900000000 1.0
C      1  0.5236740000000  0.4330200000000  0.4295800000000 1.0
C      1  0.4530220000000  0.5611630000000  0.4498760000000 1.0
C      1  0.5852430000000  0.5106380000000  0.4474300000000 1.0
C      1  0.5213880000000  0.4368640000000  0.5260870000000 1.0
C      1  0.5717260000000  0.5003330000000  0.5618400000000 1.0
C      1  0.4773490000000  0.5886390000000  0.5582960000000 1.0
C      1  0.4538250000000  0.4918930000000  0.4561030000000 1.0
C      1  0.4727180000000  0.6135090000000  0.5464540000000 1.0
C      1  0.4900220000000  0.5002540000000  0.5583130000000 1.0
C      1  0.4499070000000  0.6026370000000  0.4775260000000 1.0
C      1  0.5007190000000  0.4646710000000  0.4621930000000 1.0
C      1  0.4999080000000  0.4669520000000  0.4914840000000 1.0
C      1  0.5313950000000  0.4708000000000  0.3934420000000 1.0
C      1  0.4820320000000  0.4858230000000  0.4140640000000 1.0
C      1  0.4510340000000  0.4194960000000  0.5203640000000 1.0
C      1  0.5411220000000  0.5292300000000  0.4041000000000 1.0
C      1  0.4782260000000  0.5589060000000  0.5474800000000 1.0
C      1  0.4082770000000  0.4473770000000  0.5187110000000 1.0
C      1  0.4313520000000  0.5469920000000  0.5756710000000 1.0
C      1  0.5368570000000  0.5236950000000  0.4580710000000 1.0
C      1  0.5312240000000  0.4133760000000  0.5434000000000 1.0
C      1  0.5624170000000  0.4565240000000  0.5336560000000 1.0
C      1  0.3822570000000  0.4910270000000  0.5525520000000 1.0
C      1  0.5070440000000  0.5106470000000  0.5357660000000 1.0
C      1  0.5629640000000  0.4540450000000  0.5617250000000 1.0
C      1  0.4902970000000  0.5236590000000  0.5133980000000 1.0
C      1  0.4517290000000  0.5405120000000  0.5251270000000 1.0
C      1  0.4890950000000  0.5373680000000  0.4014130000000 1.0
C      1  0.5003050000000  0.3819400000000  0.4792420000000 1.0
C      1  0.4528340000000  0.4611740000000  0.4581340000000 1.0
C      1  0.4867390000000  0.5321120000000  0.4400980000000 1.0
C      1  0.5026060000000  0.5190370000000  0.4849880000000 1.0
C      1  0.5336520000000  0.4545690000000  0.5708610000000 1.0
C      1  0.4888240000000  0.6320070000000  0.5354170000000 1.0
C      1  0.5674910000000  0.4528520000000  0.4165230000000 1.0
C      1  0.5556610000000  0.5001200000000  0.5348660000000 1.0
C      1  0.6141690000000  0.4717770000000  0.5260990000000 1.0
C      1  0.4248140000000  0.4062070000000  0.5223460000000 1.0
C      1  0.5843510000000  0.4732030000000  0.5683210000000 1.0
C      1  0.5544160000000  0.5056790000000  0.5842750000000 1.0
C      1  0.3749740000000  0.4881780000000  0.5230450000000 1.0
C      1  0.4927360000000  0.4694010000000  0.5939950000000 1.0
C      1  0.5618000000000  0.5086070000000  0.4059990000000 1.0
C      1  0.5159680000000  0.3900750000000  0.5318030000000 1.0
C      1  0.4737090000000  0.5738490000000  0.4321350000000 1.0
C      1  0.5697910000000  0.5562680000000  0.4623360000000 1.0
C      1  0.5000130000000  0.6218680000000  0.4777770000000 1.0
C      1  0.5122670000000  0.6187640000000  0.5273460000000 1.0
C      1  0.5168330000000  0.6117500000000  0.4994270000000 1.0
C      1  0.5489910000000  0.4016210000000  0.4606790000000 1.0
C      1  0.5261680000000  0.5474170000000  0.5667060000000 1.0
C      1  0.4995590000000  0.5868410000000  0.5789470000000 1.0
C      1  0.5920820000000  0.5683440000000  0.5191210000000 1.0
C      1  0.4929860000000  0.4276030000000  0.5709890000000 1.0
C      1  0.3938300000000  0.5421320000000  0.5661450000000 1.0
C      1  0.3828920000000  0.4623720000000  0.5082890000000 1.0
C      1  0.3983400000000  0.5159380000000  0.5551640000000 1.0
C      1  0.5212380000000  0.4718400000000  0.5926800000000 1.0
C      1  0.4958170000000  0.5432760000000  0.4669600000000 1.0
C      1  0.3967690000000  0.4685330000000  0.5602480000000 1.0
C      1  0.5290350000000  0.5849250000000  0.4912590000000 1.0
C      1  0.5485360000000  0.3993020000000  0.4894020000000 1.0
C      1  0.4028680000000  0.4981910000000  0.4854290000000 1.0
C      1  0.5860480000000  0.5134510000000  0.4187930000000 1.0
C      1  0.5192140000000  0.6216750000000  0.4561060000000 1.0
C      1  0.4842400000000  0.5977100000000  0.4430180000000 1.0
C      1  0.4627580000000  0.5106940000000  0.5601250000000 1.0
C      1  0.5324730000000  0.6087960000000  0.5458100000000 1.0
C      1  0.6119860000000  0.5006030000000  0.4738300000000 1.0
C      1  0.5407880000000  0.4442400000000  0.4071700000000 1.0
C      1  0.5251630000000  0.4469830000000  0.4568920000000 1.0
C      1  0.5430700000000  0.5429460000000  0.5047140000000 1.0
C      1  0.5747630000000  0.5931570000000  0.5168110000000 1.0
C      1  0.4342180000000  0.5823200000000  0.4632590000000 1.0
C      1  0.5702920000000  0.5474650000000  0.5513610000000 1.0
C      1  0.4594140000000  0.5276500000000  0.4065360000000 1.0
C      1  0.4794450000000  0.5011010000000  0.4410350000000 1.0
C      1  0.5129440000000  0.4912870000000  0.4080290000000 1.0
C      1  0.4942260000000  0.5390300000000  0.6007160000000 1.0
C      1  0.4315890000000  0.4500580000000  0.4398200000000 1.0
C      1  0.4942750000000  0.5612910000000  0.4165810000000 1.0
C      1  0.4576350000000  0.4035240000000  0.4691630000000 1.0
C      1  0.5570070000000  0.5007680000000  0.4570630000000 1.0
C      1  0.5202580000000  0.5716330000000  0.4622620000000 1.0
C      1  0.4025740000000  0.4214690000000  0.5303630000000 1.0
C      1  0.4724810000000  0.4697920000000  0.5037880000000 1.0
C      1  0.5035490000000  0.4044700000000  0.4590190000000 1.0
C      1  0.5256430000000  0.5314090000000  0.5443050000000 1.0
END
