TITL C-951345-2650-311 -2.32060493800235e-07 125000 -221.968859896691 0 0 37 (C1) n - 1
REM
REM in /home/bkarasulu/work/CARBON/AIRSS/Generating-Clusters/EDIP-Nigel-Params/with-SteepDescent/Only-C1/SD-CG/HFTN-CG
REM
REM
REM
REM
REM
REM ./C.cell (11c1c37f851c82e70ff6c80c92926a4b)
REM
REM compiler GCC version 9.2.1 20190827 (Red Hat 9.2.1-1)
REM options -cpp -mtune=generic -march=x86-64 -g -O0 -fpre-include=/usr/include/finclude/math-vector-fortran.h
REM seed -1915858513 -1855930869 1958365488 -1453262689 -795549408 -1332849741 -809973824 1842688355 -46994351 1156040885 816162740 -866245763 -2124747561 1629940368 851310065 1668546763 -1598580737 -98591621 1467233866 158237656 2026281720 -465760479 398229838 1304650047 -1933075281 -111107464 -277397027 -1163891625 -290354121 1154250180 1718087557 -2039083573 -1828509875
REM
CELL 1.54180   50.00000   50.00000   50.00000   90.00000   90.00000   90.00000
LATT -1
SFAC C  
C      1  0.4575530000000  0.5285130000000  0.5123990000000 1.0
C      1  0.4957870000000  0.4947760000000  0.4969090000000 1.0
C      1  0.4640070000000  0.5153030000000  0.4547910000000 1.0
C      1  0.4606370000000  0.5358560000000  0.5400030000000 1.0
C      1  0.5070790000000  0.5268570000000  0.5353830000000 1.0
C      1  0.4876600000000  0.5297600000000  0.4569200000000 1.0
C      1  0.4979800000000  0.5011540000000  0.5476560000000 1.0
C      1  0.4453480000000  0.4800770000000  0.5184900000000 1.0
C      1  0.5081370000000  0.5217760000000  0.5055060000000 1.0
C      1  0.4736510000000  0.4417530000000  0.5358850000000 1.0
C      1  0.5112420000000  0.4876870000000  0.4427670000000 1.0
C      1  0.4692930000000  0.4680770000000  0.4624690000000 1.0
C      1  0.5381580000000  0.4713860000000  0.5091000000000 1.0
C      1  0.4689470000000  0.5521580000000  0.4987740000000 1.0
C      1  0.5004330000000  0.4469610000000  0.4936290000000 1.0
C      1  0.5365930000000  0.5302220000000  0.5419250000000 1.0
C      1  0.5590940000000  0.5028990000000  0.4608150000000 1.0
C      1  0.4518170000000  0.5014830000000  0.5009400000000 1.0
C      1  0.4849930000000  0.4856790000000  0.5259870000000 1.0
C      1  0.5373820000000  0.5202270000000  0.4690350000000 1.0
C      1  0.5354240000000  0.5261220000000  0.4977470000000 1.0
C      1  0.5235380000000  0.4645050000000  0.5326800000000 1.0
C      1  0.4994910000000  0.4471550000000  0.5235060000000 1.0
C      1  0.5107850000000  0.5119970000000  0.4586970000000 1.0
C      1  0.5439630000000  0.5054120000000  0.5535280000000 1.0
C      1  0.4880030000000  0.4718310000000  0.4417690000000 1.0
C      1  0.4679650000000  0.4949870000000  0.4759920000000 1.0
C      1  0.4761780000000  0.4473560000000  0.4796380000000 1.0
C      1  0.5357080000000  0.4746500000000  0.4494560000000 1.0
C      1  0.4626300000000  0.4673860000000  0.5370310000000 1.0
C      1  0.4802120000000  0.5659610000000  0.5210920000000 1.0
C      1  0.5507940000000  0.5381240000000  0.5184470000000 1.0
C      1  0.5596250000000  0.4848900000000  0.4397870000000 1.0
C      1  0.4866190000000  0.5484680000000  0.5429370000000 1.0
C      1  0.4838420000000  0.5504110000000  0.4750460000000 1.0
C      1  0.5225120000000  0.4863910000000  0.5536600000000 1.0
C      1  0.5169200000000  0.4717500000000  0.4896020000000 1.0
END
