TITL C-950523-3027-186 1.02757359068737e-06 125000 -1245.49561209896 0 0 198 (C1) n - 1
REM
REM in /home/bkarasulu/work/CARBON/AIRSS/Generating-Clusters/EDIP-Nigel-Params/with-SteepDescent/Only-C1/SD-CG/HFTN-CG
REM
REM
REM
REM
REM
REM ./C.cell (11c1c37f851c82e70ff6c80c92926a4b)
REM
REM compiler GCC version 9.2.1 20190827 (Red Hat 9.2.1-1)
REM options -cpp -mtune=generic -march=x86-64 -g -O0 -fpre-include=/usr/include/finclude/math-vector-fortran.h
REM seed 515952959 -1906448502 -1788901138 -1367208132 1453428041 163287181 -661777376 1234763322 -359649546 1568911724 77534738 2014095491 -1873719288 -1223541285 -502653743 -1723669694 2042022190 1359870507 -1185510196 847094370 279384421 132808334 692244589 749084911 -1107427109 1330815806 -594856885 -958249866 -1084843119 -370606097 -1557136110 -2060662565 -1409669124
REM
CELL 1.54180   50.00000   50.00000   50.00000   90.00000   90.00000   90.00000
LATT -1
SFAC C  
C      1  0.4185420000000  0.5116970000000  0.5825210000000 1.0
C      1  0.6307360000000  0.4707870000000  0.5221930000000 1.0
C      1  0.5518010000000  0.4108300000000  0.5644730000000 1.0
C      1  0.5017350000000  0.4728520000000  0.5185400000000 1.0
C      1  0.4654510000000  0.5476750000000  0.4326840000000 1.0
C      1  0.4082370000000  0.5811640000000  0.4752180000000 1.0
C      1  0.3926190000000  0.4746400000000  0.4575980000000 1.0
C      1  0.5562140000000  0.5643830000000  0.5063770000000 1.0
C      1  0.5102060000000  0.4068850000000  0.5494360000000 1.0
C      1  0.4950890000000  0.4387010000000  0.5002470000000 1.0
C      1  0.4239780000000  0.4948080000000  0.4940850000000 1.0
C      1  0.5190740000000  0.5697420000000  0.5752500000000 1.0
C      1  0.4476510000000  0.5068360000000  0.5869430000000 1.0
C      1  0.5156620000000  0.4670570000000  0.4341170000000 1.0
C      1  0.4728410000000  0.5771630000000  0.4339080000000 1.0
C      1  0.4891360000000  0.5294680000000  0.4005900000000 1.0
C      1  0.4716000000000  0.4742510000000  0.6081360000000 1.0
C      1  0.6050860000000  0.5475620000000  0.5178540000000 1.0
C      1  0.4728640000000  0.5426340000000  0.4693880000000 1.0
C      1  0.5286040000000  0.5504200000000  0.5957140000000 1.0
C      1  0.5877510000000  0.5199770000000  0.5834050000000 1.0
C      1  0.4147350000000  0.4464340000000  0.5298140000000 1.0
C      1  0.4800510000000  0.4919090000000  0.5278520000000 1.0
C      1  0.5805160000000  0.4519720000000  0.5568890000000 1.0
C      1  0.5395430000000  0.4977470000000  0.6135150000000 1.0
C      1  0.4810170000000  0.3925690000000  0.4461430000000 1.0
C      1  0.5337330000000  0.6013630000000  0.4812110000000 1.0
C      1  0.5171930000000  0.4676590000000  0.5437930000000 1.0
C      1  0.4718450000000  0.5014220000000  0.4993770000000 1.0
C      1  0.4986590000000  0.4782160000000  0.6046930000000 1.0
C      1  0.5778530000000  0.5833400000000  0.4970770000000 1.0
C      1  0.4671850000000  0.6006070000000  0.4739900000000 1.0
C      1  0.6026590000000  0.4746850000000  0.4507340000000 1.0
C      1  0.5632490000000  0.5790590000000  0.4486650000000 1.0
C      1  0.4919150000000  0.4737240000000  0.3838540000000 1.0
C      1  0.5930120000000  0.4355580000000  0.5347760000000 1.0
C      1  0.5377030000000  0.5565600000000  0.4679530000000 1.0
C      1  0.5192550000000  0.5601500000000  0.4432880000000 1.0
C      1  0.5231650000000  0.5531170000000  0.5401390000000 1.0
C      1  0.5151080000000  0.5586700000000  0.4904970000000 1.0
C      1  0.4469340000000  0.5435130000000  0.4874840000000 1.0
C      1  0.5283960000000  0.4846130000000  0.4750280000000 1.0
C      1  0.5271190000000  0.3998920000000  0.5711560000000 1.0
C      1  0.4344830000000  0.5557350000000  0.5815490000000 1.0
C      1  0.4891910000000  0.4276620000000  0.5533480000000 1.0
C      1  0.4899920000000  0.5711090000000  0.5805290000000 1.0
C      1  0.5866950000000  0.4526060000000  0.4428960000000 1.0
C      1  0.5016990000000  0.4523240000000  0.5636560000000 1.0
C      1  0.5847150000000  0.4418280000000  0.4891910000000 1.0
C      1  0.6011080000000  0.5633310000000  0.4941480000000 1.0
C      1  0.5551490000000  0.5496070000000  0.6035250000000 1.0
C      1  0.4082880000000  0.4583160000000  0.4381370000000 1.0
C      1  0.5639480000000  0.5166060000000  0.4977290000000 1.0
C      1  0.5787960000000  0.5620080000000  0.5606340000000 1.0
C      1  0.5079510000000  0.5321980000000  0.5008350000000 1.0
C      1  0.3811910000000  0.5011420000000  0.4520110000000 1.0
C      1  0.5556290000000  0.4402370000000  0.5672540000000 1.0
C      1  0.5068370000000  0.5508290000000  0.3981610000000 1.0
C      1  0.4730730000000  0.5831500000000  0.5609720000000 1.0
C      1  0.4332810000000  0.4411780000000  0.5532730000000 1.0
C      1  0.5354740000000  0.4380150000000  0.4711630000000 1.0
C      1  0.5263210000000  0.5608910000000  0.4151170000000 1.0
C      1  0.4036810000000  0.5744940000000  0.5050530000000 1.0
C      1  0.4974430000000  0.6237470000000  0.5021600000000 1.0
C      1  0.5206290000000  0.4109840000000  0.4665350000000 1.0
C      1  0.5390310000000  0.4484030000000  0.3944370000000 1.0
C      1  0.4909310000000  0.5191300000000  0.4808540000000 1.0
C      1  0.4208040000000  0.4319190000000  0.5057220000000 1.0
C      1  0.4687770000000  0.5161770000000  0.5640970000000 1.0
C      1  0.4482100000000  0.4016730000000  0.4801610000000 1.0
C      1  0.4369610000000  0.5153680000000  0.4546540000000 1.0
C      1  0.4866340000000  0.4637970000000  0.4288590000000 1.0
C      1  0.5462850000000  0.4974850000000  0.5156370000000 1.0
C      1  0.4054120000000  0.4378470000000  0.4820120000000 1.0
C      1  0.5789620000000  0.4938900000000  0.5895250000000 1.0
C      1  0.5196500000000  0.4962280000000  0.5546940000000 1.0
C      1  0.5066890000000  0.4046360000000  0.4405710000000 1.0
C      1  0.5392930000000  0.4518000000000  0.5276280000000 1.0
C      1  0.4827100000000  0.5462240000000  0.5934270000000 1.0
C      1  0.5929770000000  0.4966760000000  0.4928650000000 1.0
C      1  0.5583680000000  0.4633160000000  0.4441980000000 1.0
C      1  0.4591180000000  0.4071900000000  0.5253350000000 1.0
C      1  0.6276830000000  0.4781560000000  0.5512640000000 1.0
C      1  0.4102670000000  0.5264970000000  0.4211730000000 1.0
C      1  0.4374870000000  0.4584960000000  0.5756200000000 1.0
C      1  0.6134640000000  0.4972070000000  0.5147920000000 1.0
C      1  0.4532120000000  0.4925610000000  0.4466690000000 1.0
C      1  0.4335240000000  0.5203810000000  0.5298900000000 1.0
C      1  0.6147040000000  0.4479360000000  0.5215880000000 1.0
C      1  0.4558120000000  0.4557440000000  0.5181280000000 1.0
C      1  0.5177850000000  0.5033060000000  0.4312630000000 1.0
C      1  0.4169780000000  0.4337880000000  0.4549810000000 1.0
C      1  0.4903850000000  0.6200610000000  0.4731720000000 1.0
C      1  0.4989820000000  0.5367150000000  0.5292300000000 1.0
C      1  0.4517550000000  0.5901820000000  0.4502550000000 1.0
C      1  0.6034880000000  0.4963550000000  0.5453000000000 1.0
C      1  0.4549640000000  0.4771960000000  0.5396410000000 1.0
C      1  0.4212770000000  0.5031920000000  0.4075870000000 1.0
C      1  0.5347510000000  0.5187000000000  0.4065460000000 1.0
C      1  0.4533160000000  0.5356000000000  0.5476940000000 1.0
C      1  0.4024970000000  0.4711130000000  0.5165170000000 1.0
C      1  0.4333880000000  0.4059410000000  0.4544490000000 1.0
C      1  0.5605070000000  0.5104390000000  0.4216200000000 1.0
C      1  0.5569000000000  0.4786050000000  0.4705260000000 1.0
C      1  0.5032100000000  0.4302660000000  0.6053030000000 1.0
C      1  0.5616550000000  0.3973950000000  0.5418700000000 1.0
C      1  0.4793310000000  0.4222210000000  0.5950840000000 1.0
C      1  0.4613850000000  0.4837930000000  0.3876500000000 1.0
C      1  0.4721500000000  0.4910010000000  0.4241400000000 1.0
C      1  0.4717270000000  0.5512330000000  0.5301610000000 1.0
C      1  0.4767440000000  0.6100000000000  0.5185270000000 1.0
C      1  0.4380020000000  0.4095720000000  0.5051780000000 1.0
C      1  0.4886820000000  0.5682410000000  0.4767740000000 1.0
C      1  0.5279050000000  0.4429160000000  0.4196330000000 1.0
C      1  0.4450470000000  0.5159000000000  0.5023530000000 1.0
C      1  0.4471130000000  0.4148710000000  0.5534910000000 1.0
C      1  0.4615740000000  0.5922270000000  0.5013580000000 1.0
C      1  0.4275170000000  0.5726210000000  0.5239020000000 1.0
C      1  0.4525100000000  0.5649720000000  0.5101800000000 1.0
C      1  0.5553620000000  0.4815280000000  0.5978410000000 1.0
C      1  0.5415370000000  0.4763380000000  0.3945080000000 1.0
C      1  0.5696200000000  0.5425810000000  0.5808710000000 1.0
C      1  0.4640560000000  0.4091540000000  0.5761860000000 1.0
C      1  0.5978420000000  0.5248540000000  0.4552890000000 1.0
C      1  0.5610010000000  0.4721060000000  0.5201980000000 1.0
C      1  0.4115790000000  0.5387100000000  0.5755260000000 1.0
C      1  0.5223710000000  0.5103680000000  0.4612030000000 1.0
C      1  0.4704420000000  0.4463260000000  0.4496080000000 1.0
C      1  0.4988250000000  0.5796160000000  0.4506010000000 1.0
C      1  0.5166750000000  0.4903110000000  0.3879570000000 1.0
C      1  0.5526210000000  0.5522410000000  0.4095310000000 1.0
C      1  0.4068690000000  0.5341760000000  0.5316100000000 1.0
C      1  0.5124050000000  0.4541770000000  0.5917750000000 1.0
C      1  0.5093740000000  0.4216600000000  0.4176970000000 1.0
C      1  0.5729790000000  0.4333370000000  0.4639180000000 1.0
C      1  0.4910460000000  0.5131570000000  0.4243570000000 1.0
C      1  0.5262680000000  0.4351300000000  0.5034230000000 1.0
C      1  0.3952780000000  0.5452410000000  0.5069780000000 1.0
C      1  0.4448230000000  0.5721520000000  0.5580430000000 1.0
C      1  0.5552010000000  0.4822260000000  0.4201600000000 1.0
C      1  0.4561980000000  0.4010100000000  0.4332920000000 1.0
C      1  0.5621470000000  0.5821100000000  0.5466030000000 1.0
C      1  0.4136040000000  0.5101550000000  0.4713290000000 1.0
C      1  0.4850420000000  0.4248410000000  0.4727730000000 1.0
C      1  0.4888770000000  0.5991560000000  0.5421150000000 1.0
C      1  0.4611980000000  0.5341390000000  0.3975570000000 1.0
C      1  0.4088120000000  0.5380200000000  0.4805000000000 1.0
C      1  0.4544760000000  0.5402490000000  0.5980200000000 1.0
C      1  0.5999490000000  0.5473320000000  0.5462440000000 1.0
C      1  0.5741110000000  0.4290570000000  0.5132490000000 1.0
C      1  0.4463190000000  0.5095440000000  0.3931120000000 1.0
C      1  0.5359360000000  0.5902810000000  0.5585810000000 1.0
C      1  0.4585710000000  0.4391030000000  0.4025830000000 1.0
C      1  0.4306210000000  0.5709990000000  0.4579670000000 1.0
C      1  0.5128130000000  0.6058350000000  0.4602520000000 1.0
C      1  0.5207280000000  0.4898970000000  0.5028960000000 1.0
C      1  0.5457140000000  0.5058010000000  0.5449050000000 1.0
C      1  0.5761310000000  0.4811670000000  0.5475630000000 1.0
C      1  0.5693390000000  0.5552580000000  0.4328240000000 1.0
C      1  0.4214340000000  0.4730360000000  0.4142830000000 1.0
C      1  0.4421950000000  0.4619290000000  0.3952860000000 1.0
C      1  0.4469270000000  0.4657280000000  0.4571100000000 1.0
C      1  0.5759080000000  0.4707620000000  0.4928180000000 1.0
C      1  0.5597200000000  0.4031920000000  0.5144590000000 1.0
C      1  0.4872380000000  0.4488810000000  0.4025250000000 1.0
C      1  0.5696190000000  0.5276800000000  0.4450240000000 1.0
C      1  0.5095320000000  0.3927010000000  0.5231900000000 1.0
C      1  0.5610940000000  0.5933360000000  0.4735280000000 1.0
C      1  0.4758700000000  0.4332160000000  0.5242870000000 1.0
C      1  0.4676700000000  0.4714670000000  0.4904610000000 1.0
C      1  0.6048560000000  0.5220130000000  0.5602920000000 1.0
C      1  0.4067190000000  0.4969430000000  0.5604380000000 1.0
C      1  0.5429830000000  0.4562850000000  0.5888330000000 1.0
C      1  0.3900110000000  0.5192300000000  0.5497670000000 1.0
C      1  0.4524440000000  0.4308670000000  0.4306650000000 1.0
C      1  0.3878550000000  0.5274650000000  0.4395960000000 1.0
C      1  0.5172960000000  0.4607810000000  0.4625370000000 1.0
C      1  0.5310200000000  0.4039120000000  0.5035760000000 1.0
C      1  0.4490950000000  0.4776900000000  0.5931210000000 1.0
C      1  0.6041560000000  0.5473180000000  0.4712800000000 1.0
C      1  0.5245980000000  0.6115700000000  0.5096820000000 1.0
C      1  0.4811880000000  0.3889950000000  0.5132380000000 1.0
C      1  0.4273540000000  0.4914110000000  0.5379340000000 1.0
C      1  0.4371600000000  0.5437280000000  0.4430220000000 1.0
C      1  0.5486520000000  0.5353330000000  0.5423640000000 1.0
C      1  0.5672330000000  0.5396460000000  0.5181720000000 1.0
C      1  0.3930830000000  0.4638790000000  0.4860020000000 1.0
C      1  0.5178110000000  0.6055880000000  0.5410310000000 1.0
C      1  0.4939670000000  0.5112120000000  0.5461470000000 1.0
C      1  0.5068430000000  0.5322670000000  0.6037470000000 1.0
C      1  0.4369210000000  0.4678220000000  0.4867170000000 1.0
C      1  0.6053690000000  0.4984680000000  0.4660070000000 1.0
C      1  0.3919690000000  0.5499300000000  0.4589520000000 1.0
C      1  0.5484450000000  0.5274420000000  0.4681780000000 1.0
C      1  0.5279050000000  0.5728940000000  0.5148570000000 1.0
C      1  0.5739470000000  0.5957850000000  0.5239620000000 1.0
C      1  0.5126780000000  0.5036690000000  0.6108210000000 1.0
C      1  0.4746930000000  0.3891200000000  0.4837790000000 1.0
END
