TITL C-950530-3293-734 7.68920808988306e-07 125000 -1055.0156610518 0 0 168 (C1) n - 1
REM
REM in /home/bkarasulu/work/CARBON/AIRSS/Generating-Clusters/EDIP-Nigel-Params/with-SteepDescent/Only-C1/SD-CG/HFTN-CG
REM
REM
REM
REM
REM
REM ./C.cell (11c1c37f851c82e70ff6c80c92926a4b)
REM
REM compiler GCC version 9.2.1 20190827 (Red Hat 9.2.1-1)
REM options -cpp -mtune=generic -march=x86-64 -g -O0 -fpre-include=/usr/include/finclude/math-vector-fortran.h
REM seed -1117008369 -974078001 994400191 1076194577 1987230888 -1625416807 1432559282 -2025914044 738687065 1133928980 -1140481802 -1979034958 743657563 -802317303 -1157661536 -1510520134 963027443 629216819 -804091650 594022571 735220071 1789605267 -1083943302 -949277159 -1144849788 1599864561 -1310788320 1945893643 1673541693 -1573757225 1164700278 -788040993 289593505
REM
CELL 1.54180   50.00000   50.00000   50.00000   90.00000   90.00000   90.00000
LATT -1
SFAC C  
C      1  0.5652030000000  0.5543330000000  0.4170660000000 1.0
C      1  0.3819380000000  0.5316570000000  0.5204910000000 1.0
C      1  0.5238410000000  0.4366860000000  0.4047810000000 1.0
C      1  0.4539820000000  0.4485790000000  0.4234180000000 1.0
C      1  0.4638050000000  0.4086010000000  0.4491420000000 1.0
C      1  0.5474530000000  0.4993260000000  0.5065740000000 1.0
C      1  0.5808170000000  0.4633280000000  0.4488010000000 1.0
C      1  0.4189980000000  0.5778300000000  0.5503650000000 1.0
C      1  0.5444230000000  0.4619390000000  0.5786910000000 1.0
C      1  0.4380140000000  0.5514050000000  0.5864510000000 1.0
C      1  0.5715780000000  0.5866670000000  0.4686540000000 1.0
C      1  0.4540320000000  0.5915650000000  0.4954870000000 1.0
C      1  0.4701940000000  0.4746670000000  0.5801030000000 1.0
C      1  0.5781830000000  0.5370160000000  0.4359430000000 1.0
C      1  0.4529980000000  0.5110310000000  0.4559940000000 1.0
C      1  0.4818640000000  0.5468460000000  0.5903550000000 1.0
C      1  0.5605060000000  0.4717040000000  0.4715290000000 1.0
C      1  0.5471630000000  0.4918090000000  0.5770730000000 1.0
C      1  0.5142800000000  0.5790370000000  0.5647530000000 1.0
C      1  0.4856510000000  0.5362300000000  0.4961920000000 1.0
C      1  0.4062110000000  0.5133520000000  0.4412930000000 1.0
C      1  0.5912810000000  0.4879390000000  0.5552170000000 1.0
C      1  0.5166680000000  0.4777220000000  0.4542020000000 1.0
C      1  0.5568640000000  0.5745070000000  0.5384560000000 1.0
C      1  0.5306370000000  0.5454580000000  0.4805630000000 1.0
C      1  0.4685940000000  0.4667040000000  0.4912230000000 1.0
C      1  0.4804490000000  0.4513430000000  0.4352530000000 1.0
C      1  0.5968200000000  0.4438820000000  0.5262920000000 1.0
C      1  0.4761750000000  0.5175690000000  0.5476970000000 1.0
C      1  0.5056680000000  0.4858080000000  0.4071360000000 1.0
C      1  0.4614400000000  0.3919370000000  0.4749160000000 1.0
C      1  0.4518130000000  0.5387590000000  0.4658610000000 1.0
C      1  0.4955010000000  0.5133940000000  0.4822790000000 1.0
C      1  0.5743100000000  0.5303540000000  0.5387390000000 1.0
C      1  0.5197040000000  0.5722070000000  0.4266980000000 1.0
C      1  0.4023140000000  0.4510350000000  0.5036980000000 1.0
C      1  0.4509860000000  0.5961080000000  0.5233120000000 1.0
C      1  0.5729980000000  0.4232710000000  0.5219760000000 1.0
C      1  0.4573670000000  0.5385230000000  0.4975860000000 1.0
C      1  0.5684640000000  0.4593030000000  0.4964100000000 1.0
C      1  0.4505430000000  0.5087730000000  0.4257010000000 1.0
C      1  0.5783840000000  0.4632660000000  0.5436920000000 1.0
C      1  0.4390750000000  0.5356660000000  0.4179300000000 1.0
C      1  0.5333410000000  0.4568000000000  0.4694350000000 1.0
C      1  0.5013410000000  0.4344960000000  0.5852610000000 1.0
C      1  0.4737990000000  0.4448560000000  0.5806770000000 1.0
C      1  0.5254040000000  0.5289630000000  0.4074830000000 1.0
C      1  0.4853330000000  0.4284530000000  0.4560810000000 1.0
C      1  0.5448070000000  0.5893320000000  0.5180140000000 1.0
C      1  0.4464630000000  0.5077110000000  0.5369990000000 1.0
C      1  0.3964160000000  0.5136740000000  0.5366050000000 1.0
C      1  0.5782190000000  0.5608460000000  0.4767530000000 1.0
C      1  0.4989870000000  0.5426510000000  0.4409470000000 1.0
C      1  0.4877160000000  0.4785950000000  0.4469670000000 1.0
C      1  0.5459170000000  0.5211160000000  0.5280490000000 1.0
C      1  0.4705950000000  0.4340740000000  0.4858530000000 1.0
C      1  0.4069960000000  0.4964110000000  0.4681490000000 1.0
C      1  0.5946810000000  0.5071850000000  0.5337460000000 1.0
C      1  0.4063670000000  0.4932120000000  0.5167920000000 1.0
C      1  0.5287530000000  0.5079890000000  0.5511630000000 1.0
C      1  0.6047990000000  0.5466550000000  0.4409480000000 1.0
C      1  0.5512210000000  0.5460470000000  0.5803790000000 1.0
C      1  0.4795430000000  0.5479080000000  0.5406390000000 1.0
C      1  0.4667100000000  0.6066690000000  0.5447490000000 1.0
C      1  0.4879220000000  0.5205400000000  0.5774530000000 1.0
C      1  0.4333230000000  0.5736750000000  0.4850380000000 1.0
C      1  0.5206030000000  0.3983850000000  0.5247590000000 1.0
C      1  0.5753530000000  0.5015090000000  0.5760690000000 1.0
C      1  0.5127030000000  0.6027760000000  0.5504810000000 1.0
C      1  0.5644570000000  0.4461690000000  0.5636730000000 1.0
C      1  0.4580310000000  0.4691110000000  0.5192140000000 1.0
C      1  0.5387010000000  0.4311100000000  0.4537040000000 1.0
C      1  0.5287120000000  0.5405210000000  0.5117420000000 1.0
C      1  0.4149080000000  0.5607550000000  0.5049460000000 1.0
C      1  0.4865990000000  0.4948780000000  0.5934360000000 1.0
C      1  0.4215800000000  0.4685830000000  0.5735430000000 1.0
C      1  0.5166590000000  0.4462080000000  0.5003800000000 1.0
C      1  0.5027280000000  0.4565280000000  0.4051570000000 1.0
C      1  0.4553640000000  0.5576610000000  0.5233580000000 1.0
C      1  0.4595860000000  0.5565730000000  0.4177450000000 1.0
C      1  0.5577050000000  0.4163240000000  0.4957990000000 1.0
C      1  0.6011550000000  0.4927620000000  0.5092360000000 1.0
C      1  0.4171890000000  0.5112890000000  0.4951020000000 1.0
C      1  0.5980260000000  0.5075440000000  0.4846310000000 1.0
C      1  0.5549040000000  0.4714620000000  0.5199090000000 1.0
C      1  0.4256380000000  0.4759020000000  0.4550390000000 1.0
C      1  0.4482300000000  0.4111750000000  0.4927030000000 1.0
C      1  0.4257160000000  0.4904650000000  0.4282880000000 1.0
C      1  0.5285580000000  0.4136950000000  0.5474160000000 1.0
C      1  0.5047760000000  0.4664810000000  0.5413780000000 1.0
C      1  0.5172480000000  0.5285320000000  0.5706510000000 1.0
C      1  0.4282370000000  0.4694110000000  0.5261920000000 1.0
C      1  0.5619010000000  0.4194710000000  0.4678050000000 1.0
C      1  0.5446760000000  0.4405830000000  0.4252570000000 1.0
C      1  0.4420380000000  0.4301440000000  0.4412710000000 1.0
C      1  0.4219180000000  0.4527280000000  0.5501720000000 1.0
C      1  0.4897240000000  0.4302920000000  0.5100120000000 1.0
C      1  0.5970220000000  0.4875560000000  0.4397990000000 1.0
C      1  0.4811430000000  0.4053440000000  0.5511370000000 1.0
C      1  0.5143610000000  0.4106060000000  0.4076750000000 1.0
C      1  0.4786080000000  0.4501220000000  0.5323470000000 1.0
C      1  0.5000340000000  0.4706600000000  0.4945600000000 1.0
C      1  0.4186360000000  0.5403240000000  0.4380950000000 1.0
C      1  0.5162170000000  0.4571730000000  0.5759980000000 1.0
C      1  0.4924600000000  0.6164770000000  0.5394090000000 1.0
C      1  0.5124670000000  0.3963380000000  0.4303580000000 1.0
C      1  0.5134140000000  0.3957530000000  0.4782750000000 1.0
C      1  0.4378930000000  0.4299380000000  0.5520320000000 1.0
C      1  0.3999020000000  0.5365780000000  0.4989670000000 1.0
C      1  0.5642860000000  0.4624810000000  0.4230560000000 1.0
C      1  0.5005290000000  0.5420120000000  0.5196330000000 1.0
C      1  0.4234530000000  0.5282720000000  0.5762350000000 1.0
C      1  0.4816310000000  0.5947050000000  0.4560770000000 1.0
C      1  0.4913840000000  0.4008170000000  0.5216930000000 1.0
C      1  0.4716360000000  0.5532780000000  0.4471410000000 1.0
C      1  0.4445170000000  0.4857730000000  0.5690670000000 1.0
C      1  0.5104290000000  0.4884190000000  0.6066950000000 1.0
C      1  0.4262790000000  0.5555920000000  0.5329400000000 1.0
C      1  0.4583550000000  0.5482150000000  0.6054570000000 1.0
C      1  0.5787990000000  0.5581400000000  0.5313470000000 1.0
C      1  0.4454450000000  0.5127900000000  0.5062610000000 1.0
C      1  0.4648290000000  0.5881210000000  0.5678750000000 1.0
C      1  0.4266790000000  0.4469500000000  0.4601940000000 1.0
C      1  0.4203050000000  0.4102050000000  0.4900050000000 1.0
C      1  0.5113470000000  0.4966780000000  0.5039010000000 1.0
C      1  0.4805290000000  0.5512540000000  0.3980980000000 1.0
C      1  0.5570410000000  0.4217010000000  0.5482220000000 1.0
C      1  0.6118480000000  0.5326160000000  0.4856180000000 1.0
C      1  0.5664440000000  0.5090040000000  0.4809540000000 1.0
C      1  0.6045040000000  0.5528080000000  0.4682450000000 1.0
C      1  0.4862990000000  0.5662860000000  0.5671120000000 1.0
C      1  0.4738270000000  0.4946500000000  0.4683880000000 1.0
C      1  0.5793130000000  0.5076910000000  0.4271700000000 1.0
C      1  0.6100670000000  0.4618100000000  0.4738640000000 1.0
C      1  0.3869070000000  0.4754390000000  0.5018600000000 1.0
C      1  0.5594120000000  0.5381920000000  0.4702090000000 1.0
C      1  0.4221660000000  0.5265390000000  0.5462310000000 1.0
C      1  0.5392910000000  0.5646700000000  0.5596670000000 1.0
C      1  0.5305590000000  0.5013250000000  0.4184120000000 1.0
C      1  0.5381560000000  0.5506430000000  0.4216570000000 1.0
C      1  0.3817720000000  0.4836880000000  0.4753120000000 1.0
C      1  0.5128630000000  0.4126740000000  0.4540770000000 1.0
C      1  0.5138600000000  0.5258960000000  0.4623130000000 1.0
C      1  0.6119290000000  0.4899180000000  0.4647480000000 1.0
C      1  0.5313080000000  0.5301840000000  0.5981340000000 1.0
C      1  0.5349610000000  0.5016040000000  0.6024180000000 1.0
C      1  0.4555310000000  0.5879630000000  0.4408320000000 1.0
C      1  0.4310390000000  0.5033620000000  0.5879180000000 1.0
C      1  0.4956940000000  0.5310610000000  0.4127160000000 1.0
C      1  0.4322000000000  0.5711170000000  0.4552560000000 1.0
C      1  0.5288840000000  0.4566900000000  0.5249370000000 1.0
C      1  0.5733050000000  0.5298360000000  0.5685100000000 1.0
C      1  0.4125940000000  0.4355230000000  0.4825770000000 1.0
C      1  0.4874720000000  0.3858430000000  0.4886270000000 1.0
C      1  0.5586210000000  0.4908340000000  0.4133040000000 1.0
C      1  0.5089760000000  0.5844840000000  0.4506670000000 1.0
C      1  0.5977970000000  0.4632210000000  0.5014110000000 1.0
C      1  0.4806520000000  0.5909300000000  0.4844030000000 1.0
C      1  0.5354060000000  0.5960210000000  0.4924330000000 1.0
C      1  0.5291270000000  0.5036300000000  0.4491230000000 1.0
C      1  0.5034420000000  0.4971170000000  0.5354280000000 1.0
C      1  0.5315590000000  0.4044680000000  0.4992510000000 1.0
C      1  0.5546750000000  0.6065000000000  0.4751280000000 1.0
C      1  0.5163300000000  0.5768950000000  0.4791990000000 1.0
C      1  0.5061720000000  0.4109250000000  0.5670390000000 1.0
C      1  0.4814590000000  0.5040400000000  0.4116990000000 1.0
C      1  0.4664130000000  0.4318350000000  0.5545660000000 1.0
C      1  0.4380730000000  0.5757720000000  0.5707970000000 1.0
END
