TITL C-951339-9237-166 -2.56265525351343e-07 125000 -254.040186876921 0 0 43 (C1) n - 1
REM
REM in /home/bkarasulu/work/CARBON/AIRSS/Generating-Clusters/EDIP-Nigel-Params/with-SteepDescent/Only-C1/SD-CG/HFTN-CG
REM
REM
REM
REM
REM
REM ./C.cell (11c1c37f851c82e70ff6c80c92926a4b)
REM
REM compiler GCC version 9.2.1 20190827 (Red Hat 9.2.1-1)
REM options -cpp -mtune=generic -march=x86-64 -g -O0 -fpre-include=/usr/include/finclude/math-vector-fortran.h
REM seed -1980556032 60237830 828935563 431529257 -1903225906 808125598 1624688458 467270274 -1659813723 234460666 1712462772 1141646588 1031247697 -418521191 -1464786320 1117331553 166180887 763637116 -3784078 1715463010 1167832972 567868337 -20854538 -354381217 1053680178 -254687976 538211486 -1403229414 -600074809 1029687368 -621621515 1762167428 -1100097455
REM
CELL 1.54180   50.00000   50.00000   50.00000   90.00000   90.00000   90.00000
LATT -1
SFAC C  
C      1  0.4344070000000  0.5128370000000  0.4974190000000 1.0
C      1  0.5239390000000  0.5111540000000  0.4335260000000 1.0
C      1  0.5048050000000  0.5105630000000  0.5543420000000 1.0
C      1  0.5413500000000  0.5368560000000  0.5398130000000 1.0
C      1  0.5155850000000  0.5480090000000  0.4698580000000 1.0
C      1  0.4834080000000  0.4469180000000  0.5406700000000 1.0
C      1  0.5149690000000  0.4951850000000  0.5318400000000 1.0
C      1  0.4442040000000  0.4995080000000  0.4714120000000 1.0
C      1  0.4765530000000  0.4864420000000  0.5121190000000 1.0
C      1  0.4509010000000  0.4758150000000  0.5206390000000 1.0
C      1  0.4940410000000  0.5111270000000  0.4713570000000 1.0
C      1  0.5297190000000  0.4589860000000  0.4612140000000 1.0
C      1  0.4306590000000  0.4954760000000  0.5199980000000 1.0
C      1  0.4804740000000  0.4609360000000  0.4722900000000 1.0
C      1  0.4768260000000  0.5159240000000  0.4458830000000 1.0
C      1  0.4697970000000  0.5456360000000  0.5253540000000 1.0
C      1  0.5450850000000  0.4990080000000  0.4500830000000 1.0
C      1  0.5378980000000  0.4765700000000  0.5324990000000 1.0
C      1  0.5188280000000  0.4851040000000  0.4946250000000 1.0
C      1  0.5626510000000  0.5010280000000  0.5162240000000 1.0
C      1  0.4983790000000  0.4946120000000  0.4359490000000 1.0
C      1  0.4777830000000  0.5124790000000  0.4973690000000 1.0
C      1  0.4915210000000  0.5561090000000  0.5436060000000 1.0
C      1  0.4957710000000  0.5299280000000  0.5153680000000 1.0
C      1  0.4550760000000  0.4733470000000  0.4699910000000 1.0
C      1  0.5534520000000  0.5197250000000  0.4958190000000 1.0
C      1  0.5196030000000  0.5363510000000  0.4455410000000 1.0
C      1  0.4932100000000  0.4671040000000  0.4988490000000 1.0
C      1  0.5492660000000  0.4714130000000  0.4455040000000 1.0
C      1  0.4802530000000  0.5037900000000  0.5659540000000 1.0
C      1  0.5384660000000  0.4521360000000  0.4888010000000 1.0
C      1  0.5135930000000  0.5389720000000  0.5545260000000 1.0
C      1  0.5412470000000  0.5430220000000  0.5099530000000 1.0
C      1  0.5027610000000  0.4708650000000  0.4556500000000 1.0
C      1  0.4997020000000  0.4444270000000  0.5175530000000 1.0
C      1  0.4639780000000  0.4824260000000  0.5650330000000 1.0
C      1  0.4599230000000  0.4623680000000  0.5457700000000 1.0
C      1  0.5146090000000  0.5470880000000  0.4982030000000 1.0
C      1  0.4489980000000  0.5146200000000  0.4484960000000 1.0
C      1  0.5322170000000  0.5085830000000  0.4768170000000 1.0
C      1  0.5300070000000  0.4494010000000  0.5174220000000 1.0
C      1  0.4492680000000  0.5375710000000  0.5046570000000 1.0
C      1  0.5548160000000  0.5105820000000  0.5420020000000 1.0
END
