TITL C-950533-5798-207 2.90315026526056e-07 125000 -76.4210360782686 0 0 14 (C1) n - 1
REM
REM in /home/bkarasulu/work/CARBON/AIRSS/Generating-Clusters/EDIP-Nigel-Params/with-SteepDescent/Only-C1/SD-CG/HFTN-CG
REM
REM
REM
REM
REM
REM ./C.cell (11c1c37f851c82e70ff6c80c92926a4b)
REM
REM compiler GCC version 9.2.1 20190827 (Red Hat 9.2.1-1)
REM options -cpp -mtune=generic -march=x86-64 -g -O0 -fpre-include=/usr/include/finclude/math-vector-fortran.h
REM seed 1533768897 -1325858776 -552694344 64120382 207384599 -175246169 -446645965 1955626493 1148515154 1275874091 -689899774 302028814 151925619 2078332975 1742815336 -1342202944 1987971761 -1949195691 1433198231 180786339 2132523312 1822171416 481287457 -648731447 2061945982 -1819031226 -280129614 -224044197 -1171891345 1607780420 -1852335504 -574654700 -1911629915
REM
CELL 1.54180   50.00000   50.00000   50.00000   90.00000   90.00000   90.00000
LATT -1
SFAC C  
C      1  0.4847760000000  0.4836720000000  0.4708420000000 1.0
C      1  0.4774040000000  0.5402100000000  0.4897630000000 1.0
C      1  0.5432580000000  0.4828110000000  0.4861990000000 1.0
C      1  0.4622530000000  0.4935140000000  0.4852690000000 1.0
C      1  0.5499150000000  0.4859750000000  0.5133330000000 1.0
C      1  0.4984560000000  0.5063690000000  0.5264210000000 1.0
C      1  0.4593980000000  0.5199650000000  0.4975520000000 1.0
C      1  0.5082940000000  0.4694330000000  0.4792080000000 1.0
C      1  0.5408840000000  0.5101670000000  0.5002400000000 1.0
C      1  0.4932730000000  0.4631430000000  0.5025690000000 1.0
C      1  0.5132120000000  0.5187760000000  0.5041540000000 1.0
C      1  0.5037870000000  0.5440060000000  0.4954890000000 1.0
C      1  0.4965840000000  0.4774780000000  0.5266810000000 1.0
C      1  0.4685080000000  0.5044820000000  0.5222800000000 1.0
END
