TITL C-951341-1326-296 -9.01054880784792e-07 125000 -809.886076883069 0 0 129 (C1) n - 1
REM
REM in /home/bkarasulu/work/CARBON/AIRSS/Generating-Clusters/EDIP-Nigel-Params/with-SteepDescent/Only-C1/SD-CG/HFTN-CG
REM
REM
REM
REM
REM
REM ./C.cell (11c1c37f851c82e70ff6c80c92926a4b)
REM
REM compiler GCC version 9.2.1 20190827 (Red Hat 9.2.1-1)
REM options -cpp -mtune=generic -march=x86-64 -g -O0 -fpre-include=/usr/include/finclude/math-vector-fortran.h
REM seed 489485331 -1277160510 1219524068 -520711343 519427111 1293708185 -1658562845 -1491750806 1470810929 1466090901 -1047202405 565806513 -765268981 -1563467846 -1745563447 -332278274 -557412764 178911369 -820418554 -1629911493 1300561280 1343989455 -175095002 178547863 -666338573 340132311 1967604322 484913232 -1440135475 972773136 -1911268203 1219483426 209460287
REM
CELL 1.54180   50.00000   50.00000   50.00000   90.00000   90.00000   90.00000
LATT -1
SFAC C  
C      1  0.4836200000000  0.5209810000000  0.5769820000000 1.0
C      1  0.5406970000000  0.4834550000000  0.5350360000000 1.0
C      1  0.5095760000000  0.5495320000000  0.4322820000000 1.0
C      1  0.5158800000000  0.4830780000000  0.4379780000000 1.0
C      1  0.6007730000000  0.5035670000000  0.5236760000000 1.0
C      1  0.5279900000000  0.4758520000000  0.4108930000000 1.0
C      1  0.4476950000000  0.4917770000000  0.4609380000000 1.0
C      1  0.4055450000000  0.4610790000000  0.4927960000000 1.0
C      1  0.5180340000000  0.4737070000000  0.5937550000000 1.0
C      1  0.4747980000000  0.5820780000000  0.4399790000000 1.0
C      1  0.5111280000000  0.4543900000000  0.4004910000000 1.0
C      1  0.4657050000000  0.5410590000000  0.5622710000000 1.0
C      1  0.4018200000000  0.4706490000000  0.5204550000000 1.0
C      1  0.5335870000000  0.4485200000000  0.5836410000000 1.0
C      1  0.4481180000000  0.5529640000000  0.5083850000000 1.0
C      1  0.5674560000000  0.5039260000000  0.4128300000000 1.0
C      1  0.5554510000000  0.4838050000000  0.5634130000000 1.0
C      1  0.5216570000000  0.4785990000000  0.5005790000000 1.0
C      1  0.5767810000000  0.5521290000000  0.5200410000000 1.0
C      1  0.5632150000000  0.5433600000000  0.4420090000000 1.0
C      1  0.4650380000000  0.4791100000000  0.5870330000000 1.0
C      1  0.5358640000000  0.5725460000000  0.4820940000000 1.0
C      1  0.5321220000000  0.5263550000000  0.5877190000000 1.0
C      1  0.4543300000000  0.5278810000000  0.5375590000000 1.0
C      1  0.4435830000000  0.4760180000000  0.5665170000000 1.0
C      1  0.4613320000000  0.4086700000000  0.5306450000000 1.0
C      1  0.4837500000000  0.5819640000000  0.4773900000000 1.0
C      1  0.4714760000000  0.5030230000000  0.5300590000000 1.0
C      1  0.5586610000000  0.4744540000000  0.4143880000000 1.0
C      1  0.4769540000000  0.5879000000000  0.5088080000000 1.0
C      1  0.5312350000000  0.4313040000000  0.4355330000000 1.0
C      1  0.4540260000000  0.5443850000000  0.4635470000000 1.0
C      1  0.5176730000000  0.5228310000000  0.5434140000000 1.0
C      1  0.4555960000000  0.5595880000000  0.4372080000000 1.0
C      1  0.4759070000000  0.4858860000000  0.4200130000000 1.0
C      1  0.5349740000000  0.4647160000000  0.4774690000000 1.0
C      1  0.5090920000000  0.5096020000000  0.4618730000000 1.0
C      1  0.5563500000000  0.4367690000000  0.4492250000000 1.0
C      1  0.5100960000000  0.4722020000000  0.5416080000000 1.0
C      1  0.5279540000000  0.5691420000000  0.5601620000000 1.0
C      1  0.4564890000000  0.4314300000000  0.4525330000000 1.0
C      1  0.4774730000000  0.5418300000000  0.5030070000000 1.0
C      1  0.5147280000000  0.4596940000000  0.4559500000000 1.0
C      1  0.4227490000000  0.5334650000000  0.5373200000000 1.0
C      1  0.4588480000000  0.4204740000000  0.4798690000000 1.0
C      1  0.5377600000000  0.5405440000000  0.5613670000000 1.0
C      1  0.5292310000000  0.5222130000000  0.5006940000000 1.0
C      1  0.5750500000000  0.4600200000000  0.5231970000000 1.0
C      1  0.4073770000000  0.5107690000000  0.5507550000000 1.0
C      1  0.4145070000000  0.5262590000000  0.4536330000000 1.0
C      1  0.5898970000000  0.5177500000000  0.5493520000000 1.0
C      1  0.5958040000000  0.4760900000000  0.5365470000000 1.0
C      1  0.5659850000000  0.4642340000000  0.4413360000000 1.0
C      1  0.4427810000000  0.4490260000000  0.5516380000000 1.0
C      1  0.4079650000000  0.5295710000000  0.5019010000000 1.0
C      1  0.4809880000000  0.5513540000000  0.4753530000000 1.0
C      1  0.5088010000000  0.4130060000000  0.4741580000000 1.0
C      1  0.5530290000000  0.4394130000000  0.4803210000000 1.0
C      1  0.5360860000000  0.4960710000000  0.5843230000000 1.0
C      1  0.4834190000000  0.4060310000000  0.4874320000000 1.0
C      1  0.5387820000000  0.5413430000000  0.4251680000000 1.0
C      1  0.5488680000000  0.5241870000000  0.4794560000000 1.0
C      1  0.5552720000000  0.4828580000000  0.4635070000000 1.0
C      1  0.5844360000000  0.4911700000000  0.5625380000000 1.0
C      1  0.5950470000000  0.5020540000000  0.4555490000000 1.0
C      1  0.5400940000000  0.5801570000000  0.5105470000000 1.0
C      1  0.4434950000000  0.5790670000000  0.5473530000000 1.0
C      1  0.4861990000000  0.4562540000000  0.4140850000000 1.0
C      1  0.4538990000000  0.4774800000000  0.5288780000000 1.0
C      1  0.4833050000000  0.3999410000000  0.5156830000000 1.0
C      1  0.5203140000000  0.5775310000000  0.5325240000000 1.0
C      1  0.4738060000000  0.4857940000000  0.4504090000000 1.0
C      1  0.4348720000000  0.4501380000000  0.4526780000000 1.0
C      1  0.5657330000000  0.5328040000000  0.5399020000000 1.0
C      1  0.5589330000000  0.4553920000000  0.5697350000000 1.0
C      1  0.4348710000000  0.5577980000000  0.4810050000000 1.0
C      1  0.5839550000000  0.5089650000000  0.5004550000000 1.0
C      1  0.5612930000000  0.4425460000000  0.5427830000000 1.0
C      1  0.5437320000000  0.5203620000000  0.4044060000000 1.0
C      1  0.4792430000000  0.5687800000000  0.5567980000000 1.0
C      1  0.4412010000000  0.5463190000000  0.5793420000000 1.0
C      1  0.5306840000000  0.4111300000000  0.5191190000000 1.0
C      1  0.5771760000000  0.4553550000000  0.4941210000000 1.0
C      1  0.4494500000000  0.5805240000000  0.5188820000000 1.0
C      1  0.4953390000000  0.5083550000000  0.4080020000000 1.0
C      1  0.4961520000000  0.5014860000000  0.5505260000000 1.0
C      1  0.4494520000000  0.4337560000000  0.5273210000000 1.0
C      1  0.5043280000000  0.5383130000000  0.5908440000000 1.0
C      1  0.5831410000000  0.4876230000000  0.4789680000000 1.0
C      1  0.4229070000000  0.4981330000000  0.5722490000000 1.0
C      1  0.4774430000000  0.4624790000000  0.4950400000000 1.0
C      1  0.4517270000000  0.5132130000000  0.4810700000000 1.0
C      1  0.5019500000000  0.5376830000000  0.4581950000000 1.0
C      1  0.4366210000000  0.5181250000000  0.5903720000000 1.0
C      1  0.5031440000000  0.5658100000000  0.5767040000000 1.0
C      1  0.4495230000000  0.5120020000000  0.4188410000000 1.0
C      1  0.5042350000000  0.5786400000000  0.4389050000000 1.0
C      1  0.5001720000000  0.4629030000000  0.5130890000000 1.0
C      1  0.5823880000000  0.5389150000000  0.4944930000000 1.0
C      1  0.4615820000000  0.5392910000000  0.4160510000000 1.0
C      1  0.4533950000000  0.4443090000000  0.4983680000000 1.0
C      1  0.3925020000000  0.4928660000000  0.5348470000000 1.0
C      1  0.4848250000000  0.4625020000000  0.4649390000000 1.0
C      1  0.4293930000000  0.5106890000000  0.5000830000000 1.0
C      1  0.5401310000000  0.5134940000000  0.5266470000000 1.0
C      1  0.4102010000000  0.5431320000000  0.4763620000000 1.0
C      1  0.4914000000000  0.4691360000000  0.5807830000000 1.0
C      1  0.5401590000000  0.5083790000000  0.4543250000000 1.0
C      1  0.4919830000000  0.5737710000000  0.5297190000000 1.0
C      1  0.5216590000000  0.5013800000000  0.3979340000000 1.0
C      1  0.5085440000000  0.3953680000000  0.5259280000000 1.0
C      1  0.5795160000000  0.5176270000000  0.4368940000000 1.0
C      1  0.4906000000000  0.5371420000000  0.4112710000000 1.0
C      1  0.4644070000000  0.5067930000000  0.5957220000000 1.0
C      1  0.5186640000000  0.4340470000000  0.5626570000000 1.0
C      1  0.4828570000000  0.4353450000000  0.4370720000000 1.0
C      1  0.4312400000000  0.4555660000000  0.4805270000000 1.0
C      1  0.4927770000000  0.4459350000000  0.5639520000000 1.0
C      1  0.4790150000000  0.5120350000000  0.5016570000000 1.0
C      1  0.5073230000000  0.4183380000000  0.4451750000000 1.0
C      1  0.5082750000000  0.5044230000000  0.4914810000000 1.0
C      1  0.5338330000000  0.4167410000000  0.4902180000000 1.0
C      1  0.5663330000000  0.5775030000000  0.5189160000000 1.0
C      1  0.4245570000000  0.5579590000000  0.5567030000000 1.0
C      1  0.5346630000000  0.4329420000000  0.5378030000000 1.0
C      1  0.4310780000000  0.5064660000000  0.4412320000000 1.0
C      1  0.5589890000000  0.5527030000000  0.4711980000000 1.0
C      1  0.5133560000000  0.5863060000000  0.4676540000000 1.0
C      1  0.4290550000000  0.4843310000000  0.5129630000000 1.0
END
