TITL C-951343-2256-385 1.00417082572398e-06 125000 -320.040996862396 0 0 52 (C1) n - 1
REM
REM in /home/bkarasulu/work/CARBON/AIRSS/Generating-Clusters/EDIP-Nigel-Params/with-SteepDescent/Only-C1/SD-CG/HFTN-CG
REM
REM
REM
REM
REM
REM ./C.cell (11c1c37f851c82e70ff6c80c92926a4b)
REM
REM compiler GCC version 9.2.1 20190827 (Red Hat 9.2.1-1)
REM options -cpp -mtune=generic -march=x86-64 -g -O0 -fpre-include=/usr/include/finclude/math-vector-fortran.h
REM seed 292820419 -535557478 965300178 1785503540 1970885160 1400476045 17367996 -1522051526 -236280807 -41369283 -121994567 -995227827 226037464 -1530269737 316769546 1715253524 -34052053 -1975649800 487132559 1304062924 1432560187 -1818218276 1489038498 -387371396 -1588922648 1931682771 -889335619 342595344 -1273210888 1226816063 -1847808583 1189246763 -213159963
REM
CELL 1.54180   50.00000   50.00000   50.00000   90.00000   90.00000   90.00000
LATT -1
SFAC C  
C      1  0.4499860000000  0.5531910000000  0.5300340000000 1.0
C      1  0.5150390000000  0.4624660000000  0.4606040000000 1.0
C      1  0.5664510000000  0.4700710000000  0.5198980000000 1.0
C      1  0.4859350000000  0.5377820000000  0.5644580000000 1.0
C      1  0.4298450000000  0.5127980000000  0.4691040000000 1.0
C      1  0.5599170000000  0.5021530000000  0.5539030000000 1.0
C      1  0.4622090000000  0.5052580000000  0.5085570000000 1.0
C      1  0.5225400000000  0.4723730000000  0.5411960000000 1.0
C      1  0.5199370000000  0.4909410000000  0.4554930000000 1.0
C      1  0.5549880000000  0.5251190000000  0.5385900000000 1.0
C      1  0.4799300000000  0.4824610000000  0.4323660000000 1.0
C      1  0.4669120000000  0.4700830000000  0.5434680000000 1.0
C      1  0.5397430000000  0.5342170000000  0.4669340000000 1.0
C      1  0.4871800000000  0.5124650000000  0.5527190000000 1.0
C      1  0.5528690000000  0.4764540000000  0.5453720000000 1.0
C      1  0.4694360000000  0.5535240000000  0.5502170000000 1.0
C      1  0.4894940000000  0.5169540000000  0.4967450000000 1.0
C      1  0.5271180000000  0.5283910000000  0.5293670000000 1.0
C      1  0.4375830000000  0.5113100000000  0.5495070000000 1.0
C      1  0.4520000000000  0.4886450000000  0.4291210000000 1.0
C      1  0.4535990000000  0.4778810000000  0.5005670000000 1.0
C      1  0.5697300000000  0.4945490000000  0.5021320000000 1.0
C      1  0.5628710000000  0.4909490000000  0.4743510000000 1.0
C      1  0.5571610000000  0.4463120000000  0.5075950000000 1.0
C      1  0.4826970000000  0.5672140000000  0.4959430000000 1.0
C      1  0.5144320000000  0.4778470000000  0.5126990000000 1.0
C      1  0.5631160000000  0.4646160000000  0.4642540000000 1.0
C      1  0.5106100000000  0.4551500000000  0.4928560000000 1.0
C      1  0.4565820000000  0.4732100000000  0.4733640000000 1.0
C      1  0.4650090000000  0.4563700000000  0.5163050000000 1.0
C      1  0.5252010000000  0.5491850000000  0.5088140000000 1.0
C      1  0.5502700000000  0.5442330000000  0.4933710000000 1.0
C      1  0.4315870000000  0.5302560000000  0.5292040000000 1.0
C      1  0.4891500000000  0.4553790000000  0.4452280000000 1.0
C      1  0.4981190000000  0.5034370000000  0.4426900000000 1.0
C      1  0.5418750000000  0.4463270000000  0.4625530000000 1.0
C      1  0.5125020000000  0.5457720000000  0.4618770000000 1.0
C      1  0.4427060000000  0.5456560000000  0.4839860000000 1.0
C      1  0.5011910000000  0.5457280000000  0.4905270000000 1.0
C      1  0.5362560000000  0.4375300000000  0.4909630000000 1.0
C      1  0.5669980000000  0.5237050000000  0.5110700000000 1.0
C      1  0.5049220000000  0.4908320000000  0.5624770000000 1.0
C      1  0.5359430000000  0.5054510000000  0.4751320000000 1.0
C      1  0.4562090000000  0.5623360000000  0.5027080000000 1.0
C      1  0.4702540000000  0.4481900000000  0.4674790000000 1.0
C      1  0.4903940000000  0.4648970000000  0.5597840000000 1.0
C      1  0.4629970000000  0.5004790000000  0.5396960000000 1.0
C      1  0.4983030000000  0.5314070000000  0.4420210000000 1.0
C      1  0.5176090000000  0.5056510000000  0.5030530000000 1.0
C      1  0.4833340000000  0.4412100000000  0.4945550000000 1.0
C      1  0.4362270000000  0.5208410000000  0.4994800000000 1.0
C      1  0.4430350000000  0.4907430000000  0.4556160000000 1.0
END
