TITL C-951333-8791-188 3.44112446904202e-07 125000 -1049.79762145728 0 0 167 (C1) n - 1
REM
REM in /home/bkarasulu/work/CARBON/AIRSS/Generating-Clusters/EDIP-Nigel-Params/with-SteepDescent/Only-C1/SD-CG/HFTN-CG
REM
REM
REM
REM
REM
REM ./C.cell (11c1c37f851c82e70ff6c80c92926a4b)
REM
REM compiler GCC version 9.2.1 20190827 (Red Hat 9.2.1-1)
REM options -cpp -mtune=generic -march=x86-64 -g -O0 -fpre-include=/usr/include/finclude/math-vector-fortran.h
REM seed -998573984 43553734 1319453410 1277525242 -2050746624 928163841 -1454703425 2037144431 -1403490302 -1599845803 -665634437 -266305648 -3471408 -1852591671 -1370380135 -352304233 -821898395 2043744796 1473748121 1570889550 128751164 1201063691 -1372500142 1491828986 960258341 1255582186 -74595809 -1955233865 1876282063 1963942389 -807055608 1679276807 1754526826
REM
CELL 1.54180   50.00000   50.00000   50.00000   90.00000   90.00000   90.00000
LATT -1
SFAC C  
C      1  0.5454620000000  0.4794870000000  0.5997020000000 1.0
C      1  0.5171210000000  0.3992310000000  0.4640980000000 1.0
C      1  0.5375140000000  0.4910820000000  0.4004440000000 1.0
C      1  0.5405910000000  0.5843020000000  0.5348330000000 1.0
C      1  0.5864050000000  0.4586970000000  0.4662920000000 1.0
C      1  0.4240410000000  0.4290450000000  0.5252810000000 1.0
C      1  0.4983180000000  0.4711780000000  0.5991000000000 1.0
C      1  0.4505920000000  0.5510090000000  0.5794790000000 1.0
C      1  0.5255760000000  0.5013470000000  0.5596580000000 1.0
C      1  0.3878460000000  0.4681490000000  0.5166610000000 1.0
C      1  0.5923810000000  0.5221190000000  0.5214640000000 1.0
C      1  0.5926640000000  0.4806930000000  0.4858000000000 1.0
C      1  0.4678710000000  0.5073640000000  0.5962500000000 1.0
C      1  0.5157190000000  0.5893030000000  0.4651240000000 1.0
C      1  0.4603940000000  0.5338740000000  0.5333640000000 1.0
C      1  0.5260260000000  0.4349410000000  0.5054210000000 1.0
C      1  0.5100740000000  0.5698000000000  0.5831020000000 1.0
C      1  0.5454000000000  0.4129680000000  0.5012710000000 1.0
C      1  0.5094480000000  0.4329480000000  0.5304470000000 1.0
C      1  0.3978830000000  0.5228310000000  0.5397360000000 1.0
C      1  0.5107270000000  0.5620330000000  0.4053270000000 1.0
C      1  0.5187500000000  0.4577890000000  0.4571150000000 1.0
C      1  0.4866360000000  0.4350340000000  0.5756370000000 1.0
C      1  0.4471890000000  0.4739740000000  0.4544570000000 1.0
C      1  0.4311640000000  0.5672300000000  0.5367990000000 1.0
C      1  0.5149270000000  0.5198680000000  0.6005530000000 1.0
C      1  0.5262240000000  0.4215220000000  0.4449340000000 1.0
C      1  0.5952540000000  0.4673310000000  0.5123610000000 1.0
C      1  0.5298160000000  0.4403610000000  0.5758200000000 1.0
C      1  0.4781930000000  0.5993330000000  0.4917670000000 1.0
C      1  0.5613990000000  0.5478540000000  0.5540090000000 1.0
C      1  0.5602840000000  0.4182680000000  0.4769760000000 1.0
C      1  0.5589060000000  0.4744300000000  0.4131030000000 1.0
C      1  0.4556060000000  0.5783130000000  0.5814890000000 1.0
C      1  0.4025720000000  0.4927850000000  0.5026280000000 1.0
C      1  0.4904620000000  0.4976190000000  0.4404580000000 1.0
C      1  0.4194820000000  0.5426710000000  0.4448070000000 1.0
C      1  0.5657560000000  0.5267740000000  0.5755530000000 1.0
C      1  0.4762850000000  0.5185700000000  0.4768940000000 1.0
C      1  0.4859880000000  0.5681730000000  0.4233210000000 1.0
C      1  0.4655620000000  0.4706130000000  0.4043920000000 1.0
C      1  0.5309070000000  0.5103570000000  0.4565970000000 1.0
C      1  0.5674880000000  0.5855530000000  0.4885530000000 1.0
C      1  0.4323720000000  0.4999660000000  0.4623100000000 1.0
C      1  0.4689150000000  0.4584720000000  0.4824430000000 1.0
C      1  0.4312370000000  0.5965510000000  0.4671640000000 1.0
C      1  0.5523020000000  0.4926140000000  0.5462100000000 1.0
C      1  0.4404540000000  0.4376230000000  0.5736610000000 1.0
C      1  0.4938710000000  0.4990520000000  0.6061880000000 1.0
C      1  0.5383710000000  0.5068700000000  0.5870320000000 1.0
C      1  0.4688870000000  0.5897040000000  0.5597770000000 1.0
C      1  0.4759450000000  0.4401050000000  0.4249890000000 1.0
C      1  0.5462650000000  0.4502260000000  0.4245160000000 1.0
C      1  0.4955310000000  0.4444290000000  0.4750670000000 1.0
C      1  0.4045240000000  0.5451810000000  0.4968590000000 1.0
C      1  0.4049490000000  0.5453130000000  0.4688410000000 1.0
C      1  0.4944750000000  0.5492480000000  0.4446100000000 1.0
C      1  0.4247430000000  0.5152620000000  0.4370100000000 1.0
C      1  0.5394090000000  0.5811040000000  0.4468290000000 1.0
C      1  0.4386030000000  0.5430880000000  0.5534380000000 1.0
C      1  0.5803160000000  0.5525290000000  0.4569640000000 1.0
C      1  0.5044920000000  0.4316570000000  0.4249540000000 1.0
C      1  0.6134360000000  0.5017750000000  0.4781860000000 1.0
C      1  0.5106340000000  0.4876630000000  0.4582360000000 1.0
C      1  0.4974640000000  0.4860920000000  0.5206340000000 1.0
C      1  0.5750400000000  0.4872590000000  0.4346800000000 1.0
C      1  0.5242520000000  0.5993520000000  0.4922790000000 1.0
C      1  0.4505810000000  0.4590550000000  0.5930470000000 1.0
C      1  0.5072170000000  0.5245310000000  0.4333850000000 1.0
C      1  0.4455250000000  0.4379530000000  0.4807100000000 1.0
C      1  0.5562270000000  0.5144330000000  0.5253540000000 1.0
C      1  0.5407460000000  0.5380840000000  0.5343310000000 1.0
C      1  0.5108500000000  0.4125010000000  0.5559150000000 1.0
C      1  0.5465460000000  0.5890430000000  0.5064290000000 1.0
C      1  0.6043910000000  0.5252250000000  0.4947710000000 1.0
C      1  0.4188860000000  0.5216020000000  0.5578720000000 1.0
C      1  0.5243800000000  0.4598420000000  0.5983490000000 1.0
C      1  0.4971680000000  0.5852390000000  0.5623370000000 1.0
C      1  0.5225870000000  0.4838550000000  0.5028920000000 1.0
C      1  0.4699780000000  0.3955490000000  0.4949960000000 1.0
C      1  0.4496940000000  0.5155270000000  0.4831170000000 1.0
C      1  0.4488570000000  0.4188800000000  0.5053860000000 1.0
C      1  0.5691460000000  0.5009690000000  0.4830050000000 1.0
C      1  0.4545200000000  0.4862010000000  0.5794690000000 1.0
C      1  0.5019850000000  0.5946370000000  0.5093990000000 1.0
C      1  0.5681630000000  0.4438180000000  0.5463090000000 1.0
C      1  0.5368640000000  0.5669020000000  0.4203980000000 1.0
C      1  0.5374300000000  0.5752040000000  0.5835930000000 1.0
C      1  0.5228160000000  0.4544450000000  0.5481240000000 1.0
C      1  0.5909500000000  0.5124300000000  0.4304230000000 1.0
C      1  0.4635560000000  0.4542460000000  0.5351610000000 1.0
C      1  0.5098170000000  0.5306090000000  0.4022990000000 1.0
C      1  0.5134040000000  0.4762110000000  0.4010360000000 1.0
C      1  0.5829960000000  0.4341220000000  0.4803110000000 1.0
C      1  0.4428010000000  0.5590690000000  0.4386020000000 1.0
C      1  0.5406310000000  0.4605220000000  0.5021050000000 1.0
C      1  0.3928700000000  0.4711300000000  0.5443220000000 1.0
C      1  0.4752180000000  0.5952590000000  0.4379980000000 1.0
C      1  0.4305780000000  0.5906630000000  0.4950400000000 1.0
C      1  0.6043600000000  0.5070380000000  0.5427000000000 1.0
C      1  0.4313360000000  0.4289590000000  0.4460270000000 1.0
C      1  0.5557000000000  0.4902910000000  0.4586400000000 1.0
C      1  0.4035410000000  0.4430320000000  0.5082710000000 1.0
C      1  0.5100260000000  0.5470230000000  0.4926360000000 1.0
C      1  0.6083710000000  0.4804740000000  0.5335890000000 1.0
C      1  0.5105850000000  0.5660270000000  0.5186810000000 1.0
C      1  0.4606380000000  0.5536180000000  0.4161780000000 1.0
C      1  0.4729200000000  0.4279970000000  0.5250810000000 1.0
C      1  0.5207390000000  0.4514330000000  0.4131400000000 1.0
C      1  0.4311520000000  0.4863270000000  0.5152160000000 1.0
C      1  0.6107250000000  0.5099550000000  0.4509300000000 1.0
C      1  0.4673470000000  0.4053390000000  0.5455160000000 1.0
C      1  0.5485050000000  0.4601490000000  0.4703880000000 1.0
C      1  0.4720630000000  0.5739000000000  0.4772560000000 1.0
C      1  0.4476060000000  0.5121600000000  0.5122830000000 1.0
C      1  0.4871170000000  0.4859160000000  0.3915960000000 1.0
C      1  0.3954580000000  0.5211010000000  0.5120990000000 1.0
C      1  0.5044220000000  0.4775090000000  0.5497860000000 1.0
C      1  0.4780360000000  0.4503600000000  0.6016840000000 1.0
C      1  0.4691930000000  0.4026160000000  0.4573880000000 1.0
C      1  0.4358530000000  0.4486520000000  0.5453630000000 1.0
C      1  0.5526710000000  0.5751590000000  0.5599150000000 1.0
C      1  0.4885520000000  0.5296000000000  0.4994320000000 1.0
C      1  0.4538520000000  0.6007370000000  0.5101740000000 1.0
C      1  0.4675670000000  0.4734420000000  0.5107860000000 1.0
C      1  0.5828230000000  0.5369710000000  0.4805470000000 1.0
C      1  0.4973170000000  0.3937710000000  0.5106900000000 1.0
C      1  0.4203160000000  0.5666350000000  0.5093660000000 1.0
C      1  0.4602110000000  0.5267610000000  0.4053340000000 1.0
C      1  0.4844760000000  0.5162970000000  0.3924230000000 1.0
C      1  0.5434230000000  0.5063910000000  0.5001310000000 1.0
C      1  0.5897050000000  0.4383600000000  0.5081300000000 1.0
C      1  0.5683180000000  0.4641690000000  0.5886920000000 1.0
C      1  0.4376680000000  0.5117590000000  0.4121250000000 1.0
C      1  0.4300640000000  0.4949070000000  0.5641500000000 1.0
C      1  0.4531210000000  0.5817410000000  0.4549120000000 1.0
C      1  0.4931820000000  0.6074740000000  0.4571600000000 1.0
C      1  0.4791160000000  0.4633100000000  0.5597380000000 1.0
C      1  0.4990030000000  0.5636670000000  0.4697490000000 1.0
C      1  0.5596890000000  0.5498220000000  0.4122470000000 1.0
C      1  0.4942530000000  0.3926010000000  0.5407400000000 1.0
C      1  0.4889270000000  0.5557200000000  0.5401550000000 1.0
C      1  0.5485120000000  0.4637450000000  0.5351560000000 1.0
C      1  0.5011040000000  0.5421440000000  0.5869480000000 1.0
C      1  0.5877290000000  0.5072800000000  0.5681420000000 1.0
C      1  0.5143860000000  0.5290740000000  0.5466800000000 1.0
C      1  0.4051130000000  0.4915450000000  0.4726920000000 1.0
C      1  0.5741400000000  0.5368630000000  0.4338240000000 1.0
C      1  0.5598940000000  0.4384220000000  0.5746720000000 1.0
C      1  0.5236360000000  0.3923160000000  0.4940350000000 1.0
C      1  0.4555920000000  0.5834090000000  0.5342960000000 1.0
C      1  0.5352450000000  0.5186560000000  0.3921990000000 1.0
C      1  0.4248430000000  0.4565940000000  0.4440900000000 1.0
C      1  0.4220100000000  0.4756070000000  0.5437220000000 1.0
C      1  0.4628490000000  0.4172510000000  0.5721280000000 1.0
C      1  0.5574750000000  0.5349490000000  0.3887650000000 1.0
C      1  0.4938140000000  0.5155620000000  0.5250400000000 1.0
C      1  0.5728690000000  0.4227260000000  0.5265920000000 1.0
C      1  0.4689170000000  0.4773240000000  0.4334540000000 1.0
C      1  0.4729960000000  0.5340900000000  0.5865470000000 1.0
C      1  0.4580640000000  0.4225230000000  0.4409420000000 1.0
C      1  0.5809220000000  0.4798470000000  0.5687120000000 1.0
C      1  0.4920800000000  0.4138000000000  0.4718750000000 1.0
C      1  0.5321070000000  0.5283070000000  0.4826580000000 1.0
C      1  0.5645930000000  0.5765730000000  0.4619470000000 1.0
C      1  0.4053790000000  0.4631840000000  0.4652820000000 1.0
C      1  0.4210100000000  0.4533240000000  0.4881160000000 1.0
END
