TITL C-951345-2650-254 8.10142217763335e-07 125000 -665.097763146514 0 0 107 (C1) n - 1
REM
REM in /home/bkarasulu/work/CARBON/AIRSS/Generating-Clusters/EDIP-Nigel-Params/with-SteepDescent/Only-C1/SD-CG/HFTN-CG
REM
REM
REM
REM
REM
REM ./C.cell (11c1c37f851c82e70ff6c80c92926a4b)
REM
REM compiler GCC version 9.2.1 20190827 (Red Hat 9.2.1-1)
REM options -cpp -mtune=generic -march=x86-64 -g -O0 -fpre-include=/usr/include/finclude/math-vector-fortran.h
REM seed 2117666089 419908609 -1077662329 1669927992 -1926537824 1580350188 -133383432 1896318066 449311557 1817386332 1336100897 -1740149174 -1569785929 -570585193 -1639481470 893389617 -936126131 -983506047 -2071913423 -1993641740 1547935159 803110034 1573949379 687303567 1446369651 1401481710 -1292606309 -1490666493 994701896 1324030513 15292236 -689777541 -1535269320
REM
CELL 1.54180   50.00000   50.00000   50.00000   90.00000   90.00000   90.00000
LATT -1
SFAC C  
C      1  0.5777850000000  0.4395160000000  0.4868600000000 1.0
C      1  0.5591860000000  0.5149050000000  0.4411210000000 1.0
C      1  0.4707910000000  0.5328210000000  0.4655740000000 1.0
C      1  0.4103540000000  0.5289160000000  0.5270470000000 1.0
C      1  0.5039220000000  0.4140430000000  0.4994870000000 1.0
C      1  0.4786080000000  0.5851040000000  0.4873530000000 1.0
C      1  0.4592440000000  0.4413090000000  0.4970050000000 1.0
C      1  0.5285820000000  0.4665700000000  0.4514770000000 1.0
C      1  0.4494850000000  0.5092650000000  0.5334580000000 1.0
C      1  0.5715560000000  0.4909870000000  0.4574270000000 1.0
C      1  0.5524060000000  0.4906560000000  0.5501140000000 1.0
C      1  0.5520290000000  0.4373390000000  0.5300070000000 1.0
C      1  0.5344460000000  0.5147380000000  0.4221760000000 1.0
C      1  0.5074020000000  0.5300280000000  0.5482440000000 1.0
C      1  0.5157150000000  0.4497280000000  0.5097090000000 1.0
C      1  0.4902790000000  0.5339040000000  0.5203020000000 1.0
C      1  0.5329460000000  0.5548600000000  0.5844630000000 1.0
C      1  0.4867130000000  0.4400790000000  0.4597580000000 1.0
C      1  0.5008580000000  0.5335620000000  0.4690110000000 1.0
C      1  0.4995570000000  0.4881720000000  0.4820610000000 1.0
C      1  0.5199390000000  0.5006610000000  0.5522490000000 1.0
C      1  0.4627460000000  0.4963330000000  0.5783010000000 1.0
C      1  0.4063380000000  0.5374350000000  0.5011100000000 1.0
C      1  0.5539710000000  0.4285380000000  0.5007740000000 1.0
C      1  0.4256340000000  0.5360680000000  0.4800890000000 1.0
C      1  0.4505350000000  0.4287770000000  0.5236390000000 1.0
C      1  0.5718420000000  0.4509420000000  0.4601440000000 1.0
C      1  0.5254100000000  0.4303780000000  0.5415000000000 1.0
C      1  0.5908400000000  0.4869020000000  0.5044190000000 1.0
C      1  0.4706900000000  0.4661490000000  0.5087450000000 1.0
C      1  0.5552670000000  0.4328830000000  0.4417630000000 1.0
C      1  0.5459610000000  0.5690010000000  0.5012090000000 1.0
C      1  0.5139580000000  0.5387140000000  0.4238010000000 1.0
C      1  0.4590640000000  0.4485840000000  0.4503040000000 1.0
C      1  0.4860900000000  0.5298610000000  0.4164480000000 1.0
C      1  0.4834220000000  0.5379860000000  0.5664850000000 1.0
C      1  0.5094780000000  0.5811270000000  0.5505050000000 1.0
C      1  0.5133730000000  0.4474590000000  0.4160730000000 1.0
C      1  0.4934970000000  0.4634600000000  0.5269400000000 1.0
C      1  0.5310190000000  0.4221820000000  0.4551570000000 1.0
C      1  0.5135410000000  0.5548700000000  0.4497530000000 1.0
C      1  0.4668470000000  0.5155500000000  0.5098040000000 1.0
C      1  0.5097900000000  0.5387940000000  0.4978880000000 1.0
C      1  0.4203070000000  0.5004470000000  0.5290090000000 1.0
C      1  0.4111680000000  0.4558070000000  0.5126710000000 1.0
C      1  0.4125690000000  0.4865520000000  0.5536650000000 1.0
C      1  0.4964760000000  0.5825020000000  0.5142020000000 1.0
C      1  0.5419520000000  0.4478360000000  0.4204320000000 1.0
C      1  0.5919590000000  0.4589170000000  0.5015450000000 1.0
C      1  0.5515790000000  0.4710460000000  0.4694060000000 1.0
C      1  0.4417830000000  0.4540410000000  0.4737540000000 1.0
C      1  0.4544200000000  0.5336900000000  0.4900480000000 1.0
C      1  0.4218790000000  0.5110740000000  0.4620690000000 1.0
C      1  0.4164510000000  0.4823300000000  0.5046550000000 1.0
C      1  0.5746150000000  0.5115340000000  0.5449840000000 1.0
C      1  0.5117670000000  0.4874390000000  0.5781900000000 1.0
C      1  0.5204230000000  0.4942280000000  0.5044630000000 1.0
C      1  0.5524520000000  0.5806510000000  0.4764870000000 1.0
C      1  0.4565110000000  0.5218300000000  0.5615790000000 1.0
C      1  0.4750890000000  0.4267510000000  0.5427150000000 1.0
C      1  0.5401060000000  0.4708500000000  0.5025330000000 1.0
C      1  0.5310990000000  0.4173020000000  0.4849500000000 1.0
C      1  0.5016270000000  0.4155180000000  0.5312060000000 1.0
C      1  0.4593190000000  0.5056280000000  0.4522360000000 1.0
C      1  0.5579570000000  0.4686010000000  0.5278740000000 1.0
C      1  0.4705640000000  0.4869290000000  0.4316880000000 1.0
C      1  0.5181430000000  0.5392230000000  0.6012060000000 1.0
C      1  0.5628410000000  0.5387630000000  0.4573550000000 1.0
C      1  0.4852780000000  0.5744140000000  0.4594100000000 1.0
C      1  0.4804780000000  0.4235230000000  0.4838100000000 1.0
C      1  0.4341230000000  0.4839760000000  0.4802120000000 1.0
C      1  0.5208220000000  0.4929380000000  0.4392750000000 1.0
C      1  0.5256600000000  0.5559520000000  0.5561970000000 1.0
C      1  0.4372980000000  0.5677740000000  0.4678690000000 1.0
C      1  0.5342200000000  0.4795080000000  0.5931480000000 1.0
C      1  0.4480410000000  0.5639990000000  0.5213690000000 1.0
C      1  0.5171100000000  0.5667700000000  0.4995570000000 1.0
C      1  0.5051970000000  0.4617940000000  0.4694820000000 1.0
C      1  0.4889320000000  0.5006030000000  0.5926750000000 1.0
C      1  0.5324090000000  0.5221140000000  0.5035200000000 1.0
C      1  0.4792880000000  0.4505890000000  0.5597320000000 1.0
C      1  0.4843970000000  0.5002030000000  0.4100870000000 1.0
C      1  0.5546940000000  0.5561010000000  0.5522830000000 1.0
C      1  0.5677300000000  0.5383400000000  0.5340350000000 1.0
C      1  0.4772380000000  0.5616320000000  0.5276030000000 1.0
C      1  0.5056910000000  0.4898020000000  0.5292380000000 1.0
C      1  0.5566670000000  0.5401610000000  0.5055990000000 1.0
C      1  0.4315790000000  0.4654580000000  0.5541810000000 1.0
C      1  0.4271060000000  0.4450620000000  0.5335190000000 1.0
C      1  0.5759440000000  0.5320820000000  0.4831760000000 1.0
C      1  0.4580580000000  0.4697170000000  0.5654130000000 1.0
C      1  0.4591900000000  0.5421420000000  0.4292950000000 1.0
C      1  0.4586850000000  0.5689890000000  0.4460560000000 1.0
C      1  0.5941960000000  0.4993770000000  0.5290540000000 1.0
C      1  0.5061970000000  0.4292650000000  0.4391490000000 1.0
C      1  0.5055000000000  0.5060060000000  0.4608330000000 1.0
C      1  0.4502460000000  0.5777280000000  0.4932240000000 1.0
C      1  0.5554850000000  0.4792530000000  0.5764200000000 1.0
C      1  0.4329850000000  0.5439810000000  0.5396550000000 1.0
C      1  0.4561350000000  0.4635050000000  0.4268000000000 1.0
C      1  0.4827060000000  0.5679170000000  0.5570190000000 1.0
C      1  0.4361540000000  0.5196210000000  0.4351920000000 1.0
C      1  0.5435250000000  0.5610900000000  0.4577430000000 1.0
C      1  0.4927900000000  0.5305170000000  0.5940520000000 1.0
C      1  0.5101620000000  0.4855150000000  0.4118840000000 1.0
C      1  0.5837140000000  0.5034870000000  0.4814470000000 1.0
C      1  0.4701960000000  0.4904480000000  0.4921100000000 1.0
END
