TITL C-950525-1983-677 -1.01307114962167e-06 125000 -728.499496581767 0 0 115 (C1) n - 1
REM
REM in /home/bkarasulu/work/CARBON/AIRSS/Generating-Clusters/EDIP-Nigel-Params/with-SteepDescent/Only-C1/SD-CG/HFTN-CG
REM
REM
REM
REM
REM
REM ./C.cell (11c1c37f851c82e70ff6c80c92926a4b)
REM
REM compiler GCC version 9.2.1 20190827 (Red Hat 9.2.1-1)
REM options -cpp -mtune=generic -march=x86-64 -g -O0 -fpre-include=/usr/include/finclude/math-vector-fortran.h
REM seed 894851829 1619345360 -1028431054 -180842703 -787801474 85232220 615901582 -921214791 -1344800252 1280377851 1281064544 -786067155 2080223104 -2047277484 1633254448 1748099367 1153876062 1980287207 -376344018 -403788756 -1325508196 -1102049630 589597525 -1245081869 -262325952 -17015795 202036071 -683351267 -779594129 1754823638 -1792344598 -1467865717 -311948055
REM
CELL 1.54180   50.00000   50.00000   50.00000   90.00000   90.00000   90.00000
LATT -1
SFAC C  
C      1  0.5791860000000  0.4551620000000  0.5228590000000 1.0
C      1  0.5217080000000  0.4137210000000  0.5293010000000 1.0
C      1  0.5010440000000  0.4883980000000  0.4042060000000 1.0
C      1  0.5524670000000  0.5141530000000  0.4981310000000 1.0
C      1  0.5300330000000  0.5339500000000  0.5691180000000 1.0
C      1  0.5077080000000  0.4632300000000  0.4528630000000 1.0
C      1  0.4204070000000  0.5066760000000  0.4501290000000 1.0
C      1  0.5484780000000  0.4863090000000  0.4206250000000 1.0
C      1  0.5249700000000  0.5648190000000  0.5615410000000 1.0
C      1  0.5416560000000  0.5336330000000  0.4789610000000 1.0
C      1  0.4863560000000  0.4790660000000  0.5983530000000 1.0
C      1  0.5084670000000  0.5413570000000  0.5275820000000 1.0
C      1  0.4259050000000  0.4704030000000  0.5227830000000 1.0
C      1  0.5286900000000  0.4816380000000  0.5684350000000 1.0
C      1  0.4538810000000  0.5148390000000  0.4691270000000 1.0
C      1  0.4143500000000  0.4970950000000  0.4778140000000 1.0
C      1  0.4109540000000  0.5580900000000  0.4845410000000 1.0
C      1  0.4802490000000  0.5177080000000  0.5707030000000 1.0
C      1  0.4454520000000  0.5318680000000  0.4912740000000 1.0
C      1  0.4501270000000  0.4226200000000  0.4812290000000 1.0
C      1  0.5799610000000  0.5579890000000  0.4715810000000 1.0
C      1  0.5543710000000  0.5292990000000  0.5248430000000 1.0
C      1  0.4721150000000  0.4809560000000  0.5024270000000 1.0
C      1  0.4636380000000  0.4924880000000  0.5844450000000 1.0
C      1  0.4567740000000  0.4337660000000  0.5373380000000 1.0
C      1  0.5178360000000  0.4186430000000  0.4995140000000 1.0
C      1  0.4870070000000  0.4839730000000  0.4496790000000 1.0
C      1  0.5931440000000  0.4735640000000  0.5386320000000 1.0
C      1  0.5030630000000  0.5126720000000  0.4857810000000 1.0
C      1  0.5270090000000  0.5973480000000  0.5232500000000 1.0
C      1  0.4646150000000  0.5304340000000  0.5135590000000 1.0
C      1  0.4860750000000  0.4991340000000  0.5467710000000 1.0
C      1  0.4777680000000  0.3979600000000  0.5137160000000 1.0
C      1  0.4958030000000  0.5395110000000  0.4273120000000 1.0
C      1  0.4599200000000  0.4725720000000  0.4105290000000 1.0
C      1  0.5262020000000  0.5728390000000  0.4430270000000 1.0
C      1  0.5417220000000  0.4236370000000  0.4836320000000 1.0
C      1  0.5236770000000  0.4511130000000  0.5648100000000 1.0
C      1  0.5720930000000  0.4617570000000  0.4953840000000 1.0
C      1  0.4538140000000  0.5485630000000  0.5368630000000 1.0
C      1  0.4715190000000  0.5234600000000  0.4245870000000 1.0
C      1  0.4968120000000  0.5608030000000  0.5471960000000 1.0
C      1  0.5221550000000  0.5309340000000  0.4193790000000 1.0
C      1  0.5751310000000  0.5422620000000  0.4454520000000 1.0
C      1  0.4156200000000  0.4680990000000  0.4852700000000 1.0
C      1  0.4035060000000  0.5393200000000  0.5037330000000 1.0
C      1  0.5784140000000  0.5340900000000  0.5660930000000 1.0
C      1  0.4944120000000  0.4048330000000  0.5385650000000 1.0
C      1  0.5734200000000  0.4924530000000  0.5461660000000 1.0
C      1  0.5506850000000  0.5246090000000  0.4522470000000 1.0
C      1  0.4388190000000  0.4560130000000  0.5459530000000 1.0
C      1  0.5283730000000  0.5242290000000  0.5402860000000 1.0
C      1  0.4948890000000  0.4008520000000  0.4888430000000 1.0
C      1  0.4235150000000  0.5127150000000  0.5509560000000 1.0
C      1  0.5069050000000  0.5207730000000  0.5845360000000 1.0
C      1  0.5268670000000  0.4944060000000  0.4933050000000 1.0
C      1  0.5251940000000  0.5023240000000  0.4126800000000 1.0
C      1  0.4175210000000  0.4873370000000  0.4303950000000 1.0
C      1  0.4329300000000  0.4723450000000  0.4150140000000 1.0
C      1  0.4493100000000  0.4602560000000  0.5032350000000 1.0
C      1  0.4550850000000  0.4175220000000  0.5120020000000 1.0
C      1  0.5527050000000  0.4498820000000  0.4753410000000 1.0
C      1  0.4916350000000  0.4457590000000  0.4717010000000 1.0
C      1  0.4394170000000  0.4512420000000  0.4747060000000 1.0
C      1  0.4791870000000  0.4976250000000  0.4750140000000 1.0
C      1  0.4941960000000  0.4472950000000  0.5682820000000 1.0
C      1  0.5807870000000  0.4779000000000  0.4524430000000 1.0
C      1  0.4214540000000  0.5159200000000  0.5003350000000 1.0
C      1  0.4789470000000  0.4244480000000  0.5546880000000 1.0
C      1  0.5175340000000  0.4489940000000  0.4270990000000 1.0
C      1  0.5949180000000  0.5328540000000  0.4776550000000 1.0
C      1  0.5309790000000  0.5793820000000  0.4722220000000 1.0
C      1  0.4779050000000  0.4934080000000  0.4226340000000 1.0
C      1  0.4343280000000  0.5723620000000  0.4795770000000 1.0
C      1  0.5359690000000  0.4352020000000  0.5436970000000 1.0
C      1  0.4867480000000  0.4508500000000  0.5961160000000 1.0
C      1  0.4636460000000  0.5023170000000  0.5233070000000 1.0
C      1  0.4562690000000  0.5769050000000  0.5259760000000 1.0
C      1  0.5525080000000  0.5605050000000  0.4859140000000 1.0
C      1  0.5036260000000  0.5800790000000  0.4842470000000 1.0
C      1  0.4927560000000  0.5322290000000  0.5054800000000 1.0
C      1  0.4462400000000  0.4735300000000  0.5688580000000 1.0
C      1  0.5123340000000  0.4928140000000  0.5918910000000 1.0
C      1  0.5571600000000  0.4925870000000  0.5711160000000 1.0
C      1  0.5422090000000  0.5520730000000  0.4276390000000 1.0
C      1  0.5020800000000  0.5944180000000  0.5103600000000 1.0
C      1  0.5880760000000  0.4816780000000  0.4809860000000 1.0
C      1  0.5562630000000  0.5219470000000  0.5788740000000 1.0
C      1  0.5198960000000  0.4809180000000  0.5185210000000 1.0
C      1  0.4552650000000  0.5585770000000  0.4632980000000 1.0
C      1  0.5811790000000  0.5095810000000  0.4886720000000 1.0
C      1  0.4825540000000  0.5724110000000  0.4636820000000 1.0
C      1  0.4732490000000  0.5455780000000  0.5600760000000 1.0
C      1  0.5624820000000  0.4385060000000  0.5368430000000 1.0
C      1  0.4800500000000  0.4685130000000  0.5506920000000 1.0
C      1  0.4841900000000  0.5841780000000  0.5317870000000 1.0
C      1  0.4786180000000  0.4181740000000  0.4692050000000 1.0
C      1  0.5546450000000  0.5584870000000  0.5175130000000 1.0
C      1  0.4952720000000  0.4653300000000  0.5166230000000 1.0
C      1  0.4321020000000  0.5001050000000  0.5262270000000 1.0
C      1  0.4494800000000  0.5315660000000  0.4433030000000 1.0
C      1  0.5331120000000  0.4748840000000  0.4685180000000 1.0
C      1  0.5471580000000  0.4558210000000  0.4233160000000 1.0
C      1  0.5665790000000  0.4501780000000  0.4475230000000 1.0
C      1  0.4047400000000  0.5492480000000  0.5296680000000 1.0
C      1  0.4742060000000  0.4496060000000  0.4029610000000 1.0
C      1  0.5014500000000  0.4583030000000  0.4032350000000 1.0
C      1  0.4446820000000  0.5850750000000  0.5019920000000 1.0
C      1  0.5785560000000  0.5209050000000  0.5409070000000 1.0
C      1  0.5540630000000  0.4929880000000  0.4488750000000 1.0
C      1  0.5052000000000  0.4451760000000  0.4968530000000 1.0
C      1  0.4976850000000  0.5656950000000  0.4398060000000 1.0
C      1  0.4259380000000  0.5400100000000  0.5451110000000 1.0
C      1  0.5169240000000  0.4963990000000  0.5428420000000 1.0
C      1  0.5410730000000  0.5770000000000  0.5372310000000 1.0
END
