TITL C-951335-1172-169 8.84948304572208e-07 125000 -1219.83389442492 0 0 192 (C1) n - 1
REM
REM in /home/bkarasulu/work/CARBON/AIRSS/Generating-Clusters/EDIP-Nigel-Params/with-SteepDescent/Only-C1/SD-CG/HFTN-CG
REM
REM
REM
REM
REM
REM ./C.cell (11c1c37f851c82e70ff6c80c92926a4b)
REM
REM compiler GCC version 9.2.1 20190827 (Red Hat 9.2.1-1)
REM options -cpp -mtune=generic -march=x86-64 -g -O0 -fpre-include=/usr/include/finclude/math-vector-fortran.h
REM seed 1037107993 -1488747960 1335250185 570118948 -750883391 863354122 1927255736 -357863047 -496884204 -1636517668 2090638617 561965825 -1067670648 -1002523435 825941204 -1285625344 1000695302 -70632673 942567376 -781053209 1665721741 293981720 -58680199 -52144368 1219420724 341198680 -1141779210 -1523538524 192446341 -1190323681 -826625301 -1839823787 226879387
REM
CELL 1.54180   50.00000   50.00000   50.00000   90.00000   90.00000   90.00000
LATT -1
SFAC C  
C      1  0.4618930000000  0.6027770000000  0.4647910000000 1.0
C      1  0.4526860000000  0.3991610000000  0.4660910000000 1.0
C      1  0.6162080000000  0.5135500000000  0.5191680000000 1.0
C      1  0.5301860000000  0.5734240000000  0.5948180000000 1.0
C      1  0.5776170000000  0.5038350000000  0.5139370000000 1.0
C      1  0.5483740000000  0.4988070000000  0.5022060000000 1.0
C      1  0.4954490000000  0.4460950000000  0.5895280000000 1.0
C      1  0.5351840000000  0.5367120000000  0.4727930000000 1.0
C      1  0.4383470000000  0.5822540000000  0.4992800000000 1.0
C      1  0.4784830000000  0.4198880000000  0.4169630000000 1.0
C      1  0.5569900000000  0.4923690000000  0.6034970000000 1.0
C      1  0.5682160000000  0.5449860000000  0.6016090000000 1.0
C      1  0.5091700000000  0.4944410000000  0.4053980000000 1.0
C      1  0.5640580000000  0.4901120000000  0.4156430000000 1.0
C      1  0.5218870000000  0.4036460000000  0.4316150000000 1.0
C      1  0.4494740000000  0.5118060000000  0.4453040000000 1.0
C      1  0.5091240000000  0.3927370000000  0.5364250000000 1.0
C      1  0.5034300000000  0.6226030000000  0.4839830000000 1.0
C      1  0.4205140000000  0.5346930000000  0.4545820000000 1.0
C      1  0.6145210000000  0.4848630000000  0.5233990000000 1.0
C      1  0.4075530000000  0.4799330000000  0.4371080000000 1.0
C      1  0.4525160000000  0.4413510000000  0.4789020000000 1.0
C      1  0.4224260000000  0.5660390000000  0.4559610000000 1.0
C      1  0.5370770000000  0.5775460000000  0.4350610000000 1.0
C      1  0.4123930000000  0.4791250000000  0.5383920000000 1.0
C      1  0.5184140000000  0.4461790000000  0.4030380000000 1.0
C      1  0.4049210000000  0.5277790000000  0.5464030000000 1.0
C      1  0.4818340000000  0.4797380000000  0.4773010000000 1.0
C      1  0.4467120000000  0.5769400000000  0.4716510000000 1.0
C      1  0.4622600000000  0.4851840000000  0.5371250000000 1.0
C      1  0.4370320000000  0.4978000000000  0.5284520000000 1.0
C      1  0.5433200000000  0.5422060000000  0.5194850000000 1.0
C      1  0.5237460000000  0.4651990000000  0.5468230000000 1.0
C      1  0.5533910000000  0.4262980000000  0.5339880000000 1.0
C      1  0.6013540000000  0.4808860000000  0.4724190000000 1.0
C      1  0.4536290000000  0.4879580000000  0.4942690000000 1.0
C      1  0.5066800000000  0.6145690000000  0.4551930000000 1.0
C      1  0.4512660000000  0.5880370000000  0.5608250000000 1.0
C      1  0.4822860000000  0.6016090000000  0.4435640000000 1.0
C      1  0.4816250000000  0.4706100000000  0.5836900000000 1.0
C      1  0.4371430000000  0.4690300000000  0.4779940000000 1.0
C      1  0.5658610000000  0.5407330000000  0.4182320000000 1.0
C      1  0.4494340000000  0.4246140000000  0.4194120000000 1.0
C      1  0.3938250000000  0.5120400000000  0.5671190000000 1.0
C      1  0.4064840000000  0.4685450000000  0.4807230000000 1.0
C      1  0.4226290000000  0.4516450000000  0.5375470000000 1.0
C      1  0.4408980000000  0.5509980000000  0.4187730000000 1.0
C      1  0.4633210000000  0.3786400000000  0.5109420000000 1.0
C      1  0.5319230000000  0.4446270000000  0.4636760000000 1.0
C      1  0.4915240000000  0.5305110000000  0.4721000000000 1.0
C      1  0.5978370000000  0.5286150000000  0.5012030000000 1.0
C      1  0.5082840000000  0.5062660000000  0.6104810000000 1.0
C      1  0.4449430000000  0.5147970000000  0.4891530000000 1.0
C      1  0.5495270000000  0.5173840000000  0.4220660000000 1.0
C      1  0.5634590000000  0.5653210000000  0.4312920000000 1.0
C      1  0.5332250000000  0.4379160000000  0.5533420000000 1.0
C      1  0.6030280000000  0.4712720000000  0.4997880000000 1.0
C      1  0.4535570000000  0.6031240000000  0.5122450000000 1.0
C      1  0.5354120000000  0.4250990000000  0.4144440000000 1.0
C      1  0.5311370000000  0.5685030000000  0.5237910000000 1.0
C      1  0.5167550000000  0.5327730000000  0.6116160000000 1.0
C      1  0.4804280000000  0.5137160000000  0.4491610000000 1.0
C      1  0.4390680000000  0.4214200000000  0.4480810000000 1.0
C      1  0.4448420000000  0.5196650000000  0.5729340000000 1.0
C      1  0.4899280000000  0.4465770000000  0.5117120000000 1.0
C      1  0.5891140000000  0.4521770000000  0.5526890000000 1.0
C      1  0.5526680000000  0.5667490000000  0.6102540000000 1.0
C      1  0.4821880000000  0.4494030000000  0.4825040000000 1.0
C      1  0.5705850000000  0.5706570000000  0.4992700000000 1.0
C      1  0.5429970000000  0.5306530000000  0.5443910000000 1.0
C      1  0.4186480000000  0.5681060000000  0.4156330000000 1.0
C      1  0.5403120000000  0.3977320000000  0.4541950000000 1.0
C      1  0.5267010000000  0.3889360000000  0.4797900000000 1.0
C      1  0.5752620000000  0.5703340000000  0.5556190000000 1.0
C      1  0.5390740000000  0.5172380000000  0.4508810000000 1.0
C      1  0.5525110000000  0.5802210000000  0.5406630000000 1.0
C      1  0.3972940000000  0.4990380000000  0.4796870000000 1.0
C      1  0.5257570000000  0.4895330000000  0.5642100000000 1.0
C      1  0.3936910000000  0.4547960000000  0.5042170000000 1.0
C      1  0.4118920000000  0.4303970000000  0.4503840000000 1.0
C      1  0.5086760000000  0.5428940000000  0.4076400000000 1.0
C      1  0.4781370000000  0.5773040000000  0.5580520000000 1.0
C      1  0.4253380000000  0.4459310000000  0.5841420000000 1.0
C      1  0.4711310000000  0.4623370000000  0.3932720000000 1.0
C      1  0.5577060000000  0.3995430000000  0.5495330000000 1.0
C      1  0.5010570000000  0.5342830000000  0.5569140000000 1.0
C      1  0.4174390000000  0.5229970000000  0.4820210000000 1.0
C      1  0.4177160000000  0.4735640000000  0.5873990000000 1.0
C      1  0.5330090000000  0.6019470000000  0.4507020000000 1.0
C      1  0.4788030000000  0.5654550000000  0.5280870000000 1.0
C      1  0.4996230000000  0.4926580000000  0.4366120000000 1.0
C      1  0.6006420000000  0.4925760000000  0.5742500000000 1.0
C      1  0.5771060000000  0.5034710000000  0.5456340000000 1.0
C      1  0.6065730000000  0.5286380000000  0.4727900000000 1.0
C      1  0.5278250000000  0.4726100000000  0.3967570000000 1.0
C      1  0.5009380000000  0.4399970000000  0.4567220000000 1.0
C      1  0.4520000000000  0.5482420000000  0.5239170000000 1.0
C      1  0.4131010000000  0.5105570000000  0.4136510000000 1.0
C      1  0.5789780000000  0.4399820000000  0.5290050000000 1.0
C      1  0.5512950000000  0.6092890000000  0.4721770000000 1.0
C      1  0.4456650000000  0.3953320000000  0.4951560000000 1.0
C      1  0.5068870000000  0.4703080000000  0.5232150000000 1.0
C      1  0.4560890000000  0.4653720000000  0.4351280000000 1.0
C      1  0.5282410000000  0.4838480000000  0.5956320000000 1.0
C      1  0.6012830000000  0.5508170000000  0.4569350000000 1.0
C      1  0.3877070000000  0.4781060000000  0.5210760000000 1.0
C      1  0.5079860000000  0.5560490000000  0.5989890000000 1.0
C      1  0.4900860000000  0.4430880000000  0.4043830000000 1.0
C      1  0.4865390000000  0.3962960000000  0.5134750000000 1.0
C      1  0.4819260000000  0.5598690000000  0.4691090000000 1.0
C      1  0.4467040000000  0.4539920000000  0.4092860000000 1.0
C      1  0.4895090000000  0.4953990000000  0.5303830000000 1.0
C      1  0.4670470000000  0.5620870000000  0.4153400000000 1.0
C      1  0.5530420000000  0.4060390000000  0.5778610000000 1.0
C      1  0.5404480000000  0.5666800000000  0.4760790000000 1.0
C      1  0.4014960000000  0.4851090000000  0.5657620000000 1.0
C      1  0.5731250000000  0.5871620000000  0.4748900000000 1.0
C      1  0.4086930000000  0.4356200000000  0.5189660000000 1.0
C      1  0.4375700000000  0.4825910000000  0.4490320000000 1.0
C      1  0.4805460000000  0.5404280000000  0.4012730000000 1.0
C      1  0.5469580000000  0.4360760000000  0.5800940000000 1.0
C      1  0.4776930000000  0.6055410000000  0.4912150000000 1.0
C      1  0.4988400000000  0.3969580000000  0.4853760000000 1.0
C      1  0.5723590000000  0.4530050000000  0.5766140000000 1.0
C      1  0.5387070000000  0.4250610000000  0.5085220000000 1.0
C      1  0.4664720000000  0.5318290000000  0.5893040000000 1.0
C      1  0.4859940000000  0.5724550000000  0.4376500000000 1.0
C      1  0.4877440000000  0.4256440000000  0.5683740000000 1.0
C      1  0.5266790000000  0.4766000000000  0.5010210000000 1.0
C      1  0.5006770000000  0.5446060000000  0.5291800000000 1.0
C      1  0.3900900000000  0.5282780000000  0.5200470000000 1.0
C      1  0.5800210000000  0.4385220000000  0.4735760000000 1.0
C      1  0.4354640000000  0.5252040000000  0.5437780000000 1.0
C      1  0.4918220000000  0.5210690000000  0.5095330000000 1.0
C      1  0.5257540000000  0.5999360000000  0.5852810000000 1.0
C      1  0.5548300000000  0.4785090000000  0.3921170000000 1.0
C      1  0.4856970000000  0.4659160000000  0.4415730000000 1.0
C      1  0.5398910000000  0.4695620000000  0.4520190000000 1.0
C      1  0.5251790000000  0.5196220000000  0.4041960000000 1.0
C      1  0.5295350000000  0.6107510000000  0.4941570000000 1.0
C      1  0.5225720000000  0.6070920000000  0.5584540000000 1.0
C      1  0.5925300000000  0.5274910000000  0.5593660000000 1.0
C      1  0.5874070000000  0.4615890000000  0.4560920000000 1.0
C      1  0.5109420000000  0.4168910000000  0.5541450000000 1.0
C      1  0.4643890000000  0.5155800000000  0.3960620000000 1.0
C      1  0.5341820000000  0.5244360000000  0.4989410000000 1.0
C      1  0.4422250000000  0.4908130000000  0.5831030000000 1.0
C      1  0.5360680000000  0.4493010000000  0.4915540000000 1.0
C      1  0.5789130000000  0.4781500000000  0.5900310000000 1.0
C      1  0.5968340000000  0.5597000000000  0.5386920000000 1.0
C      1  0.5627030000000  0.5190670000000  0.6110520000000 1.0
C      1  0.4056740000000  0.5437400000000  0.5008560000000 1.0
C      1  0.4411480000000  0.5209790000000  0.4161960000000 1.0
C      1  0.5245610000000  0.4518340000000  0.5971800000000 1.0
C      1  0.5643160000000  0.4664000000000  0.4359190000000 1.0
C      1  0.4640630000000  0.5335420000000  0.4994490000000 1.0
C      1  0.4581260000000  0.4714470000000  0.5628010000000 1.0
C      1  0.3880980000000  0.5007080000000  0.4507320000000 1.0
C      1  0.5552540000000  0.4251440000000  0.4562240000000 1.0
C      1  0.5381270000000  0.3846500000000  0.5295030000000 1.0
C      1  0.4957510000000  0.6010080000000  0.5623860000000 1.0
C      1  0.4633950000000  0.4259680000000  0.5514930000000 1.0
C      1  0.4907560000000  0.5775180000000  0.4948560000000 1.0
C      1  0.4948230000000  0.4132650000000  0.4412130000000 1.0
C      1  0.4198450000000  0.5657230000000  0.5129380000000 1.0
C      1  0.5224170000000  0.5810960000000  0.4970440000000 1.0
C      1  0.5605100000000  0.4350180000000  0.4272780000000 1.0
C      1  0.6084600000000  0.4739850000000  0.5513360000000 1.0
C      1  0.6122300000000  0.5040430000000  0.4620080000000 1.0
C      1  0.4477430000000  0.4236920000000  0.5030610000000 1.0
C      1  0.4488400000000  0.6051260000000  0.5396700000000 1.0
C      1  0.3994430000000  0.5232620000000  0.4361800000000 1.0
C      1  0.4872400000000  0.5508590000000  0.5776770000000 1.0
C      1  0.3815360000000  0.5025290000000  0.5056790000000 1.0
C      1  0.3992000000000  0.4550100000000  0.4542450000000 1.0
C      1  0.4093780000000  0.5830020000000  0.4363340000000 1.0
C      1  0.4815340000000  0.4913900000000  0.3929290000000 1.0
C      1  0.5729280000000  0.5459300000000  0.5730740000000 1.0
C      1  0.5928150000000  0.5563630000000  0.5107600000000 1.0
C      1  0.5489770000000  0.5061390000000  0.5550000000000 1.0
C      1  0.5231870000000  0.4931380000000  0.4554650000000 1.0
C      1  0.4818500000000  0.3960420000000  0.4619090000000 1.0
C      1  0.5442340000000  0.3968470000000  0.5018320000000 1.0
C      1  0.5127130000000  0.5656520000000  0.4253900000000 1.0
C      1  0.4781900000000  0.5109260000000  0.6089360000000 1.0
C      1  0.5880640000000  0.4469760000000  0.5018630000000 1.0
C      1  0.4651880000000  0.4854680000000  0.6042520000000 1.0
C      1  0.4417370000000  0.4460650000000  0.5596360000000 1.0
C      1  0.5835080000000  0.5715620000000  0.4511710000000 1.0
C      1  0.5005310000000  0.5049750000000  0.5568030000000 1.0
C      1  0.4720430000000  0.4238400000000  0.5214190000000 1.0
C      1  0.5093050000000  0.4918750000000  0.4820380000000 1.0
END
