TITL C-950533-5798-654 -4.48287080852949e-06 125000 -547.783619527356 0 0 88 (C1) n - 1
REM
REM in /home/bkarasulu/work/CARBON/AIRSS/Generating-Clusters/EDIP-Nigel-Params/with-SteepDescent/Only-C1/SD-CG/HFTN-CG
REM
REM
REM
REM
REM
REM ./C.cell (11c1c37f851c82e70ff6c80c92926a4b)
REM
REM compiler GCC version 9.2.1 20190827 (Red Hat 9.2.1-1)
REM options -cpp -mtune=generic -march=x86-64 -g -O0 -fpre-include=/usr/include/finclude/math-vector-fortran.h
REM seed -1076610463 1368149236 -833412904 -741777493 -740177654 1157595177 -2110008416 1685507854 1929485181 1840369714 -377049719 -812922356 1231740535 1358083246 -296355231 -444037707 -1079332521 28824120 1438332839 -643952033 472411058 1356694341 1040984498 -1672073263 -2115171157 -584507735 -1695543908 1385740105 -1758492386 -316281419 765485585 834868283 614496383
REM
CELL 1.54180   50.00000   50.00000   50.00000   90.00000   90.00000   90.00000
LATT -1
SFAC C  
C      1  0.5160820000000  0.5402900000000  0.5032460000000 1.0
C      1  0.4748410000000  0.5508110000000  0.4758880000000 1.0
C      1  0.4698840000000  0.5420630000000  0.4482840000000 1.0
C      1  0.5776410000000  0.4858550000000  0.5001260000000 1.0
C      1  0.5121580000000  0.5866520000000  0.5198860000000 1.0
C      1  0.4415960000000  0.4398510000000  0.5295510000000 1.0
C      1  0.5214740000000  0.5261400000000  0.4232280000000 1.0
C      1  0.4659040000000  0.4806520000000  0.4798780000000 1.0
C      1  0.4823170000000  0.4417420000000  0.5603770000000 1.0
C      1  0.5564370000000  0.5356510000000  0.5369340000000 1.0
C      1  0.4492690000000  0.4654350000000  0.4364650000000 1.0
C      1  0.5566250000000  0.5562160000000  0.5121590000000 1.0
C      1  0.4914710000000  0.5298990000000  0.4922310000000 1.0
C      1  0.5297350000000  0.4724370000000  0.4969880000000 1.0
C      1  0.5196040000000  0.4882750000000  0.5702350000000 1.0
C      1  0.4550080000000  0.5134960000000  0.4261850000000 1.0
C      1  0.5298400000000  0.4609610000000  0.5660100000000 1.0
C      1  0.4811050000000  0.5175160000000  0.4389440000000 1.0
C      1  0.4688340000000  0.4320860000000  0.5352480000000 1.0
C      1  0.5276510000000  0.5082010000000  0.5311160000000 1.0
C      1  0.4508820000000  0.5375220000000  0.5374480000000 1.0
C      1  0.5658170000000  0.5404020000000  0.4893930000000 1.0
C      1  0.5236880000000  0.5539750000000  0.4278480000000 1.0
C      1  0.5106320000000  0.5501540000000  0.5562260000000 1.0
C      1  0.5750250000000  0.5096240000000  0.5379020000000 1.0
C      1  0.4637850000000  0.5803130000000  0.5190820000000 1.0
C      1  0.4329590000000  0.5122730000000  0.5388110000000 1.0
C      1  0.4378150000000  0.4382160000000  0.4814650000000 1.0
C      1  0.4582320000000  0.4749200000000  0.5296150000000 1.0
C      1  0.4853900000000  0.4297050000000  0.4850780000000 1.0
C      1  0.4957870000000  0.5060310000000  0.5368850000000 1.0
C      1  0.4446830000000  0.4886830000000  0.5518980000000 1.0
C      1  0.5539150000000  0.4778310000000  0.5128990000000 1.0
C      1  0.4603860000000  0.4279360000000  0.4677180000000 1.0
C      1  0.4908380000000  0.5774970000000  0.4762100000000 1.0
C      1  0.5522970000000  0.4891450000000  0.5397850000000 1.0
C      1  0.4799220000000  0.5143040000000  0.5710180000000 1.0
C      1  0.5833860000000  0.4659140000000  0.4814810000000 1.0
C      1  0.5346890000000  0.5121670000000  0.5737240000000 1.0
C      1  0.4920360000000  0.4897610000000  0.5778660000000 1.0
C      1  0.5626890000000  0.4518690000000  0.4683550000000 1.0
C      1  0.4874720000000  0.5414200000000  0.5717920000000 1.0
C      1  0.5285430000000  0.4972200000000  0.4792550000000 1.0
C      1  0.5323330000000  0.5554700000000  0.4547220000000 1.0
C      1  0.5370000000000  0.5377410000000  0.5610810000000 1.0
C      1  0.5211440000000  0.5737650000000  0.4743310000000 1.0
C      1  0.4929800000000  0.4860830000000  0.4106040000000 1.0
C      1  0.4300640000000  0.4503420000000  0.5057900000000 1.0
C      1  0.4734890000000  0.5796600000000  0.5477480000000 1.0
C      1  0.5017350000000  0.5139760000000  0.4065100000000 1.0
C      1  0.4607870000000  0.4858760000000  0.4164940000000 1.0
C      1  0.5577130000000  0.5435270000000  0.4617950000000 1.0
C      1  0.4881120000000  0.4196760000000  0.5146490000000 1.0
C      1  0.4510500000000  0.5541530000000  0.5129360000000 1.0
C      1  0.5441640000000  0.5097180000000  0.4304190000000 1.0
C      1  0.5568890000000  0.4387120000000  0.5329580000000 1.0
C      1  0.5365640000000  0.5188760000000  0.5018230000000 1.0
C      1  0.4406290000000  0.4782200000000  0.4629470000000 1.0
C      1  0.4174410000000  0.4754510000000  0.5077350000000 1.0
C      1  0.5120520000000  0.4363920000000  0.4685440000000 1.0
C      1  0.4956900000000  0.4562960000000  0.4507110000000 1.0
C      1  0.5560760000000  0.4648570000000  0.4448230000000 1.0
C      1  0.4204440000000  0.5039660000000  0.5117090000000 1.0
C      1  0.4765000000000  0.5181140000000  0.5158020000000 1.0
C      1  0.5019090000000  0.5073080000000  0.4767490000000 1.0
C      1  0.4271900000000  0.5191620000000  0.4863770000000 1.0
C      1  0.5037100000000  0.5774460000000  0.5470230000000 1.0
C      1  0.4870310000000  0.5910050000000  0.5030160000000 1.0
C      1  0.5928360000000  0.5028570000000  0.5167230000000 1.0
C      1  0.4821040000000  0.4579720000000  0.4929080000000 1.0
C      1  0.4857390000000  0.4932290000000  0.4594220000000 1.0
C      1  0.4724410000000  0.4686980000000  0.5702300000000 1.0
C      1  0.5115740000000  0.4395810000000  0.5547610000000 1.0
C      1  0.4632850000000  0.5543480000000  0.5605850000000 1.0
C      1  0.4886230000000  0.4772250000000  0.5356840000000 1.0
C      1  0.5105170000000  0.4722810000000  0.4309700000000 1.0
C      1  0.5124830000000  0.4357280000000  0.5242200000000 1.0
C      1  0.4272740000000  0.5035060000000  0.4627030000000 1.0
C      1  0.4394770000000  0.5455750000000  0.4880610000000 1.0
C      1  0.4582130000000  0.4953970000000  0.5061980000000 1.0
C      1  0.5372240000000  0.4454660000000  0.4844440000000 1.0
C      1  0.5356320000000  0.4846460000000  0.4434390000000 1.0
C      1  0.5036850000000  0.4632770000000  0.5129080000000 1.0
C      1  0.5559220000000  0.4593750000000  0.5528740000000 1.0
C      1  0.5647000000000  0.5235930000000  0.4436550000000 1.0
C      1  0.4689940000000  0.4437450000000  0.4431830000000 1.0
C      1  0.5283370000000  0.5670360000000  0.5031140000000 1.0
C      1  0.5398960000000  0.4295650000000  0.5118900000000 1.0
END
