TITL C-951339-9237-338 -1.32855718693993e-06 125000 -1182.71183158889 0 0 189 (C1) n - 1
REM
REM in /home/bkarasulu/work/CARBON/AIRSS/Generating-Clusters/EDIP-Nigel-Params/with-SteepDescent/Only-C1/SD-CG/HFTN-CG
REM
REM
REM
REM
REM
REM ./C.cell (11c1c37f851c82e70ff6c80c92926a4b)
REM
REM compiler GCC version 9.2.1 20190827 (Red Hat 9.2.1-1)
REM options -cpp -mtune=generic -march=x86-64 -g -O0 -fpre-include=/usr/include/finclude/math-vector-fortran.h
REM seed -1864803508 886624987 1050277200 1580978074 693172168 -464984720 765808595 846504113 1253597577 -748789804 1897873214 -691935930 -1951941144 912308518 -1947284721 1289887768 -1796746464 -1350694473 -360001821 -2140299931 -625464397 287163631 -1626581920 1011203464 2080096342 526026349 -1587542668 1953101814 -1928244602 1760041978 1427765353 -403977757 -120846093
REM
CELL 1.54180   50.00000   50.00000   50.00000   90.00000   90.00000   90.00000
LATT -1
SFAC C  
C      1  0.4415070000000  0.5768660000000  0.4601540000000 1.0
C      1  0.5184820000000  0.4889860000000  0.5775350000000 1.0
C      1  0.5415830000000  0.4119030000000  0.5523500000000 1.0
C      1  0.4863400000000  0.5658480000000  0.4751350000000 1.0
C      1  0.4548380000000  0.5172530000000  0.5490110000000 1.0
C      1  0.4920990000000  0.3907850000000  0.5437110000000 1.0
C      1  0.3868340000000  0.4943970000000  0.5305620000000 1.0
C      1  0.6086140000000  0.4842570000000  0.4944040000000 1.0
C      1  0.4326090000000  0.4744140000000  0.5433130000000 1.0
C      1  0.5416970000000  0.5270120000000  0.4926310000000 1.0
C      1  0.5090170000000  0.4602140000000  0.3974830000000 1.0
C      1  0.4970880000000  0.6198720000000  0.4958320000000 1.0
C      1  0.5114210000000  0.5361400000000  0.5555110000000 1.0
C      1  0.4433440000000  0.4450700000000  0.4991550000000 1.0
C      1  0.5194600000000  0.4001120000000  0.4508340000000 1.0
C      1  0.4759960000000  0.5421180000000  0.4232060000000 1.0
C      1  0.4996630000000  0.5912020000000  0.5379770000000 1.0
C      1  0.4452490000000  0.4807130000000  0.4580630000000 1.0
C      1  0.4959440000000  0.4459410000000  0.5001900000000 1.0
C      1  0.5335210000000  0.4750160000000  0.5237950000000 1.0
C      1  0.5198380000000  0.5289230000000  0.4471810000000 1.0
C      1  0.5723750000000  0.5233580000000  0.5725400000000 1.0
C      1  0.4798630000000  0.5224700000000  0.6049360000000 1.0
C      1  0.5274600000000  0.4236280000000  0.4145870000000 1.0
C      1  0.5362410000000  0.4030850000000  0.5248800000000 1.0
C      1  0.6084700000000  0.4805590000000  0.5708990000000 1.0
C      1  0.4754050000000  0.5299630000000  0.3959520000000 1.0
C      1  0.4769360000000  0.4257250000000  0.4151030000000 1.0
C      1  0.4858450000000  0.4882470000000  0.3730270000000 1.0
C      1  0.5601480000000  0.4331180000000  0.5503220000000 1.0
C      1  0.5583890000000  0.4163760000000  0.5068480000000 1.0
C      1  0.4702650000000  0.4301930000000  0.5071790000000 1.0
C      1  0.4317610000000  0.5839510000000  0.5081680000000 1.0
C      1  0.4737080000000  0.4073900000000  0.4856930000000 1.0
C      1  0.5409630000000  0.5830450000000  0.5692030000000 1.0
C      1  0.5251980000000  0.4980270000000  0.6049850000000 1.0
C      1  0.5796380000000  0.4783800000000  0.5617130000000 1.0
C      1  0.4343220000000  0.5008550000000  0.4758700000000 1.0
C      1  0.5071370000000  0.5048500000000  0.4579840000000 1.0
C      1  0.4729530000000  0.5052450000000  0.5712230000000 1.0
C      1  0.4685350000000  0.4754640000000  0.5695290000000 1.0
C      1  0.6065530000000  0.4945110000000  0.5216240000000 1.0
C      1  0.4940970000000  0.5119760000000  0.4850710000000 1.0
C      1  0.5003480000000  0.4810890000000  0.6174370000000 1.0
C      1  0.4506130000000  0.4319250000000  0.4267400000000 1.0
C      1  0.4473250000000  0.4837170000000  0.6075050000000 1.0
C      1  0.4777370000000  0.5691290000000  0.5029180000000 1.0
C      1  0.5936610000000  0.5372300000000  0.4760440000000 1.0
C      1  0.5945830000000  0.4441230000000  0.4712360000000 1.0
C      1  0.4791450000000  0.4238020000000  0.4594220000000 1.0
C      1  0.5208610000000  0.5540160000000  0.5997360000000 1.0
C      1  0.4278160000000  0.5022620000000  0.5933710000000 1.0
C      1  0.5597220000000  0.5152000000000  0.5471140000000 1.0
C      1  0.5381560000000  0.6081840000000  0.5133170000000 1.0
C      1  0.5235420000000  0.4927630000000  0.3796400000000 1.0
C      1  0.3878950000000  0.4917430000000  0.4801660000000 1.0
C      1  0.4939290000000  0.5463080000000  0.3809720000000 1.0
C      1  0.5849740000000  0.4908240000000  0.4765650000000 1.0
C      1  0.4845220000000  0.4819780000000  0.5268450000000 1.0
C      1  0.5483090000000  0.5815570000000  0.4455160000000 1.0
C      1  0.5171020000000  0.5443860000000  0.3996760000000 1.0
C      1  0.5360990000000  0.5446410000000  0.4666510000000 1.0
C      1  0.5758730000000  0.4215350000000  0.4736500000000 1.0
C      1  0.4845170000000  0.4658610000000  0.4828320000000 1.0
C      1  0.5431250000000  0.4448210000000  0.4846380000000 1.0
C      1  0.4633930000000  0.4673960000000  0.5431320000000 1.0
C      1  0.4179330000000  0.5234270000000  0.4649340000000 1.0
C      1  0.4737050000000  0.4403230000000  0.6005170000000 1.0
C      1  0.5851690000000  0.4557600000000  0.5185720000000 1.0
C      1  0.4620620000000  0.5689720000000  0.4214280000000 1.0
C      1  0.5263120000000  0.5629080000000  0.5040930000000 1.0
C      1  0.5047830000000  0.5939360000000  0.4243340000000 1.0
C      1  0.5213300000000  0.3915810000000  0.4775310000000 1.0
C      1  0.5239730000000  0.5271180000000  0.6071310000000 1.0
C      1  0.5554400000000  0.4973810000000  0.4357130000000 1.0
C      1  0.5924660000000  0.5393660000000  0.5054320000000 1.0
C      1  0.5023530000000  0.5053840000000  0.5595030000000 1.0
C      1  0.4260680000000  0.5072760000000  0.4178920000000 1.0
C      1  0.4743390000000  0.4963120000000  0.6144190000000 1.0
C      1  0.4521200000000  0.4211940000000  0.5611650000000 1.0
C      1  0.4732330000000  0.5623410000000  0.5799430000000 1.0
C      1  0.4244250000000  0.5246380000000  0.5439790000000 1.0
C      1  0.5229040000000  0.5016430000000  0.5297480000000 1.0
C      1  0.5883800000000  0.5655100000000  0.5165990000000 1.0
C      1  0.5372140000000  0.4676520000000  0.3924580000000 1.0
C      1  0.4692130000000  0.5890870000000  0.4629250000000 1.0
C      1  0.4402950000000  0.4205910000000  0.4546470000000 1.0
C      1  0.4689120000000  0.5317640000000  0.5287260000000 1.0
C      1  0.5892960000000  0.5133970000000  0.4595030000000 1.0
C      1  0.4655910000000  0.4982300000000  0.4445080000000 1.0
C      1  0.5171800000000  0.4298550000000  0.4844270000000 1.0
C      1  0.5213150000000  0.4147250000000  0.5721140000000 1.0
C      1  0.5065620000000  0.4605660000000  0.5258480000000 1.0
C      1  0.4842010000000  0.4594490000000  0.4331920000000 1.0
C      1  0.5936290000000  0.5036700000000  0.4327160000000 1.0
C      1  0.4129650000000  0.4884260000000  0.5725410000000 1.0
C      1  0.5539800000000  0.4847980000000  0.6035180000000 1.0
C      1  0.4984700000000  0.3910270000000  0.4943890000000 1.0
C      1  0.4612900000000  0.5404120000000  0.5942910000000 1.0
C      1  0.4233850000000  0.5410690000000  0.5144350000000 1.0
C      1  0.4977480000000  0.5389610000000  0.5288830000000 1.0
C      1  0.5672840000000  0.4525790000000  0.5701650000000 1.0
C      1  0.5030400000000  0.4323920000000  0.4035070000000 1.0
C      1  0.4727190000000  0.4161090000000  0.5815850000000 1.0
C      1  0.5148280000000  0.5203700000000  0.5069490000000 1.0
C      1  0.5088760000000  0.4274260000000  0.4551630000000 1.0
C      1  0.4577800000000  0.5752540000000  0.5585910000000 1.0
C      1  0.4253390000000  0.4902620000000  0.5180670000000 1.0
C      1  0.5824770000000  0.4674790000000  0.4579020000000 1.0
C      1  0.4197830000000  0.4473510000000  0.5445510000000 1.0
C      1  0.4960120000000  0.4024710000000  0.5689390000000 1.0
C      1  0.4053350000000  0.4915330000000  0.4334350000000 1.0
C      1  0.4353630000000  0.5306060000000  0.5865350000000 1.0
C      1  0.3972430000000  0.4849040000000  0.5059320000000 1.0
C      1  0.4737410000000  0.5352500000000  0.4750960000000 1.0
C      1  0.4330890000000  0.5315380000000  0.4393550000000 1.0
C      1  0.5032900000000  0.4426550000000  0.5522810000000 1.0
C      1  0.5648320000000  0.5578540000000  0.4439620000000 1.0
C      1  0.4530820000000  0.4595670000000  0.5891790000000 1.0
C      1  0.5322380000000  0.5870450000000  0.4215250000000 1.0
C      1  0.4236730000000  0.5718860000000  0.4826290000000 1.0
C      1  0.4182000000000  0.5495180000000  0.5726710000000 1.0
C      1  0.5397470000000  0.5647420000000  0.4022660000000 1.0
C      1  0.4524290000000  0.5326460000000  0.5046020000000 1.0
C      1  0.4173310000000  0.5745170000000  0.5313150000000 1.0
C      1  0.5865150000000  0.5622140000000  0.4643020000000 1.0
C      1  0.3944510000000  0.5068410000000  0.4571420000000 1.0
C      1  0.4272250000000  0.4426210000000  0.4718590000000 1.0
C      1  0.5049270000000  0.5454520000000  0.4275800000000 1.0
C      1  0.5507420000000  0.4348170000000  0.4260960000000 1.0
C      1  0.4111510000000  0.5449190000000  0.4859270000000 1.0
C      1  0.5890820000000  0.4747800000000  0.4300970000000 1.0
C      1  0.5186010000000  0.5709480000000  0.4759600000000 1.0
C      1  0.4624680000000  0.5267620000000  0.4462630000000 1.0
C      1  0.5006110000000  0.4531570000000  0.6055130000000 1.0
C      1  0.4767180000000  0.4896960000000  0.4984960000000 1.0
C      1  0.4290310000000  0.5714830000000  0.5574060000000 1.0
C      1  0.5547340000000  0.4632520000000  0.4169580000000 1.0
C      1  0.4312750000000  0.4394480000000  0.5714500000000 1.0
C      1  0.5761400000000  0.5809290000000  0.4847500000000 1.0
C      1  0.4708280000000  0.6102380000000  0.4879120000000 1.0
C      1  0.5903880000000  0.5179700000000  0.5244540000000 1.0
C      1  0.4698960000000  0.5947440000000  0.5401480000000 1.0
C      1  0.4476680000000  0.5025130000000  0.5003220000000 1.0
C      1  0.4464020000000  0.4826560000000  0.4070470000000 1.0
C      1  0.5901520000000  0.5435970000000  0.5632140000000 1.0
C      1  0.4253400000000  0.3938330000000  0.4918350000000 1.0
C      1  0.4283290000000  0.4303100000000  0.5211560000000 1.0
C      1  0.5403880000000  0.5387930000000  0.5459490000000 1.0
C      1  0.5292400000000  0.5168570000000  0.3965080000000 1.0
C      1  0.5474060000000  0.4580420000000  0.5906140000000 1.0
C      1  0.5172110000000  0.4583180000000  0.5801670000000 1.0
C      1  0.4103320000000  0.4154130000000  0.5023500000000 1.0
C      1  0.5548270000000  0.5956330000000  0.4698570000000 1.0
C      1  0.4779810000000  0.5917450000000  0.4334010000000 1.0
C      1  0.6141710000000  0.4771090000000  0.5434060000000 1.0
C      1  0.5104150000000  0.6143940000000  0.5218520000000 1.0
C      1  0.5120510000000  0.5853460000000  0.5648790000000 1.0
C      1  0.4361830000000  0.5626460000000  0.4352450000000 1.0
C      1  0.5578180000000  0.4955550000000  0.4922720000000 1.0
C      1  0.5612850000000  0.5471670000000  0.4155640000000 1.0
C      1  0.5157330000000  0.4584490000000  0.4368690000000 1.0
C      1  0.4015840000000  0.4325920000000  0.4812600000000 1.0
C      1  0.4872820000000  0.5029920000000  0.3989650000000 1.0
C      1  0.4470900000000  0.3968050000000  0.4742370000000 1.0
C      1  0.5774880000000  0.4977250000000  0.5865930000000 1.0
C      1  0.4218510000000  0.4674820000000  0.4425660000000 1.0
C      1  0.4687240000000  0.4544630000000  0.4611590000000 1.0
C      1  0.5466620000000  0.5796240000000  0.5176080000000 1.0
C      1  0.5556230000000  0.4258620000000  0.4531560000000 1.0
C      1  0.5533430000000  0.5180140000000  0.4123590000000 1.0
C      1  0.6052380000000  0.4549790000000  0.4970630000000 1.0
C      1  0.4709060000000  0.4368180000000  0.5421580000000 1.0
C      1  0.5282320000000  0.4833030000000  0.4531260000000 1.0
C      1  0.4732630000000  0.4857380000000  0.4207100000000 1.0
C      1  0.5080220000000  0.3957300000000  0.5212640000000 1.0
C      1  0.4021590000000  0.5054940000000  0.5520990000000 1.0
C      1  0.4353740000000  0.4560130000000  0.4183040000000 1.0
C      1  0.5818690000000  0.5651680000000  0.5460970000000 1.0
C      1  0.5392330000000  0.4748730000000  0.4797660000000 1.0
C      1  0.5746310000000  0.4308270000000  0.5263850000000 1.0
C      1  0.4607210000000  0.5920040000000  0.5106340000000 1.0
C      1  0.5009440000000  0.5663010000000  0.5195770000000 1.0
C      1  0.5030010000000  0.5592070000000  0.5761240000000 1.0
C      1  0.5437360000000  0.5699070000000  0.5944330000000 1.0
C      1  0.5316600000000  0.6067370000000  0.4839490000000 1.0
C      1  0.5520580000000  0.5673880000000  0.5456410000000 1.0
C      1  0.4579000000000  0.4831320000000  0.3789990000000 1.0
C      1  0.5630630000000  0.4855250000000  0.5221950000000 1.0
END
