TITL C-951341-1326-573 1.79403573984593e-06 125000 -1041.2796250897 0 0 167 (C1) n - 1
REM
REM in /home/bkarasulu/work/CARBON/AIRSS/Generating-Clusters/EDIP-Nigel-Params/with-SteepDescent/Only-C1/SD-CG/HFTN-CG
REM
REM
REM
REM
REM
REM ./C.cell (11c1c37f851c82e70ff6c80c92926a4b)
REM
REM compiler GCC version 9.2.1 20190827 (Red Hat 9.2.1-1)
REM options -cpp -mtune=generic -march=x86-64 -g -O0 -fpre-include=/usr/include/finclude/math-vector-fortran.h
REM seed -2009812643 -1356546033 47608121 -1529415019 436274682 1331650380 -1682759218 -877705669 -1684152610 1314069319 -690745158 1714014569 -494444373 41332698 1331937079 -256531712 -1868086639 -1096393356 -1981185483 1375398779 -1740587888 -1533619066 -703464768 -884558257 -2038205026 510677797 1948867989 -1826041839 -563822402 1570886946 791831343 1556531356 -1345898721
REM
CELL 1.54180   50.00000   50.00000   50.00000   90.00000   90.00000   90.00000
LATT -1
SFAC C  
C      1  0.5866030000000  0.5642320000000  0.5400520000000 1.0
C      1  0.5147640000000  0.5207960000000  0.5631080000000 1.0
C      1  0.5477070000000  0.4063780000000  0.4936560000000 1.0
C      1  0.4688300000000  0.4434980000000  0.5583450000000 1.0
C      1  0.4390960000000  0.5653850000000  0.5361670000000 1.0
C      1  0.4964410000000  0.5086460000000  0.4338410000000 1.0
C      1  0.4402040000000  0.4841480000000  0.4784140000000 1.0
C      1  0.5063690000000  0.3968560000000  0.5163730000000 1.0
C      1  0.5156940000000  0.5961160000000  0.5779420000000 1.0
C      1  0.4853140000000  0.5945380000000  0.5404610000000 1.0
C      1  0.4037460000000  0.4537790000000  0.5173440000000 1.0
C      1  0.5385290000000  0.4520580000000  0.5141830000000 1.0
C      1  0.4970420000000  0.4958630000000  0.4627350000000 1.0
C      1  0.5106460000000  0.5368020000000  0.4317910000000 1.0
C      1  0.4575230000000  0.4606530000000  0.4709780000000 1.0
C      1  0.5929740000000  0.5544530000000  0.4904850000000 1.0
C      1  0.5172940000000  0.4333110000000  0.5592640000000 1.0
C      1  0.4573460000000  0.5565650000000  0.5782680000000 1.0
C      1  0.5702630000000  0.5295980000000  0.5676790000000 1.0
C      1  0.4420210000000  0.4312260000000  0.5577900000000 1.0
C      1  0.4513980000000  0.5318110000000  0.4823700000000 1.0
C      1  0.6025390000000  0.5153890000000  0.5293300000000 1.0
C      1  0.3984930000000  0.5370460000000  0.5102940000000 1.0
C      1  0.4746750000000  0.4209340000000  0.4485610000000 1.0
C      1  0.5594690000000  0.5547650000000  0.4365950000000 1.0
C      1  0.5976820000000  0.5373740000000  0.5515830000000 1.0
C      1  0.5167350000000  0.4509960000000  0.5360810000000 1.0
C      1  0.4783250000000  0.3977640000000  0.4648080000000 1.0
C      1  0.4025960000000  0.5275510000000  0.5373040000000 1.0
C      1  0.5261190000000  0.4576400000000  0.4340000000000 1.0
C      1  0.4783530000000  0.5329120000000  0.4980480000000 1.0
C      1  0.5626180000000  0.4595880000000  0.5588120000000 1.0
C      1  0.4521110000000  0.4470540000000  0.5089430000000 1.0
C      1  0.5669660000000  0.4826530000000  0.4828180000000 1.0
C      1  0.4776120000000  0.4506430000000  0.5851360000000 1.0
C      1  0.5844640000000  0.5418260000000  0.4393980000000 1.0
C      1  0.5078690000000  0.3958630000000  0.4643090000000 1.0
C      1  0.5020180000000  0.5273740000000  0.4798700000000 1.0
C      1  0.4635550000000  0.5446490000000  0.4462240000000 1.0
C      1  0.4380200000000  0.4444060000000  0.4516560000000 1.0
C      1  0.4826130000000  0.5245810000000  0.3943770000000 1.0
C      1  0.4161280000000  0.4669090000000  0.4430970000000 1.0
C      1  0.5120560000000  0.5841480000000  0.4976530000000 1.0
C      1  0.5558530000000  0.5548980000000  0.5735130000000 1.0
C      1  0.5693700000000  0.4660940000000  0.4350940000000 1.0
C      1  0.4393010000000  0.5595130000000  0.4339720000000 1.0
C      1  0.4690620000000  0.5041050000000  0.5570760000000 1.0
C      1  0.4705150000000  0.4579700000000  0.3991520000000 1.0
C      1  0.5146180000000  0.6018520000000  0.5504490000000 1.0
C      1  0.6204530000000  0.5167410000000  0.5045340000000 1.0
C      1  0.4315540000000  0.5140940000000  0.5919660000000 1.0
C      1  0.5204070000000  0.4102420000000  0.4407250000000 1.0
C      1  0.5257920000000  0.6032760000000  0.4801290000000 1.0
C      1  0.4338640000000  0.5377350000000  0.5743350000000 1.0
C      1  0.4710360000000  0.5844940000000  0.4755420000000 1.0
C      1  0.4233050000000  0.4287890000000  0.4731280000000 1.0
C      1  0.4363320000000  0.4098100000000  0.4913370000000 1.0
C      1  0.5221990000000  0.5401360000000  0.6133610000000 1.0
C      1  0.4961280000000  0.4705250000000  0.3974830000000 1.0
C      1  0.5588070000000  0.4240970000000  0.4735720000000 1.0
C      1  0.4228930000000  0.4791660000000  0.5595660000000 1.0
C      1  0.5396090000000  0.5392960000000  0.4221130000000 1.0
C      1  0.4461560000000  0.5085970000000  0.4614190000000 1.0
C      1  0.4693650000000  0.4733350000000  0.5475680000000 1.0
C      1  0.5153380000000  0.4508160000000  0.4072520000000 1.0
C      1  0.5307270000000  0.5136990000000  0.6039570000000 1.0
C      1  0.3949470000000  0.4820810000000  0.5185650000000 1.0
C      1  0.4827610000000  0.5121480000000  0.5220490000000 1.0
C      1  0.4344900000000  0.5229220000000  0.5070600000000 1.0
C      1  0.4060840000000  0.4977290000000  0.5414390000000 1.0
C      1  0.4255940000000  0.5605260000000  0.4613270000000 1.0
C      1  0.4460540000000  0.4090750000000  0.5387010000000 1.0
C      1  0.5023050000000  0.4254180000000  0.4148380000000 1.0
C      1  0.5184890000000  0.4054810000000  0.4906160000000 1.0
C      1  0.5056540000000  0.5486280000000  0.4587130000000 1.0
C      1  0.5884470000000  0.5751040000000  0.5119250000000 1.0
C      1  0.6178110000000  0.5409420000000  0.4904690000000 1.0
C      1  0.5527430000000  0.4109410000000  0.5225610000000 1.0
C      1  0.5004250000000  0.5296700000000  0.5397350000000 1.0
C      1  0.5229520000000  0.4703780000000  0.5902290000000 1.0
C      1  0.4630850000000  0.5752830000000  0.5539140000000 1.0
C      1  0.5351190000000  0.4611900000000  0.4765400000000 1.0
C      1  0.4775350000000  0.5671100000000  0.4272740000000 1.0
C      1  0.4782450000000  0.4359660000000  0.5218330000000 1.0
C      1  0.4938160000000  0.5486210000000  0.4094270000000 1.0
C      1  0.4364380000000  0.5770050000000  0.5095200000000 1.0
C      1  0.6074840000000  0.4866250000000  0.4630340000000 1.0
C      1  0.5486570000000  0.4776890000000  0.5788830000000 1.0
C      1  0.4374910000000  0.4922910000000  0.4025530000000 1.0
C      1  0.5003580000000  0.4471980000000  0.4534200000000 1.0
C      1  0.6000550000000  0.4726820000000  0.5103150000000 1.0
C      1  0.5598440000000  0.4395860000000  0.4279700000000 1.0
C      1  0.5646180000000  0.5922580000000  0.5078060000000 1.0
C      1  0.4287930000000  0.5376090000000  0.4164460000000 1.0
C      1  0.3936050000000  0.4933880000000  0.4904270000000 1.0
C      1  0.4428230000000  0.5178300000000  0.5531390000000 1.0
C      1  0.5829540000000  0.4400580000000  0.4785020000000 1.0
C      1  0.3964570000000  0.5223380000000  0.4858170000000 1.0
C      1  0.5547550000000  0.5065970000000  0.5863030000000 1.0
C      1  0.5483120000000  0.5749760000000  0.4551330000000 1.0
C      1  0.4489400000000  0.4724810000000  0.5244660000000 1.0
C      1  0.4434510000000  0.5743620000000  0.4820080000000 1.0
C      1  0.4669330000000  0.4775000000000  0.5920620000000 1.0
C      1  0.4134970000000  0.5190200000000  0.4344140000000 1.0
C      1  0.5419350000000  0.5051870000000  0.4547550000000 1.0
C      1  0.5113790000000  0.4426930000000  0.4815520000000 1.0
C      1  0.5640750000000  0.4390110000000  0.5265130000000 1.0
C      1  0.4118130000000  0.5480230000000  0.5562980000000 1.0
C      1  0.5871210000000  0.4462580000000  0.5069680000000 1.0
C      1  0.5039700000000  0.4990710000000  0.4034610000000 1.0
C      1  0.5477160000000  0.4215890000000  0.4465910000000 1.0
C      1  0.5274240000000  0.4994310000000  0.5155560000000 1.0
C      1  0.5247530000000  0.5691700000000  0.5198410000000 1.0
C      1  0.4290660000000  0.4180920000000  0.5176140000000 1.0
C      1  0.4773290000000  0.5595560000000  0.5157400000000 1.0
C      1  0.5893540000000  0.5165650000000  0.4512230000000 1.0
C      1  0.4550170000000  0.4215480000000  0.4270970000000 1.0
C      1  0.4456470000000  0.4942430000000  0.5056000000000 1.0
C      1  0.5068970000000  0.5692790000000  0.5787990000000 1.0
C      1  0.4473640000000  0.5364800000000  0.5299730000000 1.0
C      1  0.4769010000000  0.5406310000000  0.5945770000000 1.0
C      1  0.4647690000000  0.4021700000000  0.4908370000000 1.0
C      1  0.4836140000000  0.5865860000000  0.5021470000000 1.0
C      1  0.4988150000000  0.5576450000000  0.6059100000000 1.0
C      1  0.4935740000000  0.5761470000000  0.4542030000000 1.0
C      1  0.5516500000000  0.4798860000000  0.5128150000000 1.0
C      1  0.4875320000000  0.5143620000000  0.5804610000000 1.0
C      1  0.5623730000000  0.5749150000000  0.5535980000000 1.0
C      1  0.5670900000000  0.5115310000000  0.4705040000000 1.0
C      1  0.5683760000000  0.4816480000000  0.5402090000000 1.0
C      1  0.5268390000000  0.4049250000000  0.5359010000000 1.0
C      1  0.4520730000000  0.5188670000000  0.4060480000000 1.0
C      1  0.5419010000000  0.5459160000000  0.5088940000000 1.0
C      1  0.4076280000000  0.4488730000000  0.4881640000000 1.0
C      1  0.4977670000000  0.4726330000000  0.5378390000000 1.0
C      1  0.5560980000000  0.5266310000000  0.5396900000000 1.0
C      1  0.4386670000000  0.4871190000000  0.5844280000000 1.0
C      1  0.4838530000000  0.4916450000000  0.6109730000000 1.0
C      1  0.5348770000000  0.4986420000000  0.4053080000000 1.0
C      1  0.5246970000000  0.4889810000000  0.4711200000000 1.0
C      1  0.5753020000000  0.5190480000000  0.5181810000000 1.0
C      1  0.5701110000000  0.5345040000000  0.4935620000000 1.0
C      1  0.5443250000000  0.4851720000000  0.4314160000000 1.0
C      1  0.4231320000000  0.4913490000000  0.4280790000000 1.0
C      1  0.5205210000000  0.5919020000000  0.4524050000000 1.0
C      1  0.5411670000000  0.5894920000000  0.5357190000000 1.0
C      1  0.5126750000000  0.4907420000000  0.6073920000000 1.0
C      1  0.5549030000000  0.5950180000000  0.4800740000000 1.0
C      1  0.4105030000000  0.4745280000000  0.4734450000000 1.0
C      1  0.5841600000000  0.4664290000000  0.4624640000000 1.0
C      1  0.4209700000000  0.4508910000000  0.5503970000000 1.0
C      1  0.4473560000000  0.4696540000000  0.3901470000000 1.0
C      1  0.4731520000000  0.4297550000000  0.4055870000000 1.0
C      1  0.5001270000000  0.5587630000000  0.5364210000000 1.0
C      1  0.4657280000000  0.5160400000000  0.4345700000000 1.0
C      1  0.4770880000000  0.4052300000000  0.5182180000000 1.0
C      1  0.5273800000000  0.5469300000000  0.5755240000000 1.0
C      1  0.4821530000000  0.4698760000000  0.4572780000000 1.0
C      1  0.4129990000000  0.5320420000000  0.4619450000000 1.0
C      1  0.4994750000000  0.4876520000000  0.5138340000000 1.0
C      1  0.5260580000000  0.5240270000000  0.4979970000000 1.0
C      1  0.5368050000000  0.5050380000000  0.5462400000000 1.0
C      1  0.5074570000000  0.4463040000000  0.5842180000000 1.0
C      1  0.5477590000000  0.5228150000000  0.4010780000000 1.0
C      1  0.6152650000000  0.4897940000000  0.4913190000000 1.0
C      1  0.5981210000000  0.4859070000000  0.5363360000000 1.0
C      1  0.4898260000000  0.4563880000000  0.4981260000000 1.0
END
