TITL C-950536-5891-671 1.76078552235137e-06 125000 -716.385777979079 0 0 114 (C1) n - 1
REM
REM in /home/bkarasulu/work/CARBON/AIRSS/Generating-Clusters/EDIP-Nigel-Params/with-SteepDescent/Only-C1/SD-CG/HFTN-CG
REM
REM
REM
REM
REM
REM ./C.cell (11c1c37f851c82e70ff6c80c92926a4b)
REM
REM compiler GCC version 9.2.1 20190827 (Red Hat 9.2.1-1)
REM options -cpp -mtune=generic -march=x86-64 -g -O0 -fpre-include=/usr/include/finclude/math-vector-fortran.h
REM seed 1071057225 -790328851 -431522463 -337762541 461570764 2108403434 -1599228781 -1335753170 133145771 1033451405 -1076693403 -1225354190 -1495122222 -720956573 2067925075 -1702906830 -921610985 -1853578879 1267266712 429078655 -1616150336 1446647408 1048917237 -1393286192 1300942467 624539137 1649021794 -1607623124 -1029894815 -1725332547 2112770343 1020154490 -665775337
REM
CELL 1.54180   50.00000   50.00000   50.00000   90.00000   90.00000   90.00000
LATT -1
SFAC C  
C      1  0.5548990000000  0.4915900000000  0.4322150000000 1.0
C      1  0.4453940000000  0.5823390000000  0.4949620000000 1.0
C      1  0.5205880000000  0.4816450000000  0.5932730000000 1.0
C      1  0.5358510000000  0.3996390000000  0.5055810000000 1.0
C      1  0.5077940000000  0.5236570000000  0.4147690000000 1.0
C      1  0.5314630000000  0.5022220000000  0.5747790000000 1.0
C      1  0.4188750000000  0.5221790000000  0.5485560000000 1.0
C      1  0.4539550000000  0.5377850000000  0.5127320000000 1.0
C      1  0.5839170000000  0.4735220000000  0.5281720000000 1.0
C      1  0.5867550000000  0.5182640000000  0.4640560000000 1.0
C      1  0.5472400000000  0.4525940000000  0.5624540000000 1.0
C      1  0.5011920000000  0.5687010000000  0.5696050000000 1.0
C      1  0.4122100000000  0.4564550000000  0.4844290000000 1.0
C      1  0.5356360000000  0.4316800000000  0.5446260000000 1.0
C      1  0.5663790000000  0.4752510000000  0.5527870000000 1.0
C      1  0.4918550000000  0.4837810000000  0.5830880000000 1.0
C      1  0.4079200000000  0.5478000000000  0.4968970000000 1.0
C      1  0.5331770000000  0.4396850000000  0.4238330000000 1.0
C      1  0.4985410000000  0.4526040000000  0.4546500000000 1.0
C      1  0.4723980000000  0.5460300000000  0.5350060000000 1.0
C      1  0.4568770000000  0.5508430000000  0.5613860000000 1.0
C      1  0.5088420000000  0.5221330000000  0.5658460000000 1.0
C      1  0.4972980000000  0.5135160000000  0.4681290000000 1.0
C      1  0.4332970000000  0.4444770000000  0.4659060000000 1.0
C      1  0.5837420000000  0.4491630000000  0.5152070000000 1.0
C      1  0.5700040000000  0.4665300000000  0.4407000000000 1.0
C      1  0.4187960000000  0.4849730000000  0.4769760000000 1.0
C      1  0.4839780000000  0.5225580000000  0.5864690000000 1.0
C      1  0.4162780000000  0.4733750000000  0.5326790000000 1.0
C      1  0.4940650000000  0.5879460000000  0.5503330000000 1.0
C      1  0.4373910000000  0.5299070000000  0.5687420000000 1.0
C      1  0.5365360000000  0.5015010000000  0.5251050000000 1.0
C      1  0.4886390000000  0.4215030000000  0.5359240000000 1.0
C      1  0.5363080000000  0.5358550000000  0.4758520000000 1.0
C      1  0.4450380000000  0.5093560000000  0.5133000000000 1.0
C      1  0.5933240000000  0.4935140000000  0.4794980000000 1.0
C      1  0.4646100000000  0.4377580000000  0.5366650000000 1.0
C      1  0.5605910000000  0.4400000000000  0.5026530000000 1.0
C      1  0.4544500000000  0.4479720000000  0.5625850000000 1.0
C      1  0.4758400000000  0.5053610000000  0.4510740000000 1.0
C      1  0.5142410000000  0.4586330000000  0.5118730000000 1.0
C      1  0.4332310000000  0.5571520000000  0.5047570000000 1.0
C      1  0.4836820000000  0.5734030000000  0.5288140000000 1.0
C      1  0.4814610000000  0.4304160000000  0.4695410000000 1.0
C      1  0.5396040000000  0.4618080000000  0.4944600000000 1.0
C      1  0.5483810000000  0.4473380000000  0.4461760000000 1.0
C      1  0.4996510000000  0.4803980000000  0.5529820000000 1.0
C      1  0.4466950000000  0.4824920000000  0.4225330000000 1.0
C      1  0.5097330000000  0.4227860000000  0.5564620000000 1.0
C      1  0.5589890000000  0.5018410000000  0.5634410000000 1.0
C      1  0.5825890000000  0.5457960000000  0.4771060000000 1.0
C      1  0.5480020000000  0.5593080000000  0.5153100000000 1.0
C      1  0.5034330000000  0.4381500000000  0.5816810000000 1.0
C      1  0.4400360000000  0.4636170000000  0.4441090000000 1.0
C      1  0.3998870000000  0.5071040000000  0.4756530000000 1.0
C      1  0.5189800000000  0.4957330000000  0.4190850000000 1.0
C      1  0.5585770000000  0.5423780000000  0.4340030000000 1.0
C      1  0.5763600000000  0.5471910000000  0.5064150000000 1.0
C      1  0.5204990000000  0.5484850000000  0.5610360000000 1.0
C      1  0.4455240000000  0.4950630000000  0.4867150000000 1.0
C      1  0.4996170000000  0.4724350000000  0.4118860000000 1.0
C      1  0.5453850000000  0.5073580000000  0.4758570000000 1.0
C      1  0.5444580000000  0.5794120000000  0.4544900000000 1.0
C      1  0.5572790000000  0.5530930000000  0.4618100000000 1.0
C      1  0.4567710000000  0.4870490000000  0.5590180000000 1.0
C      1  0.4003240000000  0.5211470000000  0.5011540000000 1.0
C      1  0.5056360000000  0.4271820000000  0.5123230000000 1.0
C      1  0.4612670000000  0.5404530000000  0.4234120000000 1.0
C      1  0.5326100000000  0.4910290000000  0.4545060000000 1.0
C      1  0.4773770000000  0.5785210000000  0.4566350000000 1.0
C      1  0.5811260000000  0.5219820000000  0.5216370000000 1.0
C      1  0.4811710000000  0.5596130000000  0.4344690000000 1.0
C      1  0.4755230000000  0.4749010000000  0.4550010000000 1.0
C      1  0.5089190000000  0.5478450000000  0.4342930000000 1.0
C      1  0.5719920000000  0.5166510000000  0.4372460000000 1.0
C      1  0.5002020000000  0.5887280000000  0.4697800000000 1.0
C      1  0.5802420000000  0.4950840000000  0.5074560000000 1.0
C      1  0.4942860000000  0.4128320000000  0.4880220000000 1.0
C      1  0.4937270000000  0.5216350000000  0.5375950000000 1.0
C      1  0.4778880000000  0.4556330000000  0.5824390000000 1.0
C      1  0.4262060000000  0.5191240000000  0.4498620000000 1.0
C      1  0.5574160000000  0.5208820000000  0.5405030000000 1.0
C      1  0.4216170000000  0.4513240000000  0.5129990000000 1.0
C      1  0.4780920000000  0.5532630000000  0.5820650000000 1.0
C      1  0.4479800000000  0.4375670000000  0.5125880000000 1.0
C      1  0.5456520000000  0.5497240000000  0.5453730000000 1.0
C      1  0.5871420000000  0.4717820000000  0.4625700000000 1.0
C      1  0.4796520000000  0.4926840000000  0.5349920000000 1.0
C      1  0.5305810000000  0.5684840000000  0.4298080000000 1.0
C      1  0.5277890000000  0.5892640000000  0.4766920000000 1.0
C      1  0.5146020000000  0.5191090000000  0.5149970000000 1.0
C      1  0.5296530000000  0.4621480000000  0.4642830000000 1.0
C      1  0.5012050000000  0.5033630000000  0.4945090000000 1.0
C      1  0.5060360000000  0.4472160000000  0.4258200000000 1.0
C      1  0.4521070000000  0.5831450000000  0.4676520000000 1.0
C      1  0.4363060000000  0.5108360000000  0.4240540000000 1.0
C      1  0.4713000000000  0.4759310000000  0.4097970000000 1.0
C      1  0.5249080000000  0.4735650000000  0.5387910000000 1.0
C      1  0.4310060000000  0.4697520000000  0.5581820000000 1.0
C      1  0.4792960000000  0.5170150000000  0.4215570000000 1.0
C      1  0.4573700000000  0.4433170000000  0.4840070000000 1.0
C      1  0.5199050000000  0.4025180000000  0.4834440000000 1.0
C      1  0.5401350000000  0.5851480000000  0.5025790000000 1.0
C      1  0.4667010000000  0.4726740000000  0.4845040000000 1.0
C      1  0.5506880000000  0.4911980000000  0.5004830000000 1.0
C      1  0.4175160000000  0.5073030000000  0.5238020000000 1.0
C      1  0.5484490000000  0.4199650000000  0.5204220000000 1.0
C      1  0.4678410000000  0.5874790000000  0.5108790000000 1.0
C      1  0.4566520000000  0.5097610000000  0.5785400000000 1.0
C      1  0.4507560000000  0.5150140000000  0.4654330000000 1.0
C      1  0.5274970000000  0.5428030000000  0.5024570000000 1.0
C      1  0.4893410000000  0.4790580000000  0.5051060000000 1.0
C      1  0.5120520000000  0.5361820000000  0.4610890000000 1.0
C      1  0.5292530000000  0.4540630000000  0.5874820000000 1.0
END
