TITL C-951336-9012-446 2.59353140805804e-07 125000 -927.238159145059 0 0 149 (C1) n - 1
REM
REM in /home/bkarasulu/work/CARBON/AIRSS/Generating-Clusters/EDIP-Nigel-Params/with-SteepDescent/Only-C1/SD-CG/HFTN-CG
REM
REM
REM
REM
REM
REM ./C.cell (11c1c37f851c82e70ff6c80c92926a4b)
REM
REM compiler GCC version 9.2.1 20190827 (Red Hat 9.2.1-1)
REM options -cpp -mtune=generic -march=x86-64 -g -O0 -fpre-include=/usr/include/finclude/math-vector-fortran.h
REM seed -1494793293 784638987 867546471 -102704229 -486169969 -28488520 -884158672 1283257881 -1057425296 1791894803 -1443751878 47944501 1362950835 178929283 983885967 -378786299 1200405289 893018493 -1381573365 -549800419 1871519708 737604243 1433930454 -458354937 -1405533558 -2008733601 1426763784 1546959049 -1851913588 478058533 -194448853 -1999400244 281332857
REM
CELL 1.54180   50.00000   50.00000   50.00000   90.00000   90.00000   90.00000
LATT -1
SFAC C  
C      1  0.5483180000000  0.4552220000000  0.4117140000000 1.0
C      1  0.5016340000000  0.4231700000000  0.5611990000000 1.0
C      1  0.4401470000000  0.4765900000000  0.4212220000000 1.0
C      1  0.4427130000000  0.4654920000000  0.4949310000000 1.0
C      1  0.5457030000000  0.5716470000000  0.5128100000000 1.0
C      1  0.4687910000000  0.5535370000000  0.4634480000000 1.0
C      1  0.4735130000000  0.4975750000000  0.4737410000000 1.0
C      1  0.5576460000000  0.5284230000000  0.5744250000000 1.0
C      1  0.5998300000000  0.4685000000000  0.4899960000000 1.0
C      1  0.5052370000000  0.4785180000000  0.4634370000000 1.0
C      1  0.5627440000000  0.5534960000000  0.5607330000000 1.0
C      1  0.4610600000000  0.4776240000000  0.5159080000000 1.0
C      1  0.5132840000000  0.5903940000000  0.4303370000000 1.0
C      1  0.5157590000000  0.4243110000000  0.4324180000000 1.0
C      1  0.4445850000000  0.4718380000000  0.5791440000000 1.0
C      1  0.4625190000000  0.5802040000000  0.5508940000000 1.0
C      1  0.5065930000000  0.5339830000000  0.4011420000000 1.0
C      1  0.4188470000000  0.5532690000000  0.5479960000000 1.0
C      1  0.5762440000000  0.5073050000000  0.5682750000000 1.0
C      1  0.4221920000000  0.5094890000000  0.5543710000000 1.0
C      1  0.4669870000000  0.5274030000000  0.5148630000000 1.0
C      1  0.5199790000000  0.4954580000000  0.5781040000000 1.0
C      1  0.4466170000000  0.4844050000000  0.4741810000000 1.0
C      1  0.4986320000000  0.4053060000000  0.5379660000000 1.0
C      1  0.4744420000000  0.4079340000000  0.5190930000000 1.0
C      1  0.4698300000000  0.5007050000000  0.5576500000000 1.0
C      1  0.4603140000000  0.5386960000000  0.4115940000000 1.0
C      1  0.5577430000000  0.5667470000000  0.4867250000000 1.0
C      1  0.5837120000000  0.4579730000000  0.4474390000000 1.0
C      1  0.5956870000000  0.4802200000000  0.4625710000000 1.0
C      1  0.5196740000000  0.4081630000000  0.4948220000000 1.0
C      1  0.5298040000000  0.4292990000000  0.5676370000000 1.0
C      1  0.4754100000000  0.3871770000000  0.4988860000000 1.0
C      1  0.4745930000000  0.4541880000000  0.5291860000000 1.0
C      1  0.4423300000000  0.4326840000000  0.4394840000000 1.0
C      1  0.5413020000000  0.4281830000000  0.4202130000000 1.0
C      1  0.4860700000000  0.4618950000000  0.4177170000000 1.0
C      1  0.4783460000000  0.5282440000000  0.5616970000000 1.0
C      1  0.4862050000000  0.5055050000000  0.5037890000000 1.0
C      1  0.5053710000000  0.5613310000000  0.5265900000000 1.0
C      1  0.4785460000000  0.4350590000000  0.5054700000000 1.0
C      1  0.4107500000000  0.4917210000000  0.5356850000000 1.0
C      1  0.4646010000000  0.5118180000000  0.4037620000000 1.0
C      1  0.5463290000000  0.4662180000000  0.4853050000000 1.0
C      1  0.5801760000000  0.4323420000000  0.4617740000000 1.0
C      1  0.4212850000000  0.5546300000000  0.4734200000000 1.0
C      1  0.4779350000000  0.4387460000000  0.5705640000000 1.0
C      1  0.3981130000000  0.5390030000000  0.4783350000000 1.0
C      1  0.4904130000000  0.4334850000000  0.4233960000000 1.0
C      1  0.5395300000000  0.4308140000000  0.5329970000000 1.0
C      1  0.4669590000000  0.5418410000000  0.5853010000000 1.0
C      1  0.5336960000000  0.5308360000000  0.4117040000000 1.0
C      1  0.4031090000000  0.5023600000000  0.5101080000000 1.0
C      1  0.4888700000000  0.6099990000000  0.5271360000000 1.0
C      1  0.5598740000000  0.5018570000000  0.5073570000000 1.0
C      1  0.5385750000000  0.5694670000000  0.5669220000000 1.0
C      1  0.5755340000000  0.4722330000000  0.5359100000000 1.0
C      1  0.5993490000000  0.5475540000000  0.5091580000000 1.0
C      1  0.5792840000000  0.5060230000000  0.4572410000000 1.0
C      1  0.5067300000000  0.4471470000000  0.4623210000000 1.0
C      1  0.5182810000000  0.5505080000000  0.5762840000000 1.0
C      1  0.5670410000000  0.4797650000000  0.5637210000000 1.0
C      1  0.5523870000000  0.4239250000000  0.4565140000000 1.0
C      1  0.5297500000000  0.4690160000000  0.3959410000000 1.0
C      1  0.5405730000000  0.5615800000000  0.4622680000000 1.0
C      1  0.5242830000000  0.5178490000000  0.4861600000000 1.0
C      1  0.4532610000000  0.4334370000000  0.5543220000000 1.0
C      1  0.4290800000000  0.5694710000000  0.4983760000000 1.0
C      1  0.4810500000000  0.5433370000000  0.5366150000000 1.0
C      1  0.5606880000000  0.4700970000000  0.4336330000000 1.0
C      1  0.5222250000000  0.5854800000000  0.4582770000000 1.0
C      1  0.5329000000000  0.5144370000000  0.4367620000000 1.0
C      1  0.5079380000000  0.4951030000000  0.4368180000000 1.0
C      1  0.4998730000000  0.4905910000000  0.5515310000000 1.0
C      1  0.4924330000000  0.5078240000000  0.3972610000000 1.0
C      1  0.5853250000000  0.5352510000000  0.4592890000000 1.0
C      1  0.5038360000000  0.4794100000000  0.4014490000000 1.0
C      1  0.5596920000000  0.4991920000000  0.4370690000000 1.0
C      1  0.4906620000000  0.5378860000000  0.4486280000000 1.0
C      1  0.4116410000000  0.4446570000000  0.5176730000000 1.0
C      1  0.4324290000000  0.4535100000000  0.5602890000000 1.0
C      1  0.4250750000000  0.5478310000000  0.5767190000000 1.0
C      1  0.5231890000000  0.4551100000000  0.5212130000000 1.0
C      1  0.5294180000000  0.5859850000000  0.5447310000000 1.0
C      1  0.5255050000000  0.4880110000000  0.4827630000000 1.0
C      1  0.5029420000000  0.5987700000000  0.5491220000000 1.0
C      1  0.4756770000000  0.5107100000000  0.6068950000000 1.0
C      1  0.5477950000000  0.5450230000000  0.5256280000000 1.0
C      1  0.4481020000000  0.4118340000000  0.5338850000000 1.0
C      1  0.5399040000000  0.4844660000000  0.5245130000000 1.0
C      1  0.5891340000000  0.5409320000000  0.5358370000000 1.0
C      1  0.4666510000000  0.4186300000000  0.4308570000000 1.0
C      1  0.4747330000000  0.5971780000000  0.4740920000000 1.0
C      1  0.5485080000000  0.5564240000000  0.4151410000000 1.0
C      1  0.4849970000000  0.4832540000000  0.6027750000000 1.0
C      1  0.4252560000000  0.4200450000000  0.5196800000000 1.0
C      1  0.4185440000000  0.4640500000000  0.5374770000000 1.0
C      1  0.5617850000000  0.5567640000000  0.4415610000000 1.0
C      1  0.4923950000000  0.5623800000000  0.5859480000000 1.0
C      1  0.4873250000000  0.5493870000000  0.4201110000000 1.0
C      1  0.5004450000000  0.4622280000000  0.5404700000000 1.0
C      1  0.4674540000000  0.5810440000000  0.4502560000000 1.0
C      1  0.5815810000000  0.5491860000000  0.4857650000000 1.0
C      1  0.5326380000000  0.4524790000000  0.5840130000000 1.0
C      1  0.5244230000000  0.4061880000000  0.5238080000000 1.0
C      1  0.5224630000000  0.5342070000000  0.4605420000000 1.0
C      1  0.4662600000000  0.4748160000000  0.4360600000000 1.0
C      1  0.4844020000000  0.5862370000000  0.5688380000000 1.0
C      1  0.5670680000000  0.4325960000000  0.5174790000000 1.0
C      1  0.5317220000000  0.5789980000000  0.4121240000000 1.0
C      1  0.4058270000000  0.4565140000000  0.4922940000000 1.0
C      1  0.4252520000000  0.4995820000000  0.4334120000000 1.0
C      1  0.4417560000000  0.5257810000000  0.4327950000000 1.0
C      1  0.4285040000000  0.4507850000000  0.4227610000000 1.0
C      1  0.4222040000000  0.4928050000000  0.4615130000000 1.0
C      1  0.5466600000000  0.4052310000000  0.4800290000000 1.0
C      1  0.5715230000000  0.4594030000000  0.5037000000000 1.0
C      1  0.5305170000000  0.5240330000000  0.5831200000000 1.0
C      1  0.4642600000000  0.4482730000000  0.4558030000000 1.0
C      1  0.5707390000000  0.4147030000000  0.4948610000000 1.0
C      1  0.5888420000000  0.5109030000000  0.5063880000000 1.0
C      1  0.6111940000000  0.4898410000000  0.5064050000000 1.0
C      1  0.4803930000000  0.5095500000000  0.4447120000000 1.0
C      1  0.4429410000000  0.5408220000000  0.4592360000000 1.0
C      1  0.4736340000000  0.5566100000000  0.4936460000000 1.0
C      1  0.3973100000000  0.4837760000000  0.4888590000000 1.0
C      1  0.4015040000000  0.5311310000000  0.5053100000000 1.0
C      1  0.6021170000000  0.4880310000000  0.5353980000000 1.0
C      1  0.4648560000000  0.5952380000000  0.5261730000000 1.0
C      1  0.5123060000000  0.5052120000000  0.5268830000000 1.0
C      1  0.4531160000000  0.5028870000000  0.5320790000000 1.0
C      1  0.5200920000000  0.5351190000000  0.5357550000000 1.0
C      1  0.4857610000000  0.5800030000000  0.4257430000000 1.0
C      1  0.5019630000000  0.5637060000000  0.4970340000000 1.0
C      1  0.5032430000000  0.5890130000000  0.4812640000000 1.0
C      1  0.4579710000000  0.4427780000000  0.4850990000000 1.0
C      1  0.5372850000000  0.4480370000000  0.4639540000000 1.0
C      1  0.5971240000000  0.5151930000000  0.5493220000000 1.0
C      1  0.4997470000000  0.3888180000000  0.4871080000000 1.0
C      1  0.4393290000000  0.5690250000000  0.5637780000000 1.0
C      1  0.4194400000000  0.5500750000000  0.5186360000000 1.0
C      1  0.5130330000000  0.4798100000000  0.6029210000000 1.0
C      1  0.5473030000000  0.5263380000000  0.5016840000000 1.0
C      1  0.4720250000000  0.4653200000000  0.5837720000000 1.0
C      1  0.5391190000000  0.4751040000000  0.5675940000000 1.0
C      1  0.5069640000000  0.4368970000000  0.4939860000000 1.0
C      1  0.4370980000000  0.5002280000000  0.5783660000000 1.0
C      1  0.4488170000000  0.5184500000000  0.5997980000000 1.0
C      1  0.4574270000000  0.5826350000000  0.4994150000000 1.0
END
