TITL C-951335-1172-70 -6.26915251572856e-07 125000 -584.644098262582 0 0 94 (C1) n - 1
REM
REM in /home/bkarasulu/work/CARBON/AIRSS/Generating-Clusters/EDIP-Nigel-Params/with-SteepDescent/Only-C1/SD-CG/HFTN-CG
REM
REM
REM
REM
REM
REM ./C.cell (11c1c37f851c82e70ff6c80c92926a4b)
REM
REM compiler GCC version 9.2.1 20190827 (Red Hat 9.2.1-1)
REM options -cpp -mtune=generic -march=x86-64 -g -O0 -fpre-include=/usr/include/finclude/math-vector-fortran.h
REM seed -1053320221 282771290 1576210405 1626085259 530992448 783848852 -1407711452 -705710244 -1001348487 1004936236 1735484440 2041917076 1484391819 1935347285 955546422 -1999772226 775742737 525200440 1740529431 1178618768 1955909751 -1122407561 -1551072566 2143158852 -929762433 -2110356827 -745093462 -1530053781 366959096 -21620626 413364496 -2112755600 1966711035
REM
CELL 1.54180   50.00000   50.00000   50.00000   90.00000   90.00000   90.00000
LATT -1
SFAC C  
C      1  0.5813310000000  0.4554370000000  0.4773550000000 1.0
C      1  0.4471420000000  0.4361140000000  0.5144290000000 1.0
C      1  0.5441780000000  0.5020150000000  0.5072470000000 1.0
C      1  0.4627160000000  0.5317420000000  0.4315010000000 1.0
C      1  0.4217310000000  0.5069790000000  0.5134760000000 1.0
C      1  0.4297900000000  0.5567420000000  0.4664830000000 1.0
C      1  0.5526050000000  0.5425620000000  0.5471330000000 1.0
C      1  0.5432900000000  0.4225880000000  0.4763770000000 1.0
C      1  0.4302810000000  0.4704130000000  0.5468940000000 1.0
C      1  0.4372450000000  0.5672500000000  0.5152430000000 1.0
C      1  0.5278010000000  0.5605710000000  0.4533140000000 1.0
C      1  0.5081690000000  0.4725370000000  0.5697500000000 1.0
C      1  0.5751250000000  0.5437390000000  0.4880350000000 1.0
C      1  0.5927590000000  0.4751560000000  0.4616800000000 1.0
C      1  0.4606920000000  0.5808690000000  0.5063110000000 1.0
C      1  0.4584300000000  0.5558420000000  0.5613130000000 1.0
C      1  0.5025290000000  0.5219110000000  0.5047550000000 1.0
C      1  0.5894540000000  0.4703870000000  0.4345230000000 1.0
C      1  0.5927560000000  0.5011760000000  0.4715440000000 1.0
C      1  0.5412150000000  0.4902540000000  0.4474110000000 1.0
C      1  0.4912630000000  0.4287520000000  0.5357810000000 1.0
C      1  0.4794260000000  0.4562890000000  0.4475460000000 1.0
C      1  0.5732150000000  0.5060850000000  0.5156540000000 1.0
C      1  0.4946040000000  0.4314320000000  0.5045660000000 1.0
C      1  0.4656590000000  0.4614120000000  0.5753020000000 1.0
C      1  0.4384140000000  0.4652340000000  0.5176010000000 1.0
C      1  0.4660910000000  0.4310490000000  0.4919060000000 1.0
C      1  0.4770900000000  0.5343870000000  0.5729660000000 1.0
C      1  0.4541120000000  0.5533270000000  0.4523100000000 1.0
C      1  0.5196620000000  0.5774560000000  0.5260570000000 1.0
C      1  0.4804550000000  0.4865420000000  0.5351320000000 1.0
C      1  0.4574250000000  0.5161170000000  0.4807750000000 1.0
C      1  0.5569560000000  0.4842020000000  0.5511130000000 1.0
C      1  0.4623560000000  0.5298090000000  0.5255690000000 1.0
C      1  0.5445450000000  0.4258530000000  0.4477280000000 1.0
C      1  0.5605050000000  0.4422980000000  0.4903430000000 1.0
C      1  0.5091730000000  0.4517930000000  0.4518000000000 1.0
C      1  0.5293480000000  0.5261520000000  0.5573010000000 1.0
C      1  0.4045520000000  0.5007710000000  0.4881880000000 1.0
C      1  0.4853930000000  0.4633940000000  0.5523920000000 1.0
C      1  0.4407130000000  0.4997520000000  0.4612820000000 1.0
C      1  0.4975140000000  0.5615970000000  0.5398830000000 1.0
C      1  0.4510870000000  0.5099280000000  0.5076890000000 1.0
C      1  0.5282600000000  0.4889830000000  0.4746310000000 1.0
C      1  0.4897150000000  0.4889860000000  0.5873530000000 1.0
C      1  0.5382950000000  0.5160170000000  0.4321680000000 1.0
C      1  0.5315540000000  0.5264440000000  0.4973920000000 1.0
C      1  0.5224470000000  0.4585530000000  0.4792950000000 1.0
C      1  0.5176660000000  0.4331850000000  0.5515140000000 1.0
C      1  0.4637960000000  0.4556440000000  0.4732390000000 1.0
C      1  0.4750980000000  0.5772950000000  0.5512580000000 1.0
C      1  0.4955790000000  0.4928580000000  0.4684970000000 1.0
C      1  0.5296690000000  0.4982690000000  0.5428880000000 1.0
C      1  0.4920670000000  0.5357030000000  0.4283370000000 1.0
C      1  0.5870340000000  0.5186700000000  0.4923620000000 1.0
C      1  0.4778950000000  0.5690160000000  0.4605670000000 1.0
C      1  0.5712860000000  0.4552250000000  0.4216530000000 1.0
C      1  0.5698020000000  0.4722470000000  0.5278170000000 1.0
C      1  0.5049700000000  0.5431130000000  0.5625700000000 1.0
C      1  0.4133430000000  0.5104180000000  0.4627070000000 1.0
C      1  0.5458220000000  0.4455960000000  0.4272720000000 1.0
C      1  0.5113640000000  0.5821380000000  0.4969550000000 1.0
C      1  0.4558800000000  0.5024150000000  0.4351270000000 1.0
C      1  0.5034320000000  0.4866720000000  0.4173550000000 1.0
C      1  0.5451530000000  0.5409880000000  0.4433580000000 1.0
C      1  0.4187700000000  0.4729460000000  0.4937420000000 1.0
C      1  0.5257880000000  0.4682920000000  0.4321140000000 1.0
C      1  0.5746240000000  0.5035830000000  0.5621420000000 1.0
C      1  0.5398700000000  0.4345290000000  0.5349540000000 1.0
C      1  0.4225980000000  0.5602820000000  0.4924190000000 1.0
C      1  0.5044920000000  0.4969230000000  0.5235900000000 1.0
C      1  0.4589900000000  0.4298790000000  0.5406630000000 1.0
C      1  0.5001750000000  0.5584670000000  0.4449630000000 1.0
C      1  0.5172000000000  0.4181950000000  0.4895140000000 1.0
C      1  0.4625120000000  0.4835540000000  0.5127170000000 1.0
C      1  0.4805020000000  0.4744450000000  0.4893140000000 1.0
C      1  0.5195960000000  0.4474510000000  0.5760100000000 1.0
C      1  0.5024680000000  0.4590700000000  0.5008050000000 1.0
C      1  0.4377130000000  0.4707520000000  0.4703960000000 1.0
C      1  0.4227780000000  0.5199340000000  0.5430080000000 1.0
C      1  0.5467410000000  0.5631890000000  0.5252300000000 1.0
C      1  0.4869860000000  0.5174050000000  0.4792140000000 1.0
C      1  0.5484250000000  0.5513410000000  0.4972170000000 1.0
C      1  0.5560790000000  0.4491520000000  0.5178300000000 1.0
C      1  0.4689450000000  0.5054290000000  0.5734400000000 1.0
C      1  0.4826530000000  0.5788510000000  0.4880830000000 1.0
C      1  0.5336030000000  0.5711610000000  0.4799770000000 1.0
C      1  0.4821690000000  0.4857120000000  0.4388780000000 1.0
C      1  0.5119120000000  0.5150580000000  0.4184800000000 1.0
C      1  0.4448440000000  0.4481580000000  0.5608890000000 1.0
C      1  0.5750980000000  0.5232030000000  0.5413730000000 1.0
C      1  0.4416660000000  0.5456470000000  0.5379770000000 1.0
C      1  0.4868070000000  0.5430020000000  0.5187210000000 1.0
C      1  0.4370680000000  0.4980460000000  0.5583710000000 1.0
END
