TITL C-950526-5686-464 -1.42440379338509e-06 125000 -952.891529351099 0 0 152 (C1) n - 1
REM
REM in /home/bkarasulu/work/CARBON/AIRSS/Generating-Clusters/EDIP-Nigel-Params/with-SteepDescent/Only-C1/SD-CG/HFTN-CG
REM
REM
REM
REM
REM
REM ./C.cell (11c1c37f851c82e70ff6c80c92926a4b)
REM
REM compiler GCC version 9.2.1 20190827 (Red Hat 9.2.1-1)
REM options -cpp -mtune=generic -march=x86-64 -g -O0 -fpre-include=/usr/include/finclude/math-vector-fortran.h
REM seed -64646517 -272851917 -1782929080 1163958721 1698520178 -224965783 2016623418 -824781013 -1952582828 398178464 2099170307 -83882456 951901921 -760369563 1866585163 1518627544 1746375219 -170255802 229108669 -1034749629 -636550255 -123913167 -697979924 202387718 962103734 -178939625 576067264 -707583476 -293542240 228577464 684100975 -1446859746 389599023
REM
CELL 1.54180   50.00000   50.00000   50.00000   90.00000   90.00000   90.00000
LATT -1
SFAC C  
C      1  0.4437190000000  0.5835800000000  0.5315780000000 1.0
C      1  0.5369660000000  0.4553140000000  0.5368640000000 1.0
C      1  0.5423870000000  0.4582660000000  0.5807800000000 1.0
C      1  0.4739080000000  0.5181190000000  0.4053490000000 1.0
C      1  0.5877240000000  0.5202130000000  0.5452760000000 1.0
C      1  0.5028670000000  0.5261000000000  0.5396980000000 1.0
C      1  0.6266790000000  0.5373770000000  0.4856190000000 1.0
C      1  0.4013430000000  0.5148730000000  0.5062490000000 1.0
C      1  0.4598300000000  0.5505910000000  0.5784330000000 1.0
C      1  0.4964690000000  0.4278080000000  0.4281570000000 1.0
C      1  0.4424870000000  0.4807880000000  0.5688600000000 1.0
C      1  0.5808660000000  0.4584180000000  0.4727870000000 1.0
C      1  0.5632520000000  0.4789690000000  0.5830640000000 1.0
C      1  0.5147610000000  0.4892640000000  0.4749890000000 1.0
C      1  0.4559760000000  0.4164270000000  0.4561560000000 1.0
C      1  0.5110590000000  0.5552560000000  0.4052530000000 1.0
C      1  0.5895370000000  0.4713970000000  0.5717640000000 1.0
C      1  0.4121670000000  0.5567600000000  0.4719860000000 1.0
C      1  0.4185700000000  0.4515640000000  0.4366690000000 1.0
C      1  0.4427670000000  0.4927740000000  0.5200590000000 1.0
C      1  0.4849740000000  0.3968120000000  0.4959000000000 1.0
C      1  0.5559950000000  0.4670710000000  0.4882780000000 1.0
C      1  0.5166670000000  0.4446870000000  0.4125230000000 1.0
C      1  0.4069850000000  0.5112880000000  0.4776770000000 1.0
C      1  0.4389300000000  0.5093600000000  0.5677840000000 1.0
C      1  0.4482300000000  0.5997280000000  0.4698160000000 1.0
C      1  0.4715710000000  0.4447080000000  0.4360340000000 1.0
C      1  0.5233740000000  0.4165030000000  0.5667970000000 1.0
C      1  0.4030920000000  0.4649000000000  0.5126440000000 1.0
C      1  0.4394280000000  0.4441900000000  0.5378190000000 1.0
C      1  0.4335720000000  0.4165560000000  0.4989320000000 1.0
C      1  0.5318420000000  0.4481680000000  0.4536610000000 1.0
C      1  0.4860060000000  0.4718770000000  0.5394180000000 1.0
C      1  0.5287900000000  0.5055630000000  0.6024790000000 1.0
C      1  0.4530890000000  0.5250740000000  0.5209930000000 1.0
C      1  0.5593440000000  0.4200040000000  0.4905960000000 1.0
C      1  0.4804750000000  0.5648310000000  0.5026000000000 1.0
C      1  0.4858170000000  0.5658210000000  0.4133310000000 1.0
C      1  0.5573370000000  0.5022270000000  0.4533970000000 1.0
C      1  0.4563830000000  0.5238480000000  0.5870030000000 1.0
C      1  0.4453910000000  0.6067720000000  0.5155910000000 1.0
C      1  0.5530870000000  0.4787310000000  0.4359370000000 1.0
C      1  0.4629200000000  0.4986310000000  0.4251770000000 1.0
C      1  0.4115220000000  0.4919680000000  0.5232690000000 1.0
C      1  0.5216530000000  0.5465230000000  0.4303820000000 1.0
C      1  0.5194630000000  0.5185920000000  0.4374500000000 1.0
C      1  0.5467170000000  0.4360750000000  0.5597660000000 1.0
C      1  0.5380940000000  0.4439370000000  0.4823570000000 1.0
C      1  0.4164460000000  0.5185540000000  0.5514370000000 1.0
C      1  0.4866180000000  0.3953150000000  0.5448230000000 1.0
C      1  0.4378570000000  0.5754360000000  0.4409740000000 1.0
C      1  0.5242910000000  0.5737050000000  0.5590940000000 1.0
C      1  0.5052050000000  0.4727340000000  0.4217610000000 1.0
C      1  0.5344670000000  0.5918040000000  0.5198070000000 1.0
C      1  0.5302030000000  0.4964640000000  0.5208990000000 1.0
C      1  0.4312480000000  0.5007590000000  0.4272610000000 1.0
C      1  0.5128910000000  0.5488590000000  0.5978250000000 1.0
C      1  0.5545860000000  0.3997220000000  0.4700310000000 1.0
C      1  0.4730900000000  0.5083300000000  0.4549060000000 1.0
C      1  0.5073440000000  0.6069720000000  0.5188020000000 1.0
C      1  0.4122960000000  0.4455010000000  0.5305630000000 1.0
C      1  0.4998800000000  0.5129100000000  0.3941860000000 1.0
C      1  0.5003440000000  0.4652120000000  0.6087000000000 1.0
C      1  0.4817600000000  0.4150260000000  0.4719600000000 1.0
C      1  0.4594660000000  0.5939930000000  0.4440580000000 1.0
C      1  0.4722480000000  0.5283880000000  0.5464050000000 1.0
C      1  0.4651270000000  0.5451600000000  0.4131310000000 1.0
C      1  0.5656170000000  0.5371200000000  0.5446370000000 1.0
C      1  0.4611860000000  0.5352930000000  0.4612740000000 1.0
C      1  0.5139580000000  0.3928010000000  0.4970390000000 1.0
C      1  0.5908070000000  0.5386970000000  0.4520500000000 1.0
C      1  0.5426670000000  0.4386890000000  0.4262120000000 1.0
C      1  0.4778900000000  0.4818520000000  0.6035430000000 1.0
C      1  0.5006690000000  0.4356910000000  0.5691530000000 1.0
C      1  0.5275450000000  0.5824490000000  0.4686770000000 1.0
C      1  0.5146320000000  0.5541840000000  0.5379950000000 1.0
C      1  0.5150170000000  0.3962200000000  0.5469090000000 1.0
C      1  0.5531320000000  0.5073920000000  0.5884570000000 1.0
C      1  0.5496860000000  0.4935240000000  0.4086690000000 1.0
C      1  0.5489910000000  0.5517380000000  0.4354130000000 1.0
C      1  0.4147220000000  0.4415200000000  0.4631260000000 1.0
C      1  0.5027790000000  0.5134260000000  0.4621200000000 1.0
C      1  0.5869220000000  0.4351490000000  0.4913800000000 1.0
C      1  0.5471330000000  0.5136700000000  0.5035070000000 1.0
C      1  0.5260740000000  0.3983740000000  0.4704070000000 1.0
C      1  0.5683120000000  0.5153270000000  0.4095910000000 1.0
C      1  0.4226590000000  0.5288240000000  0.4342590000000 1.0
C      1  0.4901540000000  0.5985010000000  0.5417250000000 1.0
C      1  0.5124850000000  0.4473630000000  0.4965600000000 1.0
C      1  0.4811630000000  0.5095570000000  0.5954780000000 1.0
C      1  0.5046070000000  0.6142840000000  0.4692910000000 1.0
C      1  0.4554680000000  0.4708600000000  0.5915800000000 1.0
C      1  0.5446270000000  0.4944330000000  0.4790750000000 1.0
C      1  0.4060280000000  0.5328900000000  0.4589200000000 1.0
C      1  0.5827530000000  0.4459060000000  0.5236520000000 1.0
C      1  0.5252960000000  0.4077190000000  0.5214240000000 1.0
C      1  0.4527490000000  0.4719630000000  0.5422800000000 1.0
C      1  0.4529040000000  0.4283110000000  0.5166590000000 1.0
C      1  0.5954660000000  0.4679950000000  0.5427690000000 1.0
C      1  0.5338390000000  0.5556480000000  0.5807290000000 1.0
C      1  0.5801670000000  0.5507550000000  0.4990450000000 1.0
C      1  0.4306280000000  0.5576490000000  0.5197800000000 1.0
C      1  0.4148830000000  0.4795510000000  0.4403690000000 1.0
C      1  0.4465140000000  0.5470520000000  0.4372130000000 1.0
C      1  0.5054690000000  0.4128670000000  0.4533840000000 1.0
C      1  0.5177860000000  0.5066230000000  0.5620500000000 1.0
C      1  0.4992810000000  0.4832050000000  0.5647410000000 1.0
C      1  0.5038900000000  0.5304170000000  0.4872810000000 1.0
C      1  0.6113240000000  0.5245310000000  0.4664090000000 1.0
C      1  0.4548190000000  0.4773660000000  0.4966690000000 1.0
C      1  0.5558580000000  0.5414040000000  0.5152390000000 1.0
C      1  0.5753310000000  0.4941540000000  0.5436670000000 1.0
C      1  0.4823880000000  0.4604620000000  0.4609290000000 1.0
C      1  0.5665410000000  0.5265700000000  0.4367430000000 1.0
C      1  0.5686060000000  0.4242240000000  0.5397480000000 1.0
C      1  0.5452350000000  0.5904490000000  0.5464920000000 1.0
C      1  0.5158580000000  0.4376260000000  0.5233180000000 1.0
C      1  0.5763720000000  0.5569310000000  0.4706240000000 1.0
C      1  0.5186460000000  0.5000550000000  0.4131030000000 1.0
C      1  0.5093190000000  0.5955650000000  0.4475660000000 1.0
C      1  0.4860220000000  0.4426430000000  0.4836860000000 1.0
C      1  0.4851810000000  0.5817440000000  0.4381800000000 1.0
C      1  0.5293010000000  0.5619160000000  0.5142870000000 1.0
C      1  0.5031820000000  0.5924080000000  0.5664170000000 1.0
C      1  0.5111420000000  0.4612420000000  0.5819030000000 1.0
C      1  0.4746060000000  0.4713240000000  0.4183120000000 1.0
C      1  0.4071110000000  0.4619610000000  0.4832500000000 1.0
C      1  0.4745850000000  0.4067280000000  0.5215920000000 1.0
C      1  0.4614950000000  0.6108290000000  0.4927340000000 1.0
C      1  0.5064450000000  0.5222030000000  0.6020960000000 1.0
C      1  0.4726200000000  0.5757670000000  0.5324080000000 1.0
C      1  0.5483400000000  0.5318890000000  0.5691840000000 1.0
C      1  0.5414140000000  0.4907000000000  0.5468440000000 1.0
C      1  0.5083350000000  0.5591300000000  0.4921140000000 1.0
C      1  0.4910860000000  0.6066990000000  0.4933800000000 1.0
C      1  0.4329630000000  0.5629740000000  0.4898370000000 1.0
C      1  0.5595930000000  0.4632430000000  0.5175740000000 1.0
C      1  0.5020090000000  0.4867770000000  0.5112850000000 1.0
C      1  0.5097670000000  0.4690060000000  0.4525120000000 1.0
C      1  0.4735450000000  0.5558980000000  0.5547130000000 1.0
C      1  0.5722600000000  0.4560120000000  0.4441340000000 1.0
C      1  0.4655340000000  0.4507380000000  0.5023870000000 1.0
C      1  0.5513820000000  0.5668390000000  0.4593410000000 1.0
C      1  0.4668270000000  0.4841160000000  0.4711340000000 1.0
C      1  0.4041390000000  0.4852540000000  0.4667400000000 1.0
C      1  0.6045930000000  0.5356670000000  0.5023680000000 1.0
C      1  0.4923670000000  0.4423430000000  0.5409940000000 1.0
C      1  0.4590780000000  0.5468430000000  0.4894090000000 1.0
C      1  0.4313990000000  0.4192300000000  0.4711680000000 1.0
C      1  0.4918770000000  0.5159000000000  0.5109890000000 1.0
C      1  0.4107410000000  0.5352260000000  0.5276740000000 1.0
C      1  0.5547700000000  0.4087760000000  0.5185990000000 1.0
END
