TITL C-951345-2650-416 -3.62618627295364e-06 125000 -494.376373251201 0 0 81 (C1) n - 1
REM
REM in /home/bkarasulu/work/CARBON/AIRSS/Generating-Clusters/EDIP-Nigel-Params/with-SteepDescent/Only-C1/SD-CG/HFTN-CG
REM
REM
REM
REM
REM
REM ./C.cell (11c1c37f851c82e70ff6c80c92926a4b)
REM
REM compiler GCC version 9.2.1 20190827 (Red Hat 9.2.1-1)
REM options -cpp -mtune=generic -march=x86-64 -g -O0 -fpre-include=/usr/include/finclude/math-vector-fortran.h
REM seed -1856085931 -16087003 1493242536 1586098954 -955760435 -1507360431 -312355933 775716703 -1581113633 -809781726 1277686940 -1101223186 -1102701843 -180347232 -452471688 347312319 -2071738853 -1447497577 -216652043 1130071216 1948180285 1777841649 -1624516632 1562548151 1239000669 -769848090 -1786270822 -2065812696 158216629 -828062695 1479796746 -214786706 1473189581
REM
CELL 1.54180   50.00000   50.00000   50.00000   90.00000   90.00000   90.00000
LATT -1
SFAC C  
C      1  0.4791620000000  0.5642800000000  0.5405580000000 1.0
C      1  0.5469830000000  0.4949090000000  0.5197280000000 1.0
C      1  0.5591020000000  0.5134890000000  0.4423070000000 1.0
C      1  0.5013960000000  0.5214550000000  0.5065590000000 1.0
C      1  0.5588860000000  0.5655510000000  0.4864990000000 1.0
C      1  0.4409390000000  0.5309390000000  0.5464210000000 1.0
C      1  0.5791410000000  0.4877510000000  0.5485180000000 1.0
C      1  0.4923810000000  0.4957800000000  0.4646380000000 1.0
C      1  0.4634950000000  0.5163360000000  0.4245460000000 1.0
C      1  0.4664850000000  0.4901660000000  0.4153060000000 1.0
C      1  0.5342860000000  0.5246990000000  0.4474660000000 1.0
C      1  0.5527060000000  0.4522610000000  0.4850230000000 1.0
C      1  0.4435890000000  0.4523990000000  0.4622930000000 1.0
C      1  0.5257580000000  0.4750870000000  0.5279330000000 1.0
C      1  0.4937150000000  0.4213940000000  0.5206850000000 1.0
C      1  0.4986010000000  0.5726050000000  0.5185860000000 1.0
C      1  0.5737720000000  0.5422200000000  0.4773480000000 1.0
C      1  0.4789950000000  0.5201500000000  0.4784420000000 1.0
C      1  0.4741390000000  0.4666610000000  0.4280870000000 1.0
C      1  0.4746920000000  0.4913860000000  0.5378210000000 1.0
C      1  0.4571490000000  0.5102150000000  0.4971940000000 1.0
C      1  0.4300820000000  0.4737470000000  0.4773410000000 1.0
C      1  0.4511140000000  0.5257390000000  0.4516810000000 1.0
C      1  0.5106070000000  0.4838120000000  0.4850980000000 1.0
C      1  0.4726020000000  0.4597670000000  0.5012830000000 1.0
C      1  0.5115810000000  0.4351930000000  0.5036110000000 1.0
C      1  0.4431920000000  0.5539570000000  0.5024920000000 1.0
C      1  0.5193780000000  0.5350330000000  0.5272750000000 1.0
C      1  0.5343330000000  0.4729370000000  0.5579130000000 1.0
C      1  0.4886920000000  0.4400010000000  0.5414730000000 1.0
C      1  0.4549380000000  0.4354810000000  0.5043720000000 1.0
C      1  0.4636760000000  0.5616410000000  0.4832120000000 1.0
C      1  0.4690680000000  0.4938370000000  0.5659760000000 1.0
C      1  0.4913070000000  0.5668300000000  0.4902010000000 1.0
C      1  0.4861600000000  0.5431320000000  0.5642260000000 1.0
C      1  0.5511400000000  0.5632190000000  0.5145700000000 1.0
C      1  0.5334100000000  0.5510190000000  0.4615080000000 1.0
C      1  0.4169690000000  0.4942530000000  0.4634340000000 1.0
C      1  0.4253000000000  0.5203830000000  0.4671170000000 1.0
C      1  0.5839120000000  0.4922500000000  0.4958480000000 1.0
C      1  0.5100910000000  0.5076980000000  0.4405550000000 1.0
C      1  0.4607860000000  0.5530870000000  0.4556090000000 1.0
C      1  0.4878880000000  0.4670180000000  0.5274280000000 1.0
C      1  0.4228600000000  0.5152710000000  0.5276490000000 1.0
C      1  0.5472090000000  0.5184740000000  0.5648210000000 1.0
C      1  0.5353560000000  0.4472580000000  0.5156460000000 1.0
C      1  0.5105390000000  0.4434170000000  0.4549670000000 1.0
C      1  0.4682270000000  0.4674370000000  0.4554600000000 1.0
C      1  0.5115020000000  0.4643170000000  0.5780230000000 1.0
C      1  0.5025810000000  0.4583480000000  0.4287710000000 1.0
C      1  0.5206020000000  0.5252920000000  0.5749790000000 1.0
C      1  0.4554090000000  0.5502170000000  0.5294750000000 1.0
C      1  0.4468310000000  0.4291130000000  0.4780870000000 1.0
C      1  0.4308680000000  0.5265600000000  0.4975710000000 1.0
C      1  0.5466850000000  0.5231480000000  0.5348050000000 1.0
C      1  0.5099920000000  0.4373260000000  0.5621600000000 1.0
C      1  0.5212050000000  0.4815470000000  0.4256070000000 1.0
C      1  0.5826540000000  0.4798380000000  0.5221660000000 1.0
C      1  0.5404230000000  0.4461530000000  0.4572970000000 1.0
C      1  0.5265050000000  0.5733650000000  0.5257150000000 1.0
C      1  0.5383010000000  0.4965520000000  0.4903830000000 1.0
C      1  0.5659290000000  0.5448840000000  0.5301920000000 1.0
C      1  0.5465340000000  0.4683290000000  0.4371370000000 1.0
C      1  0.5056780000000  0.5266210000000  0.5519840000000 1.0
C      1  0.4874170000000  0.5536450000000  0.4430430000000 1.0
C      1  0.5005220000000  0.4544770000000  0.4829900000000 1.0
C      1  0.5793790000000  0.5209970000000  0.4958880000000 1.0
C      1  0.4340280000000  0.4417600000000  0.5221330000000 1.0
C      1  0.4906740000000  0.5278490000000  0.4269010000000 1.0
C      1  0.5647090000000  0.4872850000000  0.4497890000000 1.0
C      1  0.5367580000000  0.4372170000000  0.5462210000000 1.0
C      1  0.5617630000000  0.4808750000000  0.4788950000000 1.0
C      1  0.4204060000000  0.4624590000000  0.5326800000000 1.0
C      1  0.5062270000000  0.5616790000000  0.4647130000000 1.0
C      1  0.5573520000000  0.4908990000000  0.5659070000000 1.0
C      1  0.4880480000000  0.4797010000000  0.5814670000000 1.0
C      1  0.4608240000000  0.5232690000000  0.5688530000000 1.0
C      1  0.5415620000000  0.5273830000000  0.4907000000000 1.0
C      1  0.4158680000000  0.4889040000000  0.5338510000000 1.0
C      1  0.4529610000000  0.4817570000000  0.4941720000000 1.0
C      1  0.4740150000000  0.5166080000000  0.5207210000000 1.0
END
