TITL C-950528-5794-95 -2.88319019550607e-06 125000 -906.484898655067 0 0 144 (C1) n - 1
REM
REM in /home/bkarasulu/work/CARBON/AIRSS/Generating-Clusters/EDIP-Nigel-Params/with-SteepDescent/Only-C1/SD-CG/HFTN-CG
REM
REM
REM
REM
REM
REM ./C.cell (11c1c37f851c82e70ff6c80c92926a4b)
REM
REM compiler GCC version 9.2.1 20190827 (Red Hat 9.2.1-1)
REM options -cpp -mtune=generic -march=x86-64 -g -O0 -fpre-include=/usr/include/finclude/math-vector-fortran.h
REM seed -397202648 -197568817 64531796 402245397 1269296800 165686307 1646801519 -392263830 1908124765 628802644 566076015 -75912776 -1617515709 2144968291 -1739917728 -1823742205 1071633011 -204437680 496819789 307778644 1793856315 1622839709 1651734881 723983987 -1630683613 -589232130 -1578372607 628242213 -1244311035 847993724 410846453 1745769175 -154668722
REM
CELL 1.54180   50.00000   50.00000   50.00000   90.00000   90.00000   90.00000
LATT -1
SFAC C  
C      1  0.4378210000000  0.5482130000000  0.5250100000000 1.0
C      1  0.4890890000000  0.4798620000000  0.3898760000000 1.0
C      1  0.4616130000000  0.5878100000000  0.5132140000000 1.0
C      1  0.4447430000000  0.5246520000000  0.4026850000000 1.0
C      1  0.5334470000000  0.5715470000000  0.5300460000000 1.0
C      1  0.4625480000000  0.5139550000000  0.4861090000000 1.0
C      1  0.4480050000000  0.4860390000000  0.4496470000000 1.0
C      1  0.5436960000000  0.4293940000000  0.5507650000000 1.0
C      1  0.4383210000000  0.5535150000000  0.5739740000000 1.0
C      1  0.5551820000000  0.4920910000000  0.5263740000000 1.0
C      1  0.4467940000000  0.4768000000000  0.5241230000000 1.0
C      1  0.5220540000000  0.5510670000000  0.5000560000000 1.0
C      1  0.4319220000000  0.4071700000000  0.5025420000000 1.0
C      1  0.4290900000000  0.4590100000000  0.5428110000000 1.0
C      1  0.4879870000000  0.4408630000000  0.5219930000000 1.0
C      1  0.4919900000000  0.5605350000000  0.4951080000000 1.0
C      1  0.4500560000000  0.4583190000000  0.4582980000000 1.0
C      1  0.5810380000000  0.5451520000000  0.4615590000000 1.0
C      1  0.4903390000000  0.4697000000000  0.5898530000000 1.0
C      1  0.4957780000000  0.4661810000000  0.4807440000000 1.0
C      1  0.5066110000000  0.6016290000000  0.4947940000000 1.0
C      1  0.5498770000000  0.5214930000000  0.5190810000000 1.0
C      1  0.5406660000000  0.5231680000000  0.4468950000000 1.0
C      1  0.4029250000000  0.4785300000000  0.5216300000000 1.0
C      1  0.5426890000000  0.4561690000000  0.4300850000000 1.0
C      1  0.4692810000000  0.5192490000000  0.5138730000000 1.0
C      1  0.4854210000000  0.5138860000000  0.4672920000000 1.0
C      1  0.5153630000000  0.4620990000000  0.5416290000000 1.0
C      1  0.5263150000000  0.5697340000000  0.4369460000000 1.0
C      1  0.4388880000000  0.4980690000000  0.4766200000000 1.0
C      1  0.4641630000000  0.4686770000000  0.3973140000000 1.0
C      1  0.4852850000000  0.4245380000000  0.5690190000000 1.0
C      1  0.5480660000000  0.5285490000000  0.5913000000000 1.0
C      1  0.5695970000000  0.5213130000000  0.4531240000000 1.0
C      1  0.5018360000000  0.5146010000000  0.6080300000000 1.0
C      1  0.4304090000000  0.5662460000000  0.4801980000000 1.0
C      1  0.4938750000000  0.4162140000000  0.5414150000000 1.0
C      1  0.5957440000000  0.5339930000000  0.5306220000000 1.0
C      1  0.4244920000000  0.5601340000000  0.4524150000000 1.0
C      1  0.5102570000000  0.4916410000000  0.5918190000000 1.0
C      1  0.5513650000000  0.5807350000000  0.5631090000000 1.0
C      1  0.4948880000000  0.5444970000000  0.4657500000000 1.0
C      1  0.4877870000000  0.4778720000000  0.5430680000000 1.0
C      1  0.5329410000000  0.4254810000000  0.4646410000000 1.0
C      1  0.4690850000000  0.4786410000000  0.5693870000000 1.0
C      1  0.5676520000000  0.5584650000000  0.5546470000000 1.0
C      1  0.6054860000000  0.4629980000000  0.4798130000000 1.0
C      1  0.5841460000000  0.4412000000000  0.5170970000000 1.0
C      1  0.5004380000000  0.5711750000000  0.5587450000000 1.0
C      1  0.4038980000000  0.4685070000000  0.4932960000000 1.0
C      1  0.4736300000000  0.3994500000000  0.5273440000000 1.0
C      1  0.4284560000000  0.4304020000000  0.5336800000000 1.0
C      1  0.5944170000000  0.5563470000000  0.5475240000000 1.0
C      1  0.5301110000000  0.4956740000000  0.4575080000000 1.0
C      1  0.4539060000000  0.5816940000000  0.4857200000000 1.0
C      1  0.5222940000000  0.4364520000000  0.4395340000000 1.0
C      1  0.4586000000000  0.4327640000000  0.5720750000000 1.0
C      1  0.5191760000000  0.5462370000000  0.4089920000000 1.0
C      1  0.5070860000000  0.5917680000000  0.4395150000000 1.0
C      1  0.4947000000000  0.4757530000000  0.4280560000000 1.0
C      1  0.6007030000000  0.4630500000000  0.5078170000000 1.0
C      1  0.4887950000000  0.5191990000000  0.5565560000000 1.0
C      1  0.4907940000000  0.4026900000000  0.4831900000000 1.0
C      1  0.4832040000000  0.3858780000000  0.5045370000000 1.0
C      1  0.5071800000000  0.4451460000000  0.4992100000000 1.0
C      1  0.4309110000000  0.5219390000000  0.5401950000000 1.0
C      1  0.4676140000000  0.5417330000000  0.4079360000000 1.0
C      1  0.5592090000000  0.4037890000000  0.5043170000000 1.0
C      1  0.4285490000000  0.4408550000000  0.4687680000000 1.0
C      1  0.5765600000000  0.5311270000000  0.5069180000000 1.0
C      1  0.5730420000000  0.4258490000000  0.4943190000000 1.0
C      1  0.5701210000000  0.5116340000000  0.5842370000000 1.0
C      1  0.4195410000000  0.5510810000000  0.5024120000000 1.0
C      1  0.4739500000000  0.5776040000000  0.4651800000000 1.0
C      1  0.5678310000000  0.4453610000000  0.5418970000000 1.0
C      1  0.4930270000000  0.4459980000000  0.4362820000000 1.0
C      1  0.4330790000000  0.4754000000000  0.4954820000000 1.0
C      1  0.4554080000000  0.5049850000000  0.5363120000000 1.0
C      1  0.5348920000000  0.4828240000000  0.5525920000000 1.0
C      1  0.4019080000000  0.4449080000000  0.4783730000000 1.0
C      1  0.4782580000000  0.4313050000000  0.4165150000000 1.0
C      1  0.5488980000000  0.4679190000000  0.5772130000000 1.0
C      1  0.4419560000000  0.4167200000000  0.4774500000000 1.0
C      1  0.5250310000000  0.4813980000000  0.4308200000000 1.0
C      1  0.5804800000000  0.4957410000000  0.5628230000000 1.0
C      1  0.4609260000000  0.4408330000000  0.3981710000000 1.0
C      1  0.5319030000000  0.4035170000000  0.5093690000000 1.0
C      1  0.5702560000000  0.4521520000000  0.4478230000000 1.0
C      1  0.5275500000000  0.5273130000000  0.6114560000000 1.0
C      1  0.5881030000000  0.5067260000000  0.4947720000000 1.0
C      1  0.5082430000000  0.4979010000000  0.4797300000000 1.0
C      1  0.5279150000000  0.4576540000000  0.5143560000000 1.0
C      1  0.5242440000000  0.4109240000000  0.5369560000000 1.0
C      1  0.4341900000000  0.5262570000000  0.5691490000000 1.0
C      1  0.5474340000000  0.5672650000000  0.4883010000000 1.0
C      1  0.4709360000000  0.4220250000000  0.4755740000000 1.0
C      1  0.4763050000000  0.4957960000000  0.4439070000000 1.0
C      1  0.4937300000000  0.5461610000000  0.5439640000000 1.0
C      1  0.5906790000000  0.4732960000000  0.4577140000000 1.0
C      1  0.5412280000000  0.4799100000000  0.5036270000000 1.0
C      1  0.4046880000000  0.5259780000000  0.4985100000000 1.0
C      1  0.4763990000000  0.5471270000000  0.5197080000000 1.0
C      1  0.5158330000000  0.4177700000000  0.4880550000000 1.0
C      1  0.5161720000000  0.5046140000000  0.5646340000000 1.0
C      1  0.4069310000000  0.5087080000000  0.5242490000000 1.0
C      1  0.5034760000000  0.4446650000000  0.5796310000000 1.0
C      1  0.5737360000000  0.5536260000000  0.4871250000000 1.0
C      1  0.5747310000000  0.4662080000000  0.5626740000000 1.0
C      1  0.5385820000000  0.5254100000000  0.4168800000000 1.0
C      1  0.5468530000000  0.5887480000000  0.5082290000000 1.0
C      1  0.4234300000000  0.5192100000000  0.4229860000000 1.0
C      1  0.4981490000000  0.5938470000000  0.5426630000000 1.0
C      1  0.4477570000000  0.5766730000000  0.5635100000000 1.0
C      1  0.4423000000000  0.4867100000000  0.3997300000000 1.0
C      1  0.4507920000000  0.4167750000000  0.5212110000000 1.0
C      1  0.5028210000000  0.5046800000000  0.3958540000000 1.0
C      1  0.4778370000000  0.4482060000000  0.4627080000000 1.0
C      1  0.5458510000000  0.5411870000000  0.5431490000000 1.0
C      1  0.4946130000000  0.5329780000000  0.4001220000000 1.0
C      1  0.4848750000000  0.5851130000000  0.4230700000000 1.0
C      1  0.5505230000000  0.4800040000000  0.4752010000000 1.0
C      1  0.4394020000000  0.5728750000000  0.4322350000000 1.0
C      1  0.4728970000000  0.4662040000000  0.5221840000000 1.0
C      1  0.5568240000000  0.4414510000000  0.4729210000000 1.0
C      1  0.4811290000000  0.5254380000000  0.5883930000000 1.0
C      1  0.5317130000000  0.5299270000000  0.5671770000000 1.0
C      1  0.5324920000000  0.6113100000000  0.4997090000000 1.0
C      1  0.4567490000000  0.5083920000000  0.5792660000000 1.0
C      1  0.5756770000000  0.4967560000000  0.4698520000000 1.0
C      1  0.5294010000000  0.4997080000000  0.4072270000000 1.0
C      1  0.5241900000000  0.5477320000000  0.4564960000000 1.0
C      1  0.5334810000000  0.4422630000000  0.5753280000000 1.0
C      1  0.5887090000000  0.4886880000000  0.5183380000000 1.0
C      1  0.5989420000000  0.5057270000000  0.5417470000000 1.0
C      1  0.4289240000000  0.4902770000000  0.4255800000000 1.0
C      1  0.4205330000000  0.5318680000000  0.4492260000000 1.0
C      1  0.4459640000000  0.5747110000000  0.5354530000000 1.0
C      1  0.5249730000000  0.5207890000000  0.5002420000000 1.0
C      1  0.4629040000000  0.5686450000000  0.4176220000000 1.0
C      1  0.4882990000000  0.5983470000000  0.5172140000000 1.0
C      1  0.5254930000000  0.5736660000000  0.5717990000000 1.0
C      1  0.4966860000000  0.5953540000000  0.4676710000000 1.0
C      1  0.4134900000000  0.5139580000000  0.4719990000000 1.0
C      1  0.4468600000000  0.4578910000000  0.5678120000000 1.0
END
