TITL C-951344-124-274 -4.03528117291927e-06 125000 -418.601681899395 0 0 69 (C1) n - 1
REM
REM in /home/bkarasulu/work/CARBON/AIRSS/Generating-Clusters/EDIP-Nigel-Params/with-SteepDescent/Only-C1/SD-CG/HFTN-CG
REM
REM
REM
REM
REM
REM ./C.cell (11c1c37f851c82e70ff6c80c92926a4b)
REM
REM compiler GCC version 9.2.1 20190827 (Red Hat 9.2.1-1)
REM options -cpp -mtune=generic -march=x86-64 -g -O0 -fpre-include=/usr/include/finclude/math-vector-fortran.h
REM seed 1182214247 2066292586 -1816057699 -273390019 -1226956111 830215186 -1929632739 1043498947 1890339312 660993277 802001779 1347651342 -76988255 1315345890 643887396 400179884 159508293 594201950 -84010809 79660143 2070468865 1502277168 -419790507 -936262157 -435256541 -1657767183 -1433701689 -2007200833 -699588584 999927104 1215639449 -1933701266 -351031964
REM
CELL 1.54180   50.00000   50.00000   50.00000   90.00000   90.00000   90.00000
LATT -1
SFAC C  
C      1  0.5088570000000  0.4234850000000  0.4711810000000 1.0
C      1  0.5558290000000  0.4758170000000  0.5484250000000 1.0
C      1  0.4661560000000  0.4982730000000  0.4364640000000 1.0
C      1  0.5163940000000  0.5489220000000  0.4772260000000 1.0
C      1  0.5309240000000  0.5222850000000  0.4305750000000 1.0
C      1  0.4810960000000  0.4280740000000  0.4831360000000 1.0
C      1  0.4924310000000  0.5845530000000  0.5197130000000 1.0
C      1  0.5173060000000  0.5027320000000  0.5671660000000 1.0
C      1  0.4545160000000  0.4433760000000  0.4821850000000 1.0
C      1  0.5728570000000  0.4834820000000  0.5247250000000 1.0
C      1  0.4808640000000  0.5765090000000  0.4655460000000 1.0
C      1  0.4960400000000  0.4550280000000  0.5555710000000 1.0
C      1  0.4751650000000  0.5523380000000  0.4493680000000 1.0
C      1  0.4886760000000  0.4315720000000  0.5119940000000 1.0
C      1  0.5120190000000  0.4433680000000  0.4391700000000 1.0
C      1  0.4439810000000  0.5348890000000  0.5404580000000 1.0
C      1  0.5102910000000  0.5786810000000  0.4731120000000 1.0
C      1  0.5525980000000  0.5249030000000  0.5395010000000 1.0
C      1  0.4667520000000  0.4702780000000  0.4415710000000 1.0
C      1  0.4233760000000  0.4993950000000  0.4989730000000 1.0
C      1  0.4615840000000  0.4806320000000  0.5049860000000 1.0
C      1  0.5487260000000  0.4797030000000  0.5048490000000 1.0
C      1  0.5043760000000  0.4572190000000  0.5120230000000 1.0
C      1  0.4830300000000  0.5240970000000  0.5134120000000 1.0
C      1  0.4713610000000  0.4970030000000  0.5541380000000 1.0
C      1  0.5450400000000  0.4481100000000  0.5493920000000 1.0
C      1  0.4444170000000  0.4464720000000  0.5088030000000 1.0
C      1  0.4671790000000  0.4509860000000  0.5486880000000 1.0
C      1  0.4505680000000  0.5400350000000  0.4579150000000 1.0
C      1  0.5515290000000  0.5247770000000  0.4492780000000 1.0
C      1  0.5369680000000  0.5690540000000  0.5151460000000 1.0
C      1  0.4342300000000  0.5244150000000  0.5132080000000 1.0
C      1  0.5165750000000  0.5851700000000  0.5031800000000 1.0
C      1  0.5450310000000  0.5416190000000  0.4730000000000 1.0
C      1  0.4414190000000  0.5537110000000  0.4808300000000 1.0
C      1  0.4651350000000  0.5673260000000  0.4895730000000 1.0
C      1  0.4850840000000  0.5107530000000  0.4202360000000 1.0
C      1  0.4874020000000  0.5667000000000  0.5419190000000 1.0
C      1  0.5106210000000  0.4129040000000  0.5205340000000 1.0
C      1  0.5473870000000  0.4322890000000  0.4979720000000 1.0
C      1  0.4896010000000  0.5507180000000  0.5010380000000 1.0
C      1  0.4600130000000  0.5124620000000  0.4996730000000 1.0
C      1  0.5608450000000  0.4988920000000  0.4610170000000 1.0
C      1  0.5535950000000  0.5250260000000  0.4959300000000 1.0
C      1  0.5772150000000  0.5135530000000  0.5238120000000 1.0
C      1  0.4737360000000  0.5246160000000  0.5417200000000 1.0
C      1  0.5348540000000  0.4825100000000  0.4684200000000 1.0
C      1  0.5042940000000  0.5212550000000  0.4374010000000 1.0
C      1  0.5068890000000  0.5288240000000  0.5683240000000 1.0
C      1  0.4340000000000  0.4910060000000  0.4719790000000 1.0
C      1  0.4915300000000  0.4786110000000  0.4975030000000 1.0
C      1  0.5314810000000  0.5057130000000  0.5054210000000 1.0
C      1  0.4962290000000  0.4840670000000  0.5609100000000 1.0
C      1  0.4589970000000  0.5601540000000  0.5476960000000 1.0
C      1  0.5264240000000  0.4143360000000  0.4948050000000 1.0
C      1  0.4625110000000  0.4327470000000  0.5269130000000 1.0
C      1  0.4873120000000  0.4538130000000  0.4330750000000 1.0
C      1  0.4977310000000  0.5264940000000  0.4663090000000 1.0
C      1  0.5289390000000  0.4543660000000  0.4592850000000 1.0
C      1  0.5394230000000  0.5003440000000  0.5488770000000 1.0
C      1  0.5181320000000  0.4361900000000  0.5484510000000 1.0
C      1  0.5102840000000  0.4990710000000  0.4842450000000 1.0
C      1  0.4502600000000  0.5110880000000  0.4569010000000 1.0
C      1  0.5345980000000  0.5487650000000  0.5345950000000 1.0
C      1  0.5759230000000  0.5079370000000  0.4852010000000 1.0
C      1  0.4499010000000  0.4662650000000  0.4648020000000 1.0
C      1  0.5097000000000  0.5489980000000  0.5494650000000 1.0
C      1  0.5350700000000  0.4541060000000  0.5128910000000 1.0
C      1  0.4567200000000  0.4771370000000  0.5382040000000 1.0
END
