TITL C-950526-5686-280 -3.77572311895469e-07 125000 -1001.17003688929 0 0 160 (C1) n - 1
REM
REM in /home/bkarasulu/work/CARBON/AIRSS/Generating-Clusters/EDIP-Nigel-Params/with-SteepDescent/Only-C1/SD-CG/HFTN-CG
REM
REM
REM
REM
REM
REM ./C.cell (11c1c37f851c82e70ff6c80c92926a4b)
REM
REM compiler GCC version 9.2.1 20190827 (Red Hat 9.2.1-1)
REM options -cpp -mtune=generic -march=x86-64 -g -O0 -fpre-include=/usr/include/finclude/math-vector-fortran.h
REM seed -858657013 1255046576 700948809 -1777726182 -285784928 -1446125410 -1210034184 1254555922 14564767 1815144038 1673589731 -1799139261 993211569 -1976519742 1108665574 803190755 1820732251 262080006 -290885350 2002482551 551857742 1828075187 75434751 -1037266622 1150912421 60682087 1981973358 -654231738 797242033 316414923 -1751611271 335555616 -779721560
REM
CELL 1.54180   50.00000   50.00000   50.00000   90.00000   90.00000   90.00000
LATT -1
SFAC C  
C      1  0.4667760000000  0.4030840000000  0.5088290000000 1.0
C      1  0.5120070000000  0.5882910000000  0.5535840000000 1.0
C      1  0.4461960000000  0.4204590000000  0.5218710000000 1.0
C      1  0.5407860000000  0.5894280000000  0.5516520000000 1.0
C      1  0.4996820000000  0.6100700000000  0.5392670000000 1.0
C      1  0.4860060000000  0.5019860000000  0.5601250000000 1.0
C      1  0.5075660000000  0.4223550000000  0.5927360000000 1.0
C      1  0.4564530000000  0.4316970000000  0.5809600000000 1.0
C      1  0.4536250000000  0.5013700000000  0.5988740000000 1.0
C      1  0.5619090000000  0.5361190000000  0.5720780000000 1.0
C      1  0.5764320000000  0.5214240000000  0.5501080000000 1.0
C      1  0.4683360000000  0.4615270000000  0.5454880000000 1.0
C      1  0.5336670000000  0.5826670000000  0.4397700000000 1.0
C      1  0.5075070000000  0.4048310000000  0.4337980000000 1.0
C      1  0.4054200000000  0.4513450000000  0.5299020000000 1.0
C      1  0.5302370000000  0.5279720000000  0.4047640000000 1.0
C      1  0.5308580000000  0.4826280000000  0.5446570000000 1.0
C      1  0.5140080000000  0.4007620000000  0.5099010000000 1.0
C      1  0.4128290000000  0.5504420000000  0.4541060000000 1.0
C      1  0.5083510000000  0.5076980000000  0.6136050000000 1.0
C      1  0.4706050000000  0.5331920000000  0.5095310000000 1.0
C      1  0.5767820000000  0.4373020000000  0.4347430000000 1.0
C      1  0.5572500000000  0.4864500000000  0.4649830000000 1.0
C      1  0.4637870000000  0.5523860000000  0.4859180000000 1.0
C      1  0.4557910000000  0.4682340000000  0.5000810000000 1.0
C      1  0.5935420000000  0.5022280000000  0.5075470000000 1.0
C      1  0.3929020000000  0.5487010000000  0.5151700000000 1.0
C      1  0.5796040000000  0.5154580000000  0.4112430000000 1.0
C      1  0.5641080000000  0.4564420000000  0.5178150000000 1.0
C      1  0.4529040000000  0.4978760000000  0.4155050000000 1.0
C      1  0.4563660000000  0.5457380000000  0.4208890000000 1.0
C      1  0.4698890000000  0.5239640000000  0.5877650000000 1.0
C      1  0.4917160000000  0.5564560000000  0.4761100000000 1.0
C      1  0.5361500000000  0.5048610000000  0.4777210000000 1.0
C      1  0.5383740000000  0.4030380000000  0.5263580000000 1.0
C      1  0.4794830000000  0.4051730000000  0.4373180000000 1.0
C      1  0.4581080000000  0.4148750000000  0.5568510000000 1.0
C      1  0.5807920000000  0.4936290000000  0.5346800000000 1.0
C      1  0.5425230000000  0.5354660000000  0.5180380000000 1.0
C      1  0.5959370000000  0.4498700000000  0.4510550000000 1.0
C      1  0.4510950000000  0.5434820000000  0.5771510000000 1.0
C      1  0.5154800000000  0.6193550000000  0.5183040000000 1.0
C      1  0.4342730000000  0.5466130000000  0.5297000000000 1.0
C      1  0.5954020000000  0.5170620000000  0.4610820000000 1.0
C      1  0.5112090000000  0.5043490000000  0.5450450000000 1.0
C      1  0.5447980000000  0.5844250000000  0.4973750000000 1.0
C      1  0.4939990000000  0.5324390000000  0.6029290000000 1.0
C      1  0.5505150000000  0.4229890000000  0.4458690000000 1.0
C      1  0.5215380000000  0.3979710000000  0.4591530000000 1.0
C      1  0.4060760000000  0.5022730000000  0.4533750000000 1.0
C      1  0.4627160000000  0.4582190000000  0.4728780000000 1.0
C      1  0.4123000000000  0.4756190000000  0.5426930000000 1.0
C      1  0.4121360000000  0.4507010000000  0.5024950000000 1.0
C      1  0.4476740000000  0.5344190000000  0.4662760000000 1.0
C      1  0.5063510000000  0.4689350000000  0.4006070000000 1.0
C      1  0.5519930000000  0.4855500000000  0.5235700000000 1.0
C      1  0.4586690000000  0.5674970000000  0.4399290000000 1.0
C      1  0.5587890000000  0.5827600000000  0.4690750000000 1.0
C      1  0.5069540000000  0.5307780000000  0.4533010000000 1.0
C      1  0.4559170000000  0.5656140000000  0.5359260000000 1.0
C      1  0.5011470000000  0.4951410000000  0.4087810000000 1.0
C      1  0.4528770000000  0.4287020000000  0.4698700000000 1.0
C      1  0.4816010000000  0.5111140000000  0.4911610000000 1.0
C      1  0.5918570000000  0.5316780000000  0.5062580000000 1.0
C      1  0.5632510000000  0.4045000000000  0.5137760000000 1.0
C      1  0.4897270000000  0.6063920000000  0.4517820000000 1.0
C      1  0.4007700000000  0.5603610000000  0.5420560000000 1.0
C      1  0.5122160000000  0.5470930000000  0.5844640000000 1.0
C      1  0.4481960000000  0.4693670000000  0.4194440000000 1.0
C      1  0.4587350000000  0.4240830000000  0.4395600000000 1.0
C      1  0.4917920000000  0.4599690000000  0.4688370000000 1.0
C      1  0.5521890000000  0.5082380000000  0.4164250000000 1.0
C      1  0.5509040000000  0.4809960000000  0.4326680000000 1.0
C      1  0.5118610000000  0.4403990000000  0.4800970000000 1.0
C      1  0.4489480000000  0.4805720000000  0.4561330000000 1.0
C      1  0.5838920000000  0.5654120000000  0.4667420000000 1.0
C      1  0.5961170000000  0.4610630000000  0.4766100000000 1.0
C      1  0.4801660000000  0.4292850000000  0.5962590000000 1.0
C      1  0.4271640000000  0.5267640000000  0.5685100000000 1.0
C      1  0.5093810000000  0.4041530000000  0.5690840000000 1.0
C      1  0.5579230000000  0.4038380000000  0.4668910000000 1.0
C      1  0.4803820000000  0.5363070000000  0.4075070000000 1.0
C      1  0.5419680000000  0.4372090000000  0.5621160000000 1.0
C      1  0.4976050000000  0.5627240000000  0.5619490000000 1.0
C      1  0.4650220000000  0.5074900000000  0.4624690000000 1.0
C      1  0.4900540000000  0.4006390000000  0.5251830000000 1.0
C      1  0.4942230000000  0.4458510000000  0.5483510000000 1.0
C      1  0.5360650000000  0.5315070000000  0.4424210000000 1.0
C      1  0.5051260000000  0.4105200000000  0.4819980000000 1.0
C      1  0.4242280000000  0.5283980000000  0.4836520000000 1.0
C      1  0.4195230000000  0.5519590000000  0.5004050000000 1.0
C      1  0.5332890000000  0.5568180000000  0.4989500000000 1.0
C      1  0.4939140000000  0.4460450000000  0.4113500000000 1.0
C      1  0.5319010000000  0.5017070000000  0.5947550000000 1.0
C      1  0.5657290000000  0.5647550000000  0.5657350000000 1.0
C      1  0.5091780000000  0.5719040000000  0.4271560000000 1.0
C      1  0.5513470000000  0.4601740000000  0.4755300000000 1.0
C      1  0.4283910000000  0.5009550000000  0.5832170000000 1.0
C      1  0.5197170000000  0.5322140000000  0.5396460000000 1.0
C      1  0.5332750000000  0.5266020000000  0.5758720000000 1.0
C      1  0.5883410000000  0.4913700000000  0.4775470000000 1.0
C      1  0.4291550000000  0.4270030000000  0.4949070000000 1.0
C      1  0.5333850000000  0.4455990000000  0.4582910000000 1.0
C      1  0.4435950000000  0.5143720000000  0.5300710000000 1.0
C      1  0.4740990000000  0.4092290000000  0.4814300000000 1.0
C      1  0.5724830000000  0.5405330000000  0.5273800000000 1.0
C      1  0.5409130000000  0.4378820000000  0.4079870000000 1.0
C      1  0.5834070000000  0.4587730000000  0.5401680000000 1.0
C      1  0.4397870000000  0.5222380000000  0.4250430000000 1.0
C      1  0.4012310000000  0.5343570000000  0.5560080000000 1.0
C      1  0.5697670000000  0.4458500000000  0.5606560000000 1.0
C      1  0.5617930000000  0.4555840000000  0.4174830000000 1.0
C      1  0.4263790000000  0.4745240000000  0.5690390000000 1.0
C      1  0.5213940000000  0.4521270000000  0.5071370000000 1.0
C      1  0.5058120000000  0.5621940000000  0.5019390000000 1.0
C      1  0.5725570000000  0.4469930000000  0.4907040000000 1.0
C      1  0.4722540000000  0.6092490000000  0.5357860000000 1.0
C      1  0.3937370000000  0.5194190000000  0.5286180000000 1.0
C      1  0.4559460000000  0.4488220000000  0.5224420000000 1.0
C      1  0.4665640000000  0.5639020000000  0.5624910000000 1.0
C      1  0.5053900000000  0.4755440000000  0.5079550000000 1.0
C      1  0.5582440000000  0.5888270000000  0.5266560000000 1.0
C      1  0.5231350000000  0.4531900000000  0.5417520000000 1.0
C      1  0.5050860000000  0.4826930000000  0.4549810000000 1.0
C      1  0.5500570000000  0.5585030000000  0.4393700000000 1.0
C      1  0.4689950000000  0.4924430000000  0.5377050000000 1.0
C      1  0.4880160000000  0.4158730000000  0.5504710000000 1.0
C      1  0.5226140000000  0.6064230000000  0.4944200000000 1.0
C      1  0.5869290000000  0.5282540000000  0.4352710000000 1.0
C      1  0.4145440000000  0.5249270000000  0.4388880000000 1.0
C      1  0.5199430000000  0.4724280000000  0.5897160000000 1.0
C      1  0.4769780000000  0.5078780000000  0.4024080000000 1.0
C      1  0.4538220000000  0.5915440000000  0.5252480000000 1.0
C      1  0.4713330000000  0.6100620000000  0.4853030000000 1.0
C      1  0.4716140000000  0.4801460000000  0.5887870000000 1.0
C      1  0.5286390000000  0.4440110000000  0.5884140000000 1.0
C      1  0.4671550000000  0.4477510000000  0.4241250000000 1.0
C      1  0.4253180000000  0.4774220000000  0.4966660000000 1.0
C      1  0.5766790000000  0.5681040000000  0.5381300000000 1.0
C      1  0.5703660000000  0.4163630000000  0.4897110000000 1.0
C      1  0.5101310000000  0.5231940000000  0.4826110000000 1.0
C      1  0.4323280000000  0.5735960000000  0.4539850000000 1.0
C      1  0.4796400000000  0.4873120000000  0.5085810000000 1.0
C      1  0.4217840000000  0.4833960000000  0.4669540000000 1.0
C      1  0.4947540000000  0.5473560000000  0.5260680000000 1.0
C      1  0.4543600000000  0.5888190000000  0.4965460000000 1.0
C      1  0.4905280000000  0.5065640000000  0.4438320000000 1.0
C      1  0.5366980000000  0.4078240000000  0.5559660000000 1.0
C      1  0.5452890000000  0.5086810000000  0.5048740000000 1.0
C      1  0.4289660000000  0.5786260000000  0.4841800000000 1.0
C      1  0.5076830000000  0.5463430000000  0.4120740000000 1.0
C      1  0.4173780000000  0.4988700000000  0.5231930000000 1.0
C      1  0.4961810000000  0.4785900000000  0.6064200000000 1.0
C      1  0.4537820000000  0.4601410000000  0.5719750000000 1.0
C      1  0.5874520000000  0.5386960000000  0.4786710000000 1.0
C      1  0.4834820000000  0.5842030000000  0.4347760000000 1.0
C      1  0.5804410000000  0.5569290000000  0.4385510000000 1.0
C      1  0.5229030000000  0.4687080000000  0.4358150000000 1.0
C      1  0.5157680000000  0.4288120000000  0.4189740000000 1.0
C      1  0.4981990000000  0.5994900000000  0.4790550000000 1.0
END
