TITL C-951342-2639-135 -4.53492132276613e-06 125000 -1033.62564457025 0 0 164 (C1) n - 1
REM
REM in /home/bkarasulu/work/CARBON/AIRSS/Generating-Clusters/EDIP-Nigel-Params/with-SteepDescent/Only-C1/SD-CG/HFTN-CG
REM
REM
REM
REM
REM
REM ./C.cell (11c1c37f851c82e70ff6c80c92926a4b)
REM
REM compiler GCC version 9.2.1 20190827 (Red Hat 9.2.1-1)
REM options -cpp -mtune=generic -march=x86-64 -g -O0 -fpre-include=/usr/include/finclude/math-vector-fortran.h
REM seed 1136088634 1695635873 -1129018739 1016001504 1858328679 -1171166506 704649012 1530239003 1682484360 895668641 -814800802 1021258611 -1503019163 1194736770 444278824 -1417799520 -692092451 1936947118 1008830161 1417341101 -796757183 -1150582992 -1102218663 -774151651 303383075 -43351641 -1658416089 1634367710 1149881185 1184687531 1796950212 -506692441 915616153
REM
CELL 1.54180   50.00000   50.00000   50.00000   90.00000   90.00000   90.00000
LATT -1
SFAC C  
C      1  0.5860710000000  0.5490600000000  0.4428620000000 1.0
C      1  0.5346210000000  0.4386820000000  0.5807530000000 1.0
C      1  0.5184160000000  0.4307310000000  0.4322560000000 1.0
C      1  0.5422030000000  0.5055450000000  0.3999670000000 1.0
C      1  0.4621540000000  0.5873170000000  0.5393490000000 1.0
C      1  0.5126860000000  0.5034570000000  0.4003200000000 1.0
C      1  0.5062620000000  0.4730930000000  0.5866210000000 1.0
C      1  0.5793360000000  0.4776150000000  0.5631150000000 1.0
C      1  0.4510310000000  0.5090540000000  0.5415580000000 1.0
C      1  0.5897180000000  0.5494750000000  0.5487600000000 1.0
C      1  0.4955950000000  0.5223250000000  0.6022680000000 1.0
C      1  0.5701150000000  0.4848150000000  0.4330240000000 1.0
C      1  0.5637890000000  0.4323470000000  0.4873310000000 1.0
C      1  0.5312040000000  0.5890780000000  0.4499760000000 1.0
C      1  0.3938520000000  0.4973840000000  0.4933380000000 1.0
C      1  0.5676700000000  0.5900420000000  0.5305130000000 1.0
C      1  0.4109470000000  0.4262960000000  0.5319330000000 1.0
C      1  0.4140090000000  0.4467490000000  0.4891200000000 1.0
C      1  0.5223850000000  0.5723130000000  0.4249920000000 1.0
C      1  0.4665890000000  0.4192080000000  0.5634860000000 1.0
C      1  0.4965660000000  0.5169170000000  0.5589100000000 1.0
C      1  0.4895860000000  0.4884080000000  0.4978350000000 1.0
C      1  0.5757390000000  0.4578240000000  0.5376440000000 1.0
C      1  0.4906530000000  0.4437370000000  0.4417220000000 1.0
C      1  0.3972670000000  0.5066830000000  0.4654330000000 1.0
C      1  0.4717790000000  0.5172840000000  0.4254250000000 1.0
C      1  0.3985320000000  0.4690030000000  0.5013260000000 1.0
C      1  0.5223150000000  0.5338750000000  0.4467240000000 1.0
C      1  0.4033740000000  0.4708280000000  0.5297440000000 1.0
C      1  0.5651810000000  0.4385300000000  0.4393650000000 1.0
C      1  0.4628720000000  0.4424750000000  0.4642670000000 1.0
C      1  0.4620770000000  0.5596080000000  0.5808620000000 1.0
C      1  0.5161080000000  0.5021170000000  0.5416140000000 1.0
C      1  0.5143600000000  0.5018340000000  0.5963630000000 1.0
C      1  0.5458660000000  0.5680190000000  0.4684370000000 1.0
C      1  0.5426930000000  0.5077990000000  0.5888410000000 1.0
C      1  0.4226420000000  0.4528310000000  0.5710630000000 1.0
C      1  0.5920480000000  0.4439650000000  0.4908430000000 1.0
C      1  0.5074030000000  0.4343110000000  0.5912000000000 1.0
C      1  0.5116290000000  0.4189600000000  0.5472060000000 1.0
C      1  0.5098280000000  0.3967040000000  0.5271780000000 1.0
C      1  0.5455400000000  0.4901580000000  0.4531570000000 1.0
C      1  0.4442250000000  0.5711250000000  0.4770120000000 1.0
C      1  0.5653260000000  0.5864870000000  0.4825900000000 1.0
C      1  0.4834970000000  0.5907870000000  0.4632150000000 1.0
C      1  0.5657400000000  0.5674410000000  0.5481590000000 1.0
C      1  0.4764440000000  0.5404080000000  0.5954980000000 1.0
C      1  0.5320020000000  0.4660780000000  0.5711310000000 1.0
C      1  0.3997380000000  0.4613810000000  0.4460680000000 1.0
C      1  0.3926070000000  0.5642420000000  0.5172440000000 1.0
C      1  0.5060840000000  0.4740900000000  0.4057220000000 1.0
C      1  0.4603940000000  0.4075780000000  0.5352710000000 1.0
C      1  0.4206890000000  0.5675050000000  0.5175970000000 1.0
C      1  0.4519350000000  0.4281440000000  0.5140510000000 1.0
C      1  0.4967170000000  0.4403780000000  0.5033210000000 1.0
C      1  0.4070040000000  0.5335920000000  0.4624440000000 1.0
C      1  0.5525850000000  0.5291340000000  0.4145440000000 1.0
C      1  0.5294510000000  0.5181370000000  0.5022780000000 1.0
C      1  0.5979420000000  0.4629260000000  0.4686650000000 1.0
C      1  0.4223210000000  0.4517880000000  0.5409420000000 1.0
C      1  0.5264800000000  0.4714540000000  0.5411860000000 1.0
C      1  0.4486770000000  0.5595900000000  0.4505020000000 1.0
C      1  0.4720670000000  0.4267050000000  0.4913090000000 1.0
C      1  0.5434630000000  0.5617370000000  0.5793380000000 1.0
C      1  0.5313710000000  0.4140240000000  0.4547790000000 1.0
C      1  0.4785850000000  0.4570710000000  0.5443190000000 1.0
C      1  0.5808980000000  0.5305250000000  0.4205200000000 1.0
C      1  0.4947840000000  0.4164240000000  0.5718970000000 1.0
C      1  0.5587790000000  0.4308930000000  0.5366140000000 1.0
C      1  0.5035220000000  0.5740600000000  0.5287870000000 1.0
C      1  0.5588730000000  0.6027550000000  0.4576760000000 1.0
C      1  0.5564400000000  0.4780980000000  0.4970010000000 1.0
C      1  0.4556300000000  0.4659910000000  0.5878810000000 1.0
C      1  0.5404690000000  0.5214090000000  0.5401780000000 1.0
C      1  0.5062950000000  0.4635340000000  0.4899430000000 1.0
C      1  0.5509320000000  0.5866950000000  0.5083030000000 1.0
C      1  0.4531450000000  0.4661950000000  0.4177450000000 1.0
C      1  0.4252760000000  0.5050550000000  0.5586770000000 1.0
C      1  0.5161130000000  0.5721480000000  0.5694840000000 1.0
C      1  0.4509370000000  0.5164700000000  0.4046260000000 1.0
C      1  0.4127530000000  0.4414860000000  0.4608740000000 1.0
C      1  0.4762330000000  0.3964830000000  0.4901420000000 1.0
C      1  0.6048910000000  0.5116300000000  0.4574550000000 1.0
C      1  0.4609680000000  0.5376330000000  0.5390990000000 1.0
C      1  0.4254100000000  0.5271310000000  0.4180750000000 1.0
C      1  0.5912620000000  0.5058500000000  0.4319460000000 1.0
C      1  0.5289820000000  0.4016700000000  0.5047430000000 1.0
C      1  0.5443050000000  0.4552150000000  0.4858110000000 1.0
C      1  0.3945970000000  0.5407330000000  0.5576810000000 1.0
C      1  0.5535460000000  0.4787440000000  0.4081550000000 1.0
C      1  0.5124850000000  0.6138140000000  0.4921610000000 1.0
C      1  0.4810560000000  0.3909750000000  0.5196410000000 1.0
C      1  0.3966860000000  0.5150960000000  0.5176270000000 1.0
C      1  0.4636120000000  0.5426280000000  0.5091210000000 1.0
C      1  0.4382110000000  0.4325020000000  0.4491870000000 1.0
C      1  0.5553330000000  0.5329280000000  0.5797930000000 1.0
C      1  0.5533940000000  0.4176300000000  0.5105990000000 1.0
C      1  0.3881390000000  0.5401590000000  0.5302730000000 1.0
C      1  0.4892720000000  0.5449020000000  0.5492650000000 1.0
C      1  0.4376180000000  0.5518050000000  0.4981680000000 1.0
C      1  0.4559620000000  0.5119680000000  0.4705590000000 1.0
C      1  0.5071220000000  0.4634120000000  0.4601410000000 1.0
C      1  0.4451920000000  0.5022250000000  0.5121410000000 1.0
C      1  0.6066470000000  0.4893960000000  0.4782280000000 1.0
C      1  0.4420300000000  0.5514690000000  0.5593690000000 1.0
C      1  0.5982710000000  0.4584820000000  0.5166870000000 1.0
C      1  0.5214560000000  0.5041750000000  0.4436070000000 1.0
C      1  0.4790040000000  0.4732130000000  0.5694440000000 1.0
C      1  0.6072870000000  0.5066570000000  0.5304040000000 1.0
C      1  0.4193840000000  0.5329350000000  0.5681490000000 1.0
C      1  0.4740490000000  0.4992690000000  0.5578360000000 1.0
C      1  0.5485560000000  0.5017790000000  0.4818250000000 1.0
C      1  0.5186130000000  0.3994280000000  0.4770150000000 1.0
C      1  0.4301500000000  0.5369450000000  0.4454400000000 1.0
C      1  0.4783450000000  0.5789440000000  0.5648670000000 1.0
C      1  0.4792430000000  0.5653100000000  0.4488670000000 1.0
C      1  0.4123660000000  0.4991260000000  0.4174420000000 1.0
C      1  0.4552500000000  0.4724030000000  0.4719540000000 1.0
C      1  0.4386990000000  0.4428570000000  0.4233150000000 1.0
C      1  0.4654840000000  0.5896200000000  0.4858330000000 1.0
C      1  0.4546760000000  0.4563110000000  0.5259850000000 1.0
C      1  0.4821570000000  0.4621670000000  0.4192570000000 1.0
C      1  0.4959080000000  0.5600040000000  0.4241570000000 1.0
C      1  0.5287910000000  0.5649980000000  0.5142120000000 1.0
C      1  0.5826210000000  0.4603570000000  0.4434460000000 1.0
C      1  0.5550670000000  0.4777600000000  0.5259360000000 1.0
C      1  0.5959390000000  0.5342350000000  0.5231910000000 1.0
C      1  0.5589860000000  0.4206200000000  0.4601420000000 1.0
C      1  0.4476080000000  0.4356840000000  0.5812800000000 1.0
C      1  0.5935700000000  0.5028120000000  0.5572220000000 1.0
C      1  0.4785620000000  0.5241940000000  0.4876120000000 1.0
C      1  0.5579670000000  0.5423070000000  0.4562060000000 1.0
C      1  0.5639400000000  0.5107400000000  0.5259550000000 1.0
C      1  0.4230100000000  0.4246030000000  0.5061520000000 1.0
C      1  0.4027740000000  0.4974770000000  0.5399350000000 1.0
C      1  0.4387500000000  0.4876560000000  0.4033000000000 1.0
C      1  0.5826430000000  0.5287740000000  0.5680740000000 1.0
C      1  0.5548140000000  0.4824560000000  0.5796200000000 1.0
C      1  0.5678540000000  0.5235300000000  0.4785010000000 1.0
C      1  0.5006890000000  0.5416860000000  0.4710400000000 1.0
C      1  0.4054430000000  0.4884700000000  0.4441230000000 1.0
C      1  0.5380080000000  0.4605970000000  0.4565180000000 1.0
C      1  0.4979650000000  0.5292180000000  0.4170780000000 1.0
C      1  0.5068190000000  0.5049990000000  0.5148450000000 1.0
C      1  0.5710980000000  0.5333780000000  0.5053310000000 1.0
C      1  0.5400470000000  0.5540550000000  0.4135250000000 1.0
C      1  0.4992070000000  0.6108390000000  0.5172960000000 1.0
C      1  0.5303570000000  0.4588000000000  0.4133700000000 1.0
C      1  0.5095420000000  0.6010880000000  0.4672640000000 1.0
C      1  0.4600180000000  0.4787160000000  0.5027820000000 1.0
C      1  0.5036090000000  0.4461560000000  0.5327210000000 1.0
C      1  0.4988200000000  0.4909460000000  0.4553250000000 1.0
C      1  0.4949120000000  0.3858180000000  0.4723990000000 1.0
C      1  0.5202410000000  0.5442150000000  0.4940460000000 1.0
C      1  0.5393920000000  0.5518710000000  0.5404120000000 1.0
C      1  0.6062580000000  0.4859520000000  0.5086100000000 1.0
C      1  0.5395950000000  0.4221160000000  0.5570950000000 1.0
C      1  0.4292240000000  0.4823970000000  0.5797670000000 1.0
C      1  0.5154310000000  0.5939790000000  0.5482780000000 1.0
C      1  0.6083550000000  0.5400140000000  0.4589240000000 1.0
C      1  0.4703620000000  0.4944960000000  0.4468970000000 1.0
C      1  0.4716650000000  0.5999030000000  0.5136970000000 1.0
C      1  0.4305120000000  0.5210060000000  0.4899150000000 1.0
C      1  0.4347900000000  0.5754620000000  0.5423990000000 1.0
END
