TITL C-951342-2639-673 2.1127375917324e-06 125000 -265.367794086829 0 0 44 (C1) n - 1
REM
REM in /home/bkarasulu/work/CARBON/AIRSS/Generating-Clusters/EDIP-Nigel-Params/with-SteepDescent/Only-C1/SD-CG/HFTN-CG
REM
REM
REM
REM
REM
REM ./C.cell (11c1c37f851c82e70ff6c80c92926a4b)
REM
REM compiler GCC version 9.2.1 20190827 (Red Hat 9.2.1-1)
REM options -cpp -mtune=generic -march=x86-64 -g -O0 -fpre-include=/usr/include/finclude/math-vector-fortran.h
REM seed -75948537 1243510205 -141623594 991170670 -722450976 -1149006267 -1429319415 -1282468154 -665988309 -533767153 -1824764982 670297721 297300633 1773294308 1581610237 1290335854 1784187770 -1994087070 394361380 -888974851 1487615369 -335491378 -1271298824 1123513866 -1777403094 1672582118 -294558336 -339890324 -1721579445 -1822336869 1040282226 -1164058126 1809245209
REM
CELL 1.54180   50.00000   50.00000   50.00000   90.00000   90.00000   90.00000
LATT -1
SFAC C  
C      1  0.5489060000000  0.4922130000000  0.5409540000000 1.0
C      1  0.5400600000000  0.5564930000000  0.4714760000000 1.0
C      1  0.4759900000000  0.5008290000000  0.5434090000000 1.0
C      1  0.4675710000000  0.5059910000000  0.5004870000000 1.0
C      1  0.4744030000000  0.5651420000000  0.5079570000000 1.0
C      1  0.5334910000000  0.4692610000000  0.4488560000000 1.0
C      1  0.4906420000000  0.4846890000000  0.4604330000000 1.0
C      1  0.4642130000000  0.5438610000000  0.5230560000000 1.0
C      1  0.5614690000000  0.4760600000000  0.4988090000000 1.0
C      1  0.5223160000000  0.5041090000000  0.5454070000000 1.0
C      1  0.4784440000000  0.5444470000000  0.4660270000000 1.0
C      1  0.5124940000000  0.5294580000000  0.5338210000000 1.0
C      1  0.5512270000000  0.4827950000000  0.4708590000000 1.0
C      1  0.4991480000000  0.4482720000000  0.5313940000000 1.0
C      1  0.5013260000000  0.4594340000000  0.5572100000000 1.0
C      1  0.4392240000000  0.5096540000000  0.4739060000000 1.0
C      1  0.4722830000000  0.4432320000000  0.5205740000000 1.0
C      1  0.5001260000000  0.5049420000000  0.4400780000000 1.0
C      1  0.4915070000000  0.5617640000000  0.4857750000000 1.0
C      1  0.4293640000000  0.5047750000000  0.5218150000000 1.0
C      1  0.5507570000000  0.4635090000000  0.5426730000000 1.0
C      1  0.4537890000000  0.4743980000000  0.4959910000000 1.0
C      1  0.4997570000000  0.4871370000000  0.5528790000000 1.0
C      1  0.4925900000000  0.5311450000000  0.4459390000000 1.0
C      1  0.4272460000000  0.4915100000000  0.4939170000000 1.0
C      1  0.5266790000000  0.5503670000000  0.5195040000000 1.0
C      1  0.5173860000000  0.4533110000000  0.5089270000000 1.0
C      1  0.5035840000000  0.4440390000000  0.4840220000000 1.0
C      1  0.4541310000000  0.5335390000000  0.4773480000000 1.0
C      1  0.5461100000000  0.4562160000000  0.5152280000000 1.0
C      1  0.4500650000000  0.4882260000000  0.5371860000000 1.0
C      1  0.5568870000000  0.5109250000000  0.4590260000000 1.0
C      1  0.4927510000000  0.4940760000000  0.4892310000000 1.0
C      1  0.5280390000000  0.4976500000000  0.4375590000000 1.0
C      1  0.5536550000000  0.5328540000000  0.4779460000000 1.0
C      1  0.5065060000000  0.4590180000000  0.4575900000000 1.0
C      1  0.4498560000000  0.4592370000000  0.5311080000000 1.0
C      1  0.5203380000000  0.5586760000000  0.4919840000000 1.0
C      1  0.4391330000000  0.5315950000000  0.5189510000000 1.0
C      1  0.4748720000000  0.4431340000000  0.4913080000000 1.0
C      1  0.4835590000000  0.5271310000000  0.5351530000000 1.0
C      1  0.5198920000000  0.5042180000000  0.4793200000000 1.0
C      1  0.5589780000000  0.5011120000000  0.5146270000000 1.0
C      1  0.5392350000000  0.5195550000000  0.5002800000000 1.0
END
