TITL C-950531-5884-89 1.37560495209101e-07 125000 -406.881162753342 0 0 65 (C1) n - 1
REM
REM in /home/bkarasulu/work/CARBON/AIRSS/Generating-Clusters/EDIP-Nigel-Params/with-SteepDescent/Only-C1/SD-CG/HFTN-CG
REM
REM
REM
REM
REM
REM ./C.cell (11c1c37f851c82e70ff6c80c92926a4b)
REM
REM compiler GCC version 9.2.1 20190827 (Red Hat 9.2.1-1)
REM options -cpp -mtune=generic -march=x86-64 -g -O0 -fpre-include=/usr/include/finclude/math-vector-fortran.h
REM seed 362820708 -1153968076 437586962 -1460036744 1903308663 1307237907 -896810342 2050350173 63659266 1815025232 -1769468199 1201959300 162991685 1653390173 -1670314882 658675657 494405868 -227326130 -697807616 662481155 -1247734976 952981887 -400781878 301893784 90851874 -1230465577 908667189 -1483689933 -1784260816 914478177 -78444984 -1972587263 247901961
REM
CELL 1.54180   50.00000   50.00000   50.00000   90.00000   90.00000   90.00000
LATT -1
SFAC C  
C      1  0.4313900000000  0.4651670000000  0.4702260000000 1.0
C      1  0.5365220000000  0.5717500000000  0.4690930000000 1.0
C      1  0.5395510000000  0.5121410000000  0.4428250000000 1.0
C      1  0.4458360000000  0.4520410000000  0.4927220000000 1.0
C      1  0.5434520000000  0.5046600000000  0.5702330000000 1.0
C      1  0.4980400000000  0.5378240000000  0.5099960000000 1.0
C      1  0.4224050000000  0.5082260000000  0.4984490000000 1.0
C      1  0.4979650000000  0.5380360000000  0.4336100000000 1.0
C      1  0.5115070000000  0.5751400000000  0.4597830000000 1.0
C      1  0.4712130000000  0.4943780000000  0.5067770000000 1.0
C      1  0.4996830000000  0.5248840000000  0.5679910000000 1.0
C      1  0.5236290000000  0.5294030000000  0.4278120000000 1.0
C      1  0.5810430000000  0.4868310000000  0.4757840000000 1.0
C      1  0.5463400000000  0.5462700000000  0.5101790000000 1.0
C      1  0.5179060000000  0.4446360000000  0.4730610000000 1.0
C      1  0.4405400000000  0.4805710000000  0.5403360000000 1.0
C      1  0.4451470000000  0.4615380000000  0.4455990000000 1.0
C      1  0.5160360000000  0.4384870000000  0.5024750000000 1.0
C      1  0.4473380000000  0.5484270000000  0.5162270000000 1.0
C      1  0.4295410000000  0.5377740000000  0.4936100000000 1.0
C      1  0.4913890000000  0.4716020000000  0.4424930000000 1.0
C      1  0.4755550000000  0.5151550000000  0.5504660000000 1.0
C      1  0.4783600000000  0.5005520000000  0.4791910000000 1.0
C      1  0.5125880000000  0.4671040000000  0.5458590000000 1.0
C      1  0.5097790000000  0.5017480000000  0.4789310000000 1.0
C      1  0.5359710000000  0.5127590000000  0.5434370000000 1.0
C      1  0.4646790000000  0.4767140000000  0.4315840000000 1.0
C      1  0.4788200000000  0.4649930000000  0.5644550000000 1.0
C      1  0.4748280000000  0.4586190000000  0.4911690000000 1.0
C      1  0.5108760000000  0.5331960000000  0.4818570000000 1.0
C      1  0.5383730000000  0.5455250000000  0.4809000000000 1.0
C      1  0.4962250000000  0.5507580000000  0.4609530000000 1.0
C      1  0.5183730000000  0.5445950000000  0.5552870000000 1.0
C      1  0.5157440000000  0.4940890000000  0.5299750000000 1.0
C      1  0.5369440000000  0.4483520000000  0.5444980000000 1.0
C      1  0.4906700000000  0.4528780000000  0.4650480000000 1.0
C      1  0.5244890000000  0.4883650000000  0.5031680000000 1.0
C      1  0.5680530000000  0.5101660000000  0.4845510000000 1.0
C      1  0.5202410000000  0.5499270000000  0.5264170000000 1.0
C      1  0.4620650000000  0.4888810000000  0.5598960000000 1.0
C      1  0.5620240000000  0.4664450000000  0.4802530000000 1.0
C      1  0.5645050000000  0.5062200000000  0.5366580000000 1.0
C      1  0.4489790000000  0.5272210000000  0.5368950000000 1.0
C      1  0.4583290000000  0.5055290000000  0.4333520000000 1.0
C      1  0.5547620000000  0.5263100000000  0.4645670000000 1.0
C      1  0.5615640000000  0.4605070000000  0.5511430000000 1.0
C      1  0.4697870000000  0.5569270000000  0.4745820000000 1.0
C      1  0.5389640000000  0.4345780000000  0.5191420000000 1.0
C      1  0.5663460000000  0.4774590000000  0.5291010000000 1.0
C      1  0.4539490000000  0.5101360000000  0.4626290000000 1.0
C      1  0.4466920000000  0.5392010000000  0.4687720000000 1.0
C      1  0.4291020000000  0.4952180000000  0.4724080000000 1.0
C      1  0.4775100000000  0.5227470000000  0.4233660000000 1.0
C      1  0.5477280000000  0.4687420000000  0.5063310000000 1.0
C      1  0.5075950000000  0.4738320000000  0.5756240000000 1.0
C      1  0.4473650000000  0.4541150000000  0.5295790000000 1.0
C      1  0.4436340000000  0.5021280000000  0.5193950000000 1.0
C      1  0.4904150000000  0.4479340000000  0.5135910000000 1.0
C      1  0.5652440000000  0.5227990000000  0.5116820000000 1.0
C      1  0.4747330000000  0.4467930000000  0.5389220000000 1.0
C      1  0.5224300000000  0.4891860000000  0.4537160000000 1.0
C      1  0.4738860000000  0.5559630000000  0.5042700000000 1.0
C      1  0.5388600000000  0.4635960000000  0.4614590000000 1.0
C      1  0.5161500000000  0.5023170000000  0.5813670000000 1.0
C      1  0.4903400000000  0.5099340000000  0.5242690000000 1.0
END
