TITL C-951338-5626-126 3.41593178291504e-07 125000 -426.112201897221 0 0 71 (C1) n - 1
REM
REM in /home/bkarasulu/work/CARBON/AIRSS/Generating-Clusters/EDIP-Nigel-Params/with-SteepDescent/Only-C1/SD-CG/HFTN-CG
REM
REM
REM
REM
REM
REM ./C.cell (11c1c37f851c82e70ff6c80c92926a4b)
REM
REM compiler GCC version 9.2.1 20190827 (Red Hat 9.2.1-1)
REM options -cpp -mtune=generic -march=x86-64 -g -O0 -fpre-include=/usr/include/finclude/math-vector-fortran.h
REM seed 1573787130 99302550 1188511246 1192007201 -799918375 -37264070 2134487597 1576617399 1099877545 -1767844162 -41268765 -1626457708 -405509502 1186535055 -512884584 455099076 512354285 1431825671 723576198 -1375599934 1658321579 266455909 1411326510 166820769 -1657390645 1966579543 1533904740 -332169809 1010369153 556927938 326502133 2122617987 429623430
REM
CELL 1.54180   50.00000   50.00000   50.00000   90.00000   90.00000   90.00000
LATT -1
SFAC C  
C      1  0.4824440000000  0.4849820000000  0.4502370000000 1.0
C      1  0.4716100000000  0.4364890000000  0.4478690000000 1.0
C      1  0.5826560000000  0.4975160000000  0.5062230000000 1.0
C      1  0.5012100000000  0.4791920000000  0.4262820000000 1.0
C      1  0.5332210000000  0.5065180000000  0.4920260000000 1.0
C      1  0.5107160000000  0.4782710000000  0.5162970000000 1.0
C      1  0.4674210000000  0.4199970000000  0.5087230000000 1.0
C      1  0.4830420000000  0.5638480000000  0.5091070000000 1.0
C      1  0.5132060000000  0.5706110000000  0.4602640000000 1.0
C      1  0.4430080000000  0.5115810000000  0.4602810000000 1.0
C      1  0.5467760000000  0.5320090000000  0.5376180000000 1.0
C      1  0.5105010000000  0.4355400000000  0.4948720000000 1.0
C      1  0.5687190000000  0.4772380000000  0.5267620000000 1.0
C      1  0.4855290000000  0.4639140000000  0.4722380000000 1.0
C      1  0.4335620000000  0.5147850000000  0.5140870000000 1.0
C      1  0.4453210000000  0.4669130000000  0.5057740000000 1.0
C      1  0.4444740000000  0.4837140000000  0.4552690000000 1.0
C      1  0.4986660000000  0.4316080000000  0.4490230000000 1.0
C      1  0.4743100000000  0.4859480000000  0.5748720000000 1.0
C      1  0.4507980000000  0.5580010000000  0.4765590000000 1.0
C      1  0.5194800000000  0.5127530000000  0.5779110000000 1.0
C      1  0.5238430000000  0.4514640000000  0.5158480000000 1.0
C      1  0.4943180000000  0.4520270000000  0.5548540000000 1.0
C      1  0.5342480000000  0.5553630000000  0.4495920000000 1.0
C      1  0.5727470000000  0.4929120000000  0.4779310000000 1.0
C      1  0.4950440000000  0.4141230000000  0.5078420000000 1.0
C      1  0.5481020000000  0.5581810000000  0.5239740000000 1.0
C      1  0.4480610000000  0.5582570000000  0.5396950000000 1.0
C      1  0.5107980000000  0.5584220000000  0.5610320000000 1.0
C      1  0.5055790000000  0.4104070000000  0.5338580000000 1.0
C      1  0.5301640000000  0.4720860000000  0.4345920000000 1.0
C      1  0.5191090000000  0.5318960000000  0.5535510000000 1.0
C      1  0.5052030000000  0.4867710000000  0.5443740000000 1.0
C      1  0.5354810000000  0.4593370000000  0.4609190000000 1.0
C      1  0.5301170000000  0.4878690000000  0.5635300000000 1.0
C      1  0.5190590000000  0.4365880000000  0.4672900000000 1.0
C      1  0.4892550000000  0.4845890000000  0.4970350000000 1.0
C      1  0.4328750000000  0.5186540000000  0.4859660000000 1.0
C      1  0.5216940000000  0.5008080000000  0.4606380000000 1.0
C      1  0.4581750000000  0.4446000000000  0.5193590000000 1.0
C      1  0.4685550000000  0.5439530000000  0.4941120000000 1.0
C      1  0.5138800000000  0.5737010000000  0.4892610000000 1.0
C      1  0.4718390000000  0.5718330000000  0.5342500000000 1.0
C      1  0.4590500000000  0.5292090000000  0.4418320000000 1.0
C      1  0.5543930000000  0.5110370000000  0.5140080000000 1.0
C      1  0.4340440000000  0.5369070000000  0.5310160000000 1.0
C      1  0.4774920000000  0.5205090000000  0.4219150000000 1.0
C      1  0.4879400000000  0.5684480000000  0.4483700000000 1.0
C      1  0.5149380000000  0.4361890000000  0.5409750000000 1.0
C      1  0.5609540000000  0.5186550000000  0.4679180000000 1.0
C      1  0.5296060000000  0.5533380000000  0.5024150000000 1.0
C      1  0.5528870000000  0.4578980000000  0.5090820000000 1.0
C      1  0.4903870000000  0.5747130000000  0.5546950000000 1.0
C      1  0.5014710000000  0.5071990000000  0.4145560000000 1.0
C      1  0.4887170000000  0.5106620000000  0.5836320000000 1.0
C      1  0.5580260000000  0.4920140000000  0.5532810000000 1.0
C      1  0.5662430000000  0.5198340000000  0.5563910000000 1.0
C      1  0.4961770000000  0.5168460000000  0.5402670000000 1.0
C      1  0.5543150000000  0.4691410000000  0.4814480000000 1.0
C      1  0.4574200000000  0.4812760000000  0.5501710000000 1.0
C      1  0.5309590000000  0.5104870000000  0.4302120000000 1.0
C      1  0.4418050000000  0.4637930000000  0.4765500000000 1.0
C      1  0.4938370000000  0.5105370000000  0.4615820000000 1.0
C      1  0.4443800000000  0.4897050000000  0.5237690000000 1.0
C      1  0.4555440000000  0.4395790000000  0.4704780000000 1.0
C      1  0.5149310000000  0.5272490000000  0.5018010000000 1.0
C      1  0.5482020000000  0.5314860000000  0.4448680000000 1.0
C      1  0.4629720000000  0.5560740000000  0.4516430000000 1.0
C      1  0.4879370000000  0.5173000000000  0.4901200000000 1.0
C      1  0.4742590000000  0.5213060000000  0.5591690000000 1.0
C      1  0.4663000000000  0.4533430000000  0.5460380000000 1.0
END
