TITL C-950529-3362-203 1.31445695466596e-06 125000 -159.126983950539 0 0 27 (C1) n - 1
REM
REM in /home/bkarasulu/work/CARBON/AIRSS/Generating-Clusters/EDIP-Nigel-Params/with-SteepDescent/Only-C1/SD-CG/HFTN-CG
REM
REM
REM
REM
REM
REM ./C.cell (11c1c37f851c82e70ff6c80c92926a4b)
REM
REM compiler GCC version 9.2.1 20190827 (Red Hat 9.2.1-1)
REM options -cpp -mtune=generic -march=x86-64 -g -O0 -fpre-include=/usr/include/finclude/math-vector-fortran.h
REM seed 1029422486 935758930 -1537384055 1856371457 -1460677641 200930365 -1511187898 -1228532269 1778588348 -2064058416 218632457 -1423893056 1981760083 1790596089 -1081645886 1849780852 1860769489 193834365 1360030592 53081294 -54391733 -950673151 -452659168 -718413673 1883650464 -1487979666 238577044 1111936420 506604074 -601503263 -1311097790 -117544856 -521733110
REM
CELL 1.54180   50.00000   50.00000   50.00000   90.00000   90.00000   90.00000
LATT -1
SFAC C  
C      1  0.4719480000000  0.4983040000000  0.4579250000000 1.0
C      1  0.5149580000000  0.4900980000000  0.4724050000000 1.0
C      1  0.5325230000000  0.4803000000000  0.5450500000000 1.0
C      1  0.4733670000000  0.4661810000000  0.5077340000000 1.0
C      1  0.5401840000000  0.5003480000000  0.4809710000000 1.0
C      1  0.4907020000000  0.5520660000000  0.5038450000000 1.0
C      1  0.5253750000000  0.5433210000000  0.4718060000000 1.0
C      1  0.5240520000000  0.4543150000000  0.5028250000000 1.0
C      1  0.4821100000000  0.4568360000000  0.4806770000000 1.0
C      1  0.5020790000000  0.5028200000000  0.4967240000000 1.0
C      1  0.5325180000000  0.4788520000000  0.5714550000000 1.0
C      1  0.5378860000000  0.5045000000000  0.5329610000000 1.0
C      1  0.4741250000000  0.5118850000000  0.4856090000000 1.0
C      1  0.5027250000000  0.5365320000000  0.5245390000000 1.0
C      1  0.5114040000000  0.4606740000000  0.4786750000000 1.0
C      1  0.4865270000000  0.5120740000000  0.5339900000000 1.0
C      1  0.5232720000000  0.4579990000000  0.5301840000000 1.0
C      1  0.4689520000000  0.4705180000000  0.4597100000000 1.0
C      1  0.4799200000000  0.5407580000000  0.4803320000000 1.0
C      1  0.5306540000000  0.5275840000000  0.5189270000000 1.0
C      1  0.4960570000000  0.4826040000000  0.5198150000000 1.0
C      1  0.4997630000000  0.5072880000000  0.4496100000000 1.0
C      1  0.4585030000000  0.5169710000000  0.5311790000000 1.0
C      1  0.5010620000000  0.5368350000000  0.4588050000000 1.0
C      1  0.4476590000000  0.4779700000000  0.5077000000000 1.0
C      1  0.4528550000000  0.5054550000000  0.5062510000000 1.0
C      1  0.5388190000000  0.5269120000000  0.4902980000000 1.0
END
