TITL C-950523-3027-252 5.91347585054351e-07 125000 -228.339372649255 0 0 38 (C1) n - 1
REM
REM in /home/bkarasulu/work/CARBON/AIRSS/Generating-Clusters/EDIP-Nigel-Params/with-SteepDescent/Only-C1/SD-CG/HFTN-CG
REM
REM
REM
REM
REM
REM ./C.cell (11c1c37f851c82e70ff6c80c92926a4b)
REM
REM compiler GCC version 9.2.1 20190827 (Red Hat 9.2.1-1)
REM options -cpp -mtune=generic -march=x86-64 -g -O0 -fpre-include=/usr/include/finclude/math-vector-fortran.h
REM seed 1993992189 -246598924 -1301251711 -366580960 -1513380765 -1563157936 59825511 -1127876421 -663906843 607560191 -2101033659 2068488845 -1796892160 -1458380276 696703819 1648762359 -1250920428 -1626805508 -1376963063 859522034 -524051085 -1714319831 1820350312 1719223752 -492471596 -398341483 492508608 -1375896750 868951838 -17066423 -1122630589 874001174 -613062702
REM
CELL 1.54180   50.00000   50.00000   50.00000   90.00000   90.00000   90.00000
LATT -1
SFAC C  
C      1  0.5154880000000  0.4545070000000  0.4997270000000 1.0
C      1  0.5091330000000  0.5296060000000  0.4539200000000 1.0
C      1  0.5150640000000  0.5028930000000  0.5263150000000 1.0
C      1  0.5004040000000  0.5570820000000  0.4600830000000 1.0
C      1  0.4970250000000  0.4770670000000  0.5704010000000 1.0
C      1  0.4866500000000  0.5021980000000  0.5660040000000 1.0
C      1  0.4897310000000  0.4852620000000  0.5260530000000 1.0
C      1  0.5074690000000  0.4731420000000  0.4572240000000 1.0
C      1  0.5038660000000  0.5176270000000  0.4805700000000 1.0
C      1  0.4446940000000  0.4890370000000  0.4894410000000 1.0
C      1  0.5374460000000  0.4734250000000  0.4930820000000 1.0
C      1  0.5442300000000  0.5529990000000  0.4822840000000 1.0
C      1  0.4600210000000  0.5277510000000  0.4622040000000 1.0
C      1  0.5587390000000  0.5145450000000  0.5043840000000 1.0
C      1  0.4620650000000  0.4998700000000  0.4676890000000 1.0
C      1  0.5061750000000  0.5306080000000  0.5296930000000 1.0
C      1  0.5026100000000  0.4450240000000  0.4663690000000 1.0
C      1  0.4566900000000  0.5208720000000  0.5298510000000 1.0
C      1  0.4945130000000  0.4635200000000  0.5456240000000 1.0
C      1  0.5177480000000  0.5617590000000  0.4859540000000 1.0
C      1  0.4900690000000  0.4910270000000  0.4759320000000 1.0
C      1  0.4448980000000  0.4604180000000  0.4844880000000 1.0
C      1  0.4816740000000  0.5236280000000  0.5471520000000 1.0
C      1  0.5419570000000  0.5111020000000  0.4598350000000 1.0
C      1  0.4544090000000  0.4948260000000  0.5171530000000 1.0
C      1  0.4724870000000  0.5543570000000  0.4986180000000 1.0
C      1  0.5173980000000  0.4491780000000  0.5313270000000 1.0
C      1  0.5554680000000  0.5274280000000  0.4799370000000 1.0
C      1  0.5566530000000  0.4789920000000  0.5361870000000 1.0
C      1  0.4517230000000  0.5425100000000  0.5127700000000 1.0
C      1  0.5426780000000  0.4933220000000  0.5150370000000 1.0
C      1  0.5422790000000  0.4567150000000  0.5419450000000 1.0
C      1  0.4997060000000  0.5411160000000  0.5015710000000 1.0
C      1  0.4747990000000  0.4385970000000  0.4714900000000 1.0
C      1  0.4706820000000  0.5535380000000  0.4687940000000 1.0
C      1  0.5354070000000  0.4824560000000  0.4648130000000 1.0
C      1  0.4683020000000  0.4506070000000  0.4962080000000 1.0
C      1  0.4896490000000  0.4713870000000  0.4998710000000 1.0
END
