TITL C-951337-3020-75 1.60907098530183e-06 125000 -695.852350731895 0 0 115 (C1) n - 1
REM
REM in /home/bkarasulu/work/CARBON/AIRSS/Generating-Clusters/EDIP-Nigel-Params/with-SteepDescent/Only-C1/SD-CG/HFTN-CG
REM
REM
REM
REM
REM
REM ./C.cell (11c1c37f851c82e70ff6c80c92926a4b)
REM
REM compiler GCC version 9.2.1 20190827 (Red Hat 9.2.1-1)
REM options -cpp -mtune=generic -march=x86-64 -g -O0 -fpre-include=/usr/include/finclude/math-vector-fortran.h
REM seed 1019990364 -734686011 -1627559655 -1529220419 -2052170211 2063102310 -2059549246 135914709 1107194859 1544645986 779143326 288676704 -828908897 111309380 1772420177 -25542286 530975906 662940374 -731599025 609485676 1778737956 1232519 1065102169 -264004806 -152983099 359009232 1424247659 1784845726 1461626414 -1431843225 907241582 1782858848 1753178425
REM
CELL 1.54180   50.00000   50.00000   50.00000   90.00000   90.00000   90.00000
LATT -1
SFAC C  
C      1  0.5182800000000  0.5403340000000  0.4416530000000 1.0
C      1  0.5329970000000  0.5743060000000  0.4524060000000 1.0
C      1  0.5685010000000  0.5141320000000  0.5696400000000 1.0
C      1  0.4370520000000  0.5535940000000  0.4835180000000 1.0
C      1  0.5810320000000  0.4882000000000  0.4891470000000 1.0
C      1  0.4914780000000  0.5816420000000  0.5405250000000 1.0
C      1  0.5152920000000  0.5288350000000  0.3925500000000 1.0
C      1  0.4525020000000  0.4403440000000  0.4958000000000 1.0
C      1  0.4481690000000  0.4736020000000  0.4124180000000 1.0
C      1  0.4997890000000  0.5453040000000  0.4672340000000 1.0
C      1  0.5636300000000  0.4600490000000  0.5187100000000 1.0
C      1  0.4813530000000  0.5008490000000  0.5971580000000 1.0
C      1  0.5621250000000  0.5410980000000  0.5297160000000 1.0
C      1  0.5723530000000  0.5300100000000  0.4781540000000 1.0
C      1  0.4782210000000  0.4543030000000  0.5298770000000 1.0
C      1  0.5471150000000  0.4287080000000  0.5445430000000 1.0
C      1  0.5736610000000  0.5428640000000  0.4536300000000 1.0
C      1  0.5660810000000  0.4293790000000  0.5190900000000 1.0
C      1  0.5102790000000  0.4762990000000  0.5514590000000 1.0
C      1  0.4827160000000  0.5204510000000  0.4739520000000 1.0
C      1  0.4474530000000  0.5701490000000  0.5274080000000 1.0
C      1  0.4360510000000  0.5472980000000  0.5124060000000 1.0
C      1  0.5058210000000  0.4181620000000  0.5559200000000 1.0
C      1  0.5715570000000  0.4702540000000  0.5630820000000 1.0
C      1  0.5145020000000  0.4159730000000  0.5273830000000 1.0
C      1  0.5169290000000  0.4646380000000  0.5047060000000 1.0
C      1  0.5548340000000  0.4780810000000  0.4759400000000 1.0
C      1  0.5187950000000  0.5010500000000  0.3975950000000 1.0
C      1  0.4181810000000  0.5088810000000  0.4659190000000 1.0
C      1  0.4987160000000  0.4957360000000  0.4381360000000 1.0
C      1  0.4565150000000  0.5751060000000  0.4805540000000 1.0
C      1  0.4721460000000  0.4847320000000  0.5068050000000 1.0
C      1  0.4587070000000  0.5884160000000  0.5068160000000 1.0
C      1  0.4887930000000  0.5240340000000  0.5221570000000 1.0
C      1  0.4042450000000  0.4787800000000  0.5052930000000 1.0
C      1  0.4620640000000  0.4845930000000  0.5831750000000 1.0
C      1  0.5355360000000  0.5013260000000  0.4709060000000 1.0
C      1  0.5371870000000  0.5833770000000  0.4981400000000 1.0
C      1  0.4459330000000  0.5181100000000  0.5496610000000 1.0
C      1  0.4676890000000  0.5634780000000  0.5479930000000 1.0
C      1  0.5834770000000  0.4952960000000  0.5506070000000 1.0
C      1  0.5000670000000  0.4626580000000  0.5765260000000 1.0
C      1  0.4829120000000  0.4509820000000  0.4397420000000 1.0
C      1  0.4354910000000  0.4241180000000  0.5366980000000 1.0
C      1  0.5184150000000  0.5386470000000  0.5834000000000 1.0
C      1  0.5210440000000  0.4396770000000  0.5716690000000 1.0
C      1  0.4626030000000  0.4571870000000  0.5557740000000 1.0
C      1  0.4964820000000  0.6003020000000  0.4846250000000 1.0
C      1  0.4817800000000  0.5282760000000  0.5844640000000 1.0
C      1  0.4432230000000  0.5380250000000  0.4356240000000 1.0
C      1  0.4441240000000  0.4322670000000  0.4673310000000 1.0
C      1  0.4526280000000  0.5235720000000  0.5207990000000 1.0
C      1  0.4698340000000  0.4257880000000  0.5181510000000 1.0
C      1  0.5082350000000  0.4543390000000  0.5308800000000 1.0
C      1  0.5637160000000  0.5423550000000  0.5603540000000 1.0
C      1  0.4711380000000  0.4254600000000  0.4563560000000 1.0
C      1  0.5192320000000  0.5177270000000  0.5636940000000 1.0
C      1  0.5877570000000  0.5088640000000  0.4697850000000 1.0
C      1  0.5047650000000  0.4822610000000  0.5983570000000 1.0
C      1  0.4055030000000  0.4941560000000  0.5290720000000 1.0
C      1  0.5251980000000  0.5771570000000  0.5581070000000 1.0
C      1  0.4929140000000  0.4909170000000  0.4106300000000 1.0
C      1  0.5495660000000  0.5161180000000  0.5172180000000 1.0
C      1  0.5604640000000  0.5711190000000  0.4888930000000 1.0
C      1  0.4666830000000  0.4722490000000  0.4592880000000 1.0
C      1  0.4185260000000  0.5077780000000  0.5487280000000 1.0
C      1  0.5492540000000  0.4601190000000  0.5458710000000 1.0
C      1  0.5220350000000  0.5487820000000  0.4901200000000 1.0
C      1  0.5140500000000  0.4470590000000  0.4427770000000 1.0
C      1  0.4962480000000  0.4249840000000  0.4780330000000 1.0
C      1  0.5241640000000  0.5618380000000  0.5342100000000 1.0
C      1  0.5093810000000  0.5442520000000  0.4143860000000 1.0
C      1  0.4992480000000  0.4544340000000  0.4838570000000 1.0
C      1  0.5769630000000  0.5019080000000  0.5187050000000 1.0
C      1  0.4354280000000  0.5327190000000  0.4634260000000 1.0
C      1  0.5393170000000  0.4733690000000  0.5845370000000 1.0
C      1  0.5604980000000  0.5682050000000  0.4596740000000 1.0
C      1  0.5407080000000  0.5004260000000  0.4189630000000 1.0
C      1  0.5831700000000  0.5631460000000  0.5053050000000 1.0
C      1  0.4613820000000  0.5396340000000  0.5657190000000 1.0
C      1  0.4727580000000  0.4639920000000  0.4868960000000 1.0
C      1  0.4860570000000  0.5971210000000  0.5130030000000 1.0
C      1  0.5903550000000  0.5377200000000  0.5177590000000 1.0
C      1  0.4532840000000  0.4294020000000  0.5589820000000 1.0
C      1  0.4778950000000  0.4157470000000  0.5601210000000 1.0
C      1  0.4604340000000  0.5586130000000  0.4287030000000 1.0
C      1  0.4760690000000  0.4651670000000  0.4120160000000 1.0
C      1  0.4293060000000  0.4434570000000  0.5156740000000 1.0
C      1  0.5391310000000  0.5579350000000  0.5757740000000 1.0
C      1  0.5209750000000  0.4240020000000  0.4599190000000 1.0
C      1  0.4033930000000  0.4511800000000  0.5089450000000 1.0
C      1  0.5219680000000  0.5897230000000  0.4753610000000 1.0
C      1  0.5439700000000  0.5242010000000  0.4887220000000 1.0
C      1  0.4369220000000  0.4638560000000  0.4604040000000 1.0
C      1  0.4463840000000  0.4978010000000  0.5053960000000 1.0
C      1  0.5245350000000  0.5095150000000  0.4434710000000 1.0
C      1  0.5491420000000  0.4281830000000  0.4678830000000 1.0
C      1  0.4773470000000  0.5781060000000  0.4362700000000 1.0
C      1  0.4825920000000  0.5722970000000  0.4640310000000 1.0
C      1  0.4499580000000  0.5091800000000  0.4286710000000 1.0
C      1  0.4735200000000  0.5015040000000  0.4515240000000 1.0
C      1  0.5560040000000  0.4557350000000  0.4544160000000 1.0
C      1  0.5068140000000  0.5480830000000  0.5160780000000 1.0
C      1  0.5520480000000  0.4736560000000  0.4214860000000 1.0
C      1  0.4652990000000  0.4961590000000  0.5562380000000 1.0
C      1  0.4255780000000  0.4868150000000  0.4853790000000 1.0
C      1  0.5425090000000  0.4989940000000  0.5660250000000 1.0
C      1  0.4276610000000  0.4711380000000  0.4330080000000 1.0
C      1  0.5337910000000  0.4521070000000  0.4227820000000 1.0
C      1  0.5444720000000  0.4612480000000  0.4969730000000 1.0
C      1  0.4902920000000  0.5067190000000  0.4986220000000 1.0
C      1  0.4935590000000  0.4115650000000  0.5061050000000 1.0
C      1  0.4947870000000  0.5054820000000  0.5485420000000 1.0
C      1  0.4213510000000  0.4994070000000  0.4374920000000 1.0
C      1  0.5579370000000  0.4195440000000  0.4938020000000 1.0
END
