TITL C-950527-2551-262 -5.41459412049301e-07 125000 -140.632415016803 0 0 24 (C1) n - 1
REM
REM in /home/bkarasulu/work/CARBON/AIRSS/Generating-Clusters/EDIP-Nigel-Params/with-SteepDescent/Only-C1/SD-CG/HFTN-CG
REM
REM
REM
REM
REM
REM ./C.cell (11c1c37f851c82e70ff6c80c92926a4b)
REM
REM compiler GCC version 9.2.1 20190827 (Red Hat 9.2.1-1)
REM options -cpp -mtune=generic -march=x86-64 -g -O0 -fpre-include=/usr/include/finclude/math-vector-fortran.h
REM seed 808819496 216115394 -1200148147 -1351599048 -869219923 -465197366 1602306726 423279488 1933685840 1064438170 -2125129147 1560060567 -603314590 -242823134 1066237689 1930090461 -1696030726 -2098822362 -1602589289 -775292645 -1825333197 1338614714 1916934367 -1379141432 -1263856845 642423860 999508662 1467917340 -1490152231 600465416 1646114290 1139450599 363876697
REM
CELL 1.54180   50.00000   50.00000   50.00000   90.00000   90.00000   90.00000
LATT -1
SFAC C  
C      1  0.4694970000000  0.4993240000000  0.5466280000000 1.0
C      1  0.4547400000000  0.5092970000000  0.4702120000000 1.0
C      1  0.5282930000000  0.5060220000000  0.5287520000000 1.0
C      1  0.4967010000000  0.5229110000000  0.4940170000000 1.0
C      1  0.5285410000000  0.4552580000000  0.5098190000000 1.0
C      1  0.5116170000000  0.5469270000000  0.4850810000000 1.0
C      1  0.4953260000000  0.5271250000000  0.4468220000000 1.0
C      1  0.5403090000000  0.5012700000000  0.4822280000000 1.0
C      1  0.5478840000000  0.4521640000000  0.4894200000000 1.0
C      1  0.4831740000000  0.5138780000000  0.4687160000000 1.0
C      1  0.4440410000000  0.4850160000000  0.4814160000000 1.0
C      1  0.4608840000000  0.4803970000000  0.5277250000000 1.0
C      1  0.5186840000000  0.5382940000000  0.4587120000000 1.0
C      1  0.5394130000000  0.5197710000000  0.4613680000000 1.0
C      1  0.5177280000000  0.5008570000000  0.5021390000000 1.0
C      1  0.4815760000000  0.4677870000000  0.5138610000000 1.0
C      1  0.4416340000000  0.4933210000000  0.5089170000000 1.0
C      1  0.5390650000000  0.4661630000000  0.5339470000000 1.0
C      1  0.4800020000000  0.5238950000000  0.5424040000000 1.0
C      1  0.4494510000000  0.5219750000000  0.5049460000000 1.0
C      1  0.5376540000000  0.4893530000000  0.5480810000000 1.0
C      1  0.5060300000000  0.4725780000000  0.5012870000000 1.0
C      1  0.4757880000000  0.5299590000000  0.5150900000000 1.0
C      1  0.5519680000000  0.4764600000000  0.4784100000000 1.0
END
