TITL C-950522-5749-253 -2.66895962342569e-05 125000 -134.32181983316 0 0 23 (C1) n - 1
REM
REM in /home/bkarasulu/work/CARBON/AIRSS/Generating-Clusters/EDIP-Nigel-Params/with-SteepDescent/Only-C1/SD-CG/HFTN-CG
REM
REM
REM
REM
REM
REM ./C.cell (11c1c37f851c82e70ff6c80c92926a4b)
REM
REM compiler GCC version 9.2.1 20190827 (Red Hat 9.2.1-1)
REM options -cpp -mtune=generic -march=x86-64 -g -O0 -fpre-include=/usr/include/finclude/math-vector-fortran.h
REM seed -1280697188 713169096 -1393864803 -1209887046 -1778419682 353438597 1613931263 1627492097 2075056697 -120638544 876409965 1884913257 1889630001 975209280 -152008010 -1282817229 -1550606412 627452518 -1583924320 -1047466786 2045144755 -579169788 788134927 -1609313584 502890191 274179950 -2067848431 960312032 1576010372 1791101074 -903645376 13742673 -1615966369
REM
CELL 1.54180   50.00000   50.00000   50.00000   90.00000   90.00000   90.00000
LATT -1
SFAC C  
C      1  0.5254210000000  0.4550600000000  0.4879560000000 1.0
C      1  0.4948390000000  0.5690400000000  0.4877090000000 1.0
C      1  0.4769550000000  0.5127110000000  0.4626490000000 1.0
C      1  0.4615120000000  0.4396950000000  0.5161380000000 1.0
C      1  0.4876400000000  0.4800650000000  0.5596700000000 1.0
C      1  0.5306320000000  0.5515530000000  0.5218110000000 1.0
C      1  0.4878680000000  0.5557510000000  0.4632650000000 1.0
C      1  0.5219610000000  0.4915410000000  0.4688190000000 1.0
C      1  0.5218210000000  0.5056530000000  0.5440490000000 1.0
C      1  0.4638090000000  0.4882670000000  0.4650060000000 1.0
C      1  0.5191490000000  0.4843080000000  0.5253900000000 1.0
C      1  0.5129390000000  0.5417190000000  0.4663210000000 1.0
C      1  0.5328070000000  0.5299160000000  0.5370740000000 1.0
C      1  0.4876690000000  0.4456360000000  0.5226420000000 1.0
C      1  0.4653920000000  0.5381970000000  0.4613280000000 1.0
C      1  0.5347190000000  0.4773240000000  0.5026610000000 1.0
C      1  0.4974990000000  0.4690710000000  0.5357400000000 1.0
C      1  0.4670720000000  0.4459290000000  0.4897380000000 1.0
C      1  0.5170400000000  0.5651570000000  0.5033990000000 1.0
C      1  0.5023470000000  0.5029240000000  0.5640940000000 1.0
C      1  0.4791710000000  0.4693400000000  0.4786810000000 1.0
C      1  0.5067190000000  0.4665460000000  0.4700290000000 1.0
C      1  0.5050200000000  0.5145970000000  0.4658320000000 1.0
END
