TITL C-951333-8791-311 -1.26613229133673e-06 125000 -1099.4839737592 0 0 177 (C1) n - 1
REM
REM in /home/bkarasulu/work/CARBON/AIRSS/Generating-Clusters/EDIP-Nigel-Params/with-SteepDescent/Only-C1/SD-CG/HFTN-CG
REM
REM
REM
REM
REM
REM ./C.cell (11c1c37f851c82e70ff6c80c92926a4b)
REM
REM compiler GCC version 9.2.1 20190827 (Red Hat 9.2.1-1)
REM options -cpp -mtune=generic -march=x86-64 -g -O0 -fpre-include=/usr/include/finclude/math-vector-fortran.h
REM seed 2132207257 1405594640 620977957 238487045 -1180800536 -1110218528 -460694912 1112375825 -997964036 2049227187 594570760 -2058559578 618107651 -507594371 1115378414 1627856060 1755953136 261733442 1485344621 1923449108 -309454918 1533629372 1684840956 -875156418 2978151 1407050447 -718809151 -1080324896 -187477751 1774347234 1372734360 1460212814 922229249
REM
CELL 1.54180   50.00000   50.00000   50.00000   90.00000   90.00000   90.00000
LATT -1
SFAC C  
C      1  0.5281570000000  0.4949870000000  0.5137110000000 1.0
C      1  0.5320760000000  0.4282620000000  0.5088890000000 1.0
C      1  0.5474950000000  0.5035340000000  0.4179980000000 1.0
C      1  0.4634750000000  0.5154990000000  0.4499230000000 1.0
C      1  0.5534430000000  0.4634730000000  0.4388150000000 1.0
C      1  0.4625210000000  0.5439460000000  0.4342420000000 1.0
C      1  0.5497770000000  0.4309130000000  0.5763850000000 1.0
C      1  0.5857300000000  0.5403490000000  0.4771820000000 1.0
C      1  0.4430440000000  0.4462720000000  0.5592400000000 1.0
C      1  0.4818530000000  0.4426930000000  0.5181720000000 1.0
C      1  0.5478070000000  0.5666050000000  0.4534050000000 1.0
C      1  0.5077850000000  0.4966730000000  0.5731930000000 1.0
C      1  0.5701170000000  0.4859200000000  0.4282400000000 1.0
C      1  0.4534150000000  0.3961860000000  0.4795250000000 1.0
C      1  0.4748340000000  0.5557380000000  0.4807810000000 1.0
C      1  0.4955430000000  0.5589640000000  0.5314660000000 1.0
C      1  0.4847890000000  0.4515420000000  0.5796650000000 1.0
C      1  0.5621120000000  0.5431580000000  0.4962000000000 1.0
C      1  0.4349770000000  0.4850000000000  0.5248780000000 1.0
C      1  0.4826610000000  0.5948230000000  0.4622120000000 1.0
C      1  0.4868760000000  0.6049820000000  0.4900730000000 1.0
C      1  0.4818060000000  0.4472330000000  0.4843940000000 1.0
C      1  0.4733700000000  0.5955410000000  0.5424790000000 1.0
C      1  0.4029510000000  0.4853140000000  0.4502460000000 1.0
C      1  0.5112690000000  0.4335220000000  0.5317110000000 1.0
C      1  0.4265270000000  0.4377660000000  0.4574850000000 1.0
C      1  0.4147570000000  0.5337050000000  0.4433580000000 1.0
C      1  0.5326500000000  0.4028290000000  0.4933200000000 1.0
C      1  0.4822000000000  0.4867270000000  0.5035110000000 1.0
C      1  0.4313640000000  0.5857600000000  0.5127720000000 1.0
C      1  0.4828440000000  0.5183200000000  0.5727400000000 1.0
C      1  0.4842410000000  0.4033500000000  0.4377990000000 1.0
C      1  0.5044120000000  0.5147020000000  0.4020180000000 1.0
C      1  0.4576420000000  0.4595340000000  0.3910960000000 1.0
C      1  0.4465620000000  0.4924900000000  0.4991350000000 1.0
C      1  0.5385450000000  0.4494380000000  0.4177120000000 1.0
C      1  0.3960260000000  0.5434320000000  0.4642290000000 1.0
C      1  0.5147780000000  0.3730750000000  0.5234560000000 1.0
C      1  0.4595860000000  0.3886360000000  0.5071630000000 1.0
C      1  0.5791140000000  0.5492440000000  0.5643790000000 1.0
C      1  0.4443840000000  0.4677300000000  0.4162500000000 1.0
C      1  0.5721080000000  0.5560440000000  0.5369840000000 1.0
C      1  0.4654970000000  0.4646710000000  0.4629670000000 1.0
C      1  0.4151350000000  0.4460160000000  0.5187080000000 1.0
C      1  0.5910060000000  0.4969720000000  0.4481010000000 1.0
C      1  0.5065410000000  0.5591540000000  0.5936010000000 1.0
C      1  0.5262040000000  0.4747190000000  0.5952750000000 1.0
C      1  0.5204540000000  0.5692020000000  0.4941610000000 1.0
C      1  0.5666470000000  0.5022980000000  0.5987740000000 1.0
C      1  0.5975660000000  0.4803210000000  0.4725950000000 1.0
C      1  0.5416790000000  0.4960520000000  0.6101100000000 1.0
C      1  0.5706350000000  0.4293430000000  0.5045930000000 1.0
C      1  0.4801950000000  0.4902870000000  0.6070190000000 1.0
C      1  0.5059130000000  0.5737500000000  0.4439460000000 1.0
C      1  0.4336110000000  0.4997610000000  0.5703660000000 1.0
C      1  0.4704380000000  0.3912490000000  0.4583530000000 1.0
C      1  0.5318760000000  0.5448390000000  0.4410080000000 1.0
C      1  0.5530650000000  0.4171630000000  0.4478560000000 1.0
C      1  0.6021550000000  0.5336210000000  0.5692260000000 1.0
C      1  0.5106440000000  0.5224810000000  0.4779430000000 1.0
C      1  0.5271310000000  0.5108880000000  0.5552530000000 1.0
C      1  0.5722700000000  0.5393520000000  0.4296280000000 1.0
C      1  0.5957910000000  0.5665180000000  0.4718980000000 1.0
C      1  0.4550330000000  0.5907070000000  0.4626570000000 1.0
C      1  0.5466840000000  0.5333070000000  0.4172310000000 1.0
C      1  0.5726580000000  0.4803530000000  0.4884370000000 1.0
C      1  0.4551680000000  0.4878410000000  0.5890730000000 1.0
C      1  0.4068440000000  0.5693560000000  0.5097680000000 1.0
C      1  0.5211920000000  0.5411110000000  0.3988360000000 1.0
C      1  0.5045300000000  0.4258050000000  0.4439060000000 1.0
C      1  0.5499540000000  0.5970180000000  0.5253730000000 1.0
C      1  0.5045350000000  0.5629430000000  0.4113310000000 1.0
C      1  0.4933990000000  0.5166010000000  0.6151660000000 1.0
C      1  0.4371700000000  0.5215530000000  0.4929100000000 1.0
C      1  0.5462310000000  0.5697480000000  0.5364740000000 1.0
C      1  0.5889360000000  0.5803850000000  0.4957000000000 1.0
C      1  0.3923860000000  0.4874290000000  0.5092310000000 1.0
C      1  0.4829990000000  0.5406610000000  0.5972810000000 1.0
C      1  0.4415490000000  0.4746750000000  0.4771000000000 1.0
C      1  0.5748130000000  0.4988940000000  0.5718000000000 1.0
C      1  0.5907800000000  0.5604080000000  0.5163980000000 1.0
C      1  0.6221370000000  0.4808830000000  0.5215760000000 1.0
C      1  0.6025110000000  0.5062780000000  0.5616570000000 1.0
C      1  0.4570530000000  0.5702260000000  0.5510250000000 1.0
C      1  0.4163970000000  0.4525280000000  0.5485580000000 1.0
C      1  0.5283600000000  0.3911450000000  0.5400640000000 1.0
C      1  0.4147900000000  0.4637890000000  0.4702940000000 1.0
C      1  0.4353150000000  0.5541530000000  0.4417220000000 1.0
C      1  0.3783830000000  0.4988050000000  0.4585050000000 1.0
C      1  0.4529750000000  0.4940800000000  0.5450810000000 1.0
C      1  0.5544360000000  0.4062640000000  0.5315540000000 1.0
C      1  0.5314580000000  0.6078130000000  0.4541610000000 1.0
C      1  0.4980650000000  0.4660070000000  0.6041280000000 1.0
C      1  0.4019660000000  0.5065160000000  0.4886150000000 1.0
C      1  0.5603180000000  0.4513530000000  0.4846380000000 1.0
C      1  0.5024580000000  0.5936930000000  0.5480580000000 1.0
C      1  0.5399100000000  0.4709520000000  0.5297230000000 1.0
C      1  0.5961370000000  0.4398310000000  0.5164680000000 1.0
C      1  0.4052430000000  0.4786380000000  0.5580680000000 1.0
C      1  0.5222890000000  0.4573690000000  0.5479470000000 1.0
C      1  0.5541190000000  0.5512960000000  0.5816470000000 1.0
C      1  0.4830030000000  0.4222910000000  0.5661340000000 1.0
C      1  0.4804050000000  0.5588080000000  0.3971910000000 1.0
C      1  0.4220500000000  0.5055280000000  0.4390200000000 1.0
C      1  0.4308950000000  0.4245710000000  0.5081300000000 1.0
C      1  0.5540020000000  0.4986910000000  0.4722490000000 1.0
C      1  0.4874040000000  0.5299190000000  0.5419910000000 1.0
C      1  0.4587190000000  0.5434280000000  0.4056600000000 1.0
C      1  0.4862920000000  0.5152570000000  0.4948740000000 1.0
C      1  0.5124890000000  0.5740100000000  0.5691570000000 1.0
C      1  0.5067750000000  0.4332020000000  0.4739550000000 1.0
C      1  0.5106400000000  0.5121110000000  0.5317240000000 1.0
C      1  0.5311260000000  0.4235850000000  0.4289080000000 1.0
C      1  0.4558720000000  0.5464020000000  0.5715710000000 1.0
C      1  0.5659770000000  0.4427540000000  0.4563450000000 1.0
C      1  0.5603580000000  0.5949030000000  0.4959380000000 1.0
C      1  0.5396540000000  0.5163840000000  0.4918420000000 1.0
C      1  0.5102910000000  0.4780800000000  0.4979130000000 1.0
C      1  0.5146800000000  0.5995690000000  0.4980980000000 1.0
C      1  0.4099460000000  0.5425140000000  0.5559380000000 1.0
C      1  0.4641080000000  0.5278180000000  0.4787630000000 1.0
C      1  0.5561080000000  0.5068870000000  0.5495110000000 1.0
C      1  0.4591820000000  0.5208470000000  0.5356310000000 1.0
C      1  0.5360580000000  0.6126570000000  0.4810720000000 1.0
C      1  0.5008010000000  0.4504090000000  0.3887270000000 1.0
C      1  0.5403410000000  0.4581290000000  0.5724420000000 1.0
C      1  0.5772710000000  0.5236230000000  0.4539680000000 1.0
C      1  0.5074040000000  0.5036860000000  0.4529050000000 1.0
C      1  0.4509880000000  0.4483000000000  0.4398870000000 1.0
C      1  0.4087110000000  0.4937240000000  0.5331090000000 1.0
C      1  0.4094130000000  0.5432300000000  0.5277430000000 1.0
C      1  0.4755390000000  0.4365490000000  0.3963730000000 1.0
C      1  0.3999400000000  0.4608880000000  0.4982710000000 1.0
C      1  0.5337180000000  0.4799170000000  0.4571210000000 1.0
C      1  0.4755370000000  0.5671970000000  0.5084930000000 1.0
C      1  0.6102000000000  0.4627160000000  0.5040450000000 1.0
C      1  0.5671830000000  0.4708420000000  0.5396690000000 1.0
C      1  0.5243230000000  0.4926330000000  0.4044950000000 1.0
C      1  0.4550360000000  0.5150890000000  0.3988460000000 1.0
C      1  0.5093100000000  0.4111720000000  0.5539410000000 1.0
C      1  0.5311860000000  0.5450010000000  0.6008670000000 1.0
C      1  0.4964220000000  0.5246460000000  0.4313140000000 1.0
C      1  0.4793200000000  0.5058480000000  0.3853320000000 1.0
C      1  0.4565240000000  0.4597920000000  0.5811180000000 1.0
C      1  0.4335740000000  0.5727990000000  0.4634360000000 1.0
C      1  0.4803520000000  0.4892930000000  0.4522540000000 1.0
C      1  0.5453170000000  0.5906630000000  0.4389290000000 1.0
C      1  0.5401430000000  0.5708520000000  0.5651140000000 1.0
C      1  0.4515370000000  0.4115680000000  0.5235860000000 1.0
C      1  0.5263190000000  0.4161720000000  0.5764730000000 1.0
C      1  0.4352800000000  0.4192830000000  0.4798010000000 1.0
C      1  0.5099250000000  0.3870320000000  0.4999030000000 1.0
C      1  0.4405170000000  0.4967230000000  0.4181370000000 1.0
C      1  0.3797200000000  0.5222850000000  0.4761420000000 1.0
C      1  0.5230880000000  0.5564050000000  0.5205390000000 1.0
C      1  0.4380410000000  0.5360340000000  0.5196920000000 1.0
C      1  0.4773100000000  0.4752100000000  0.5345380000000 1.0
C      1  0.5212140000000  0.6065670000000  0.5269690000000 1.0
C      1  0.4097970000000  0.5647600000000  0.4799000000000 1.0
C      1  0.4583950000000  0.4235040000000  0.5498920000000 1.0
C      1  0.5781370000000  0.4922890000000  0.5208020000000 1.0
C      1  0.5172160000000  0.4647470000000  0.4072890000000 1.0
C      1  0.5440180000000  0.4008320000000  0.4682400000000 1.0
C      1  0.5843470000000  0.4454060000000  0.5431540000000 1.0
C      1  0.4656350000000  0.6043800000000  0.5129690000000 1.0
C      1  0.5034250000000  0.5542790000000  0.4731940000000 1.0
C      1  0.4765670000000  0.4778800000000  0.3779680000000 1.0
C      1  0.4896510000000  0.4101890000000  0.5005840000000 1.0
C      1  0.5480210000000  0.5678710000000  0.4837920000000 1.0
C      1  0.4492300000000  0.5641440000000  0.5222200000000 1.0
C      1  0.5238590000000  0.5194190000000  0.6144570000000 1.0
C      1  0.5676000000000  0.4225810000000  0.5535840000000 1.0
C      1  0.5242400000000  0.4594830000000  0.4792570000000 1.0
C      1  0.4975450000000  0.4713680000000  0.5578190000000 1.0
C      1  0.4706500000000  0.4283720000000  0.4253240000000 1.0
C      1  0.4300300000000  0.5306840000000  0.5720470000000 1.0
C      1  0.6048430000000  0.5003390000000  0.5317410000000 1.0
END
