TITL C-950523-3027-264 -8.60326130183345e-08 125000 -676.763349727616 0 0 110 (C1) n - 1
REM
REM in /home/bkarasulu/work/CARBON/AIRSS/Generating-Clusters/EDIP-Nigel-Params/with-SteepDescent/Only-C1/SD-CG/HFTN-CG
REM
REM
REM
REM
REM
REM ./C.cell (11c1c37f851c82e70ff6c80c92926a4b)
REM
REM compiler GCC version 9.2.1 20190827 (Red Hat 9.2.1-1)
REM options -cpp -mtune=generic -march=x86-64 -g -O0 -fpre-include=/usr/include/finclude/math-vector-fortran.h
REM seed 56375561 -1202291159 -1671793802 -422667974 486029801 1307993426 -46246764 615460252 -1700070136 -497823169 -645201623 -1620203869 75175872 751164436 -125360133 1250963458 1958171572 54860581 322460653 2141463594 -846207482 -207606872 -1750665270 -1000444921 -1599864509 1977086289 -943793403 -627512644 -547510334 1519545384 -1746960295 1105271181 1791257007
REM
CELL 1.54180   50.00000   50.00000   50.00000   90.00000   90.00000   90.00000
LATT -1
SFAC C  
C      1  0.4733440000000  0.4246440000000  0.5584180000000 1.0
C      1  0.5864460000000  0.4939390000000  0.4665050000000 1.0
C      1  0.5485020000000  0.4479490000000  0.5602770000000 1.0
C      1  0.5528780000000  0.4633370000000  0.4804640000000 1.0
C      1  0.5203350000000  0.5542260000000  0.5193430000000 1.0
C      1  0.5621210000000  0.5673810000000  0.5347430000000 1.0
C      1  0.6048250000000  0.5319150000000  0.5247160000000 1.0
C      1  0.4872110000000  0.4421700000000  0.4210710000000 1.0
C      1  0.4852240000000  0.4556990000000  0.4996860000000 1.0
C      1  0.5169360000000  0.4736720000000  0.5869900000000 1.0
C      1  0.5736780000000  0.4840550000000  0.4903190000000 1.0
C      1  0.4737610000000  0.5585720000000  0.5076880000000 1.0
C      1  0.4342660000000  0.4483090000000  0.5357460000000 1.0
C      1  0.4667980000000  0.4996810000000  0.4559080000000 1.0
C      1  0.5677720000000  0.5208110000000  0.5553010000000 1.0
C      1  0.4208160000000  0.5158320000000  0.4448940000000 1.0
C      1  0.5553480000000  0.4372480000000  0.4956930000000 1.0
C      1  0.5401380000000  0.5394090000000  0.4766410000000 1.0
C      1  0.4976380000000  0.4537560000000  0.5874200000000 1.0
C      1  0.5298280000000  0.4253070000000  0.5039760000000 1.0
C      1  0.5187920000000  0.5826160000000  0.4564910000000 1.0
C      1  0.5458200000000  0.5660230000000  0.5116230000000 1.0
C      1  0.4463610000000  0.5013620000000  0.4339570000000 1.0
C      1  0.5688450000000  0.5178670000000  0.4419070000000 1.0
C      1  0.5283070000000  0.5191030000000  0.5816910000000 1.0
C      1  0.5402150000000  0.5122640000000  0.4869030000000 1.0
C      1  0.4725980000000  0.4097630000000  0.4881900000000 1.0
C      1  0.4964620000000  0.5142570000000  0.4868010000000 1.0
C      1  0.5660020000000  0.5071950000000  0.5087200000000 1.0
C      1  0.4565170000000  0.5608700000000  0.4844430000000 1.0
C      1  0.5307520000000  0.4919120000000  0.4172430000000 1.0
C      1  0.4049570000000  0.5038090000000  0.4651700000000 1.0
C      1  0.5422530000000  0.4732530000000  0.5751660000000 1.0
C      1  0.4767700000000  0.4699960000000  0.4233340000000 1.0
C      1  0.4642500000000  0.5563690000000  0.5568550000000 1.0
C      1  0.4427930000000  0.4790140000000  0.5761330000000 1.0
C      1  0.4886630000000  0.4817790000000  0.4503900000000 1.0
C      1  0.5326260000000  0.4776870000000  0.5321690000000 1.0
C      1  0.4667950000000  0.5659780000000  0.4574790000000 1.0
C      1  0.4104280000000  0.4936380000000  0.5422130000000 1.0
C      1  0.6044180000000  0.5423300000000  0.5001440000000 1.0
C      1  0.5002080000000  0.5439620000000  0.4281590000000 1.0
C      1  0.4795890000000  0.5347910000000  0.4116840000000 1.0
C      1  0.4395890000000  0.5170730000000  0.4948600000000 1.0
C      1  0.4478430000000  0.5577400000000  0.4381940000000 1.0
C      1  0.5088050000000  0.4953850000000  0.4003960000000 1.0
C      1  0.4453760000000  0.4704670000000  0.4256990000000 1.0
C      1  0.4632640000000  0.5122470000000  0.4089480000000 1.0
C      1  0.4912040000000  0.5210590000000  0.5366350000000 1.0
C      1  0.5434810000000  0.5172140000000  0.4260630000000 1.0
C      1  0.4998270000000  0.5141700000000  0.5914360000000 1.0
C      1  0.4962500000000  0.4423290000000  0.4695280000000 1.0
C      1  0.4577970000000  0.4285880000000  0.5352310000000 1.0
C      1  0.5016950000000  0.5629960000000  0.4990490000000 1.0
C      1  0.4360120000000  0.4765530000000  0.5469770000000 1.0
C      1  0.4873830000000  0.5405120000000  0.5913690000000 1.0
C      1  0.4211800000000  0.4665610000000  0.4895300000000 1.0
C      1  0.4858440000000  0.5749400000000  0.5608000000000 1.0
C      1  0.4335670000000  0.5437110000000  0.4824730000000 1.0
C      1  0.4418420000000  0.4588570000000  0.4723480000000 1.0
C      1  0.5894970000000  0.5433230000000  0.4781220000000 1.0
C      1  0.4452820000000  0.5189990000000  0.5246380000000 1.0
C      1  0.5629250000000  0.4575360000000  0.5368220000000 1.0
C      1  0.4713210000000  0.4269870000000  0.4639220000000 1.0
C      1  0.4960970000000  0.5594330000000  0.4529690000000 1.0
C      1  0.5062950000000  0.4742670000000  0.5497020000000 1.0
C      1  0.4767480000000  0.4954220000000  0.5992870000000 1.0
C      1  0.4679220000000  0.5399000000000  0.5313920000000 1.0
C      1  0.5122460000000  0.5887100000000  0.4869090000000 1.0
C      1  0.5326920000000  0.4661100000000  0.4330320000000 1.0
C      1  0.4839840000000  0.4939050000000  0.5427060000000 1.0
C      1  0.4624880000000  0.4770920000000  0.4995990000000 1.0
C      1  0.5098070000000  0.4191900000000  0.4840170000000 1.0
C      1  0.4665250000000  0.4260230000000  0.4349570000000 1.0
C      1  0.5253320000000  0.4296290000000  0.5537280000000 1.0
C      1  0.5289170000000  0.5434590000000  0.4231750000000 1.0
C      1  0.4195690000000  0.5212120000000  0.5391370000000 1.0
C      1  0.5126650000000  0.4442790000000  0.4359350000000 1.0
C      1  0.5852890000000  0.5134260000000  0.5320160000000 1.0
C      1  0.5558890000000  0.5483130000000  0.5551400000000 1.0
C      1  0.5668730000000  0.5422990000000  0.4607570000000 1.0
C      1  0.4983510000000  0.4358380000000  0.5650510000000 1.0
C      1  0.5244940000000  0.4717900000000  0.4857940000000 1.0
C      1  0.5122950000000  0.4648960000000  0.5120150000000 1.0
C      1  0.5300150000000  0.5457440000000  0.5702060000000 1.0
C      1  0.4389760000000  0.4502000000000  0.4452170000000 1.0
C      1  0.5723480000000  0.4395230000000  0.5177400000000 1.0
C      1  0.5405690000000  0.5853060000000  0.4891030000000 1.0
C      1  0.5663640000000  0.5666550000000  0.4449270000000 1.0
C      1  0.4573120000000  0.4901890000000  0.5293490000000 1.0
C      1  0.4816650000000  0.4895910000000  0.4013300000000 1.0
C      1  0.5480530000000  0.5017380000000  0.5682780000000 1.0
C      1  0.4199120000000  0.4503170000000  0.5119800000000 1.0
C      1  0.4662740000000  0.5043300000000  0.4845750000000 1.0
C      1  0.3986660000000  0.4995280000000  0.5152400000000 1.0
C      1  0.4284800000000  0.5431320000000  0.4533440000000 1.0
C      1  0.5282990000000  0.4145510000000  0.5300250000000 1.0
C      1  0.4508190000000  0.5042920000000  0.5892310000000 1.0
C      1  0.5394340000000  0.5680720000000  0.4372830000000 1.0
C      1  0.4156730000000  0.4962990000000  0.4910020000000 1.0
C      1  0.5777740000000  0.4806980000000  0.4432570000000 1.0
C      1  0.4733690000000  0.4664540000000  0.5948780000000 1.0
C      1  0.4757270000000  0.4284940000000  0.5108440000000 1.0
C      1  0.5566430000000  0.4623400000000  0.4498730000000 1.0
C      1  0.5146580000000  0.5248280000000  0.5198640000000 1.0
C      1  0.4602300000000  0.5396830000000  0.5808640000000 1.0
C      1  0.5039220000000  0.5596760000000  0.5765610000000 1.0
C      1  0.5075820000000  0.5427850000000  0.4772440000000 1.0
C      1  0.5389200000000  0.5062170000000  0.5253980000000 1.0
C      1  0.5115690000000  0.4931730000000  0.4693710000000 1.0
END
