TITL C-950527-2551-660 -1.96542578898545e-06 125000 -369.426422741965 0 0 61 (C1) n - 1
REM
REM in /home/bkarasulu/work/CARBON/AIRSS/Generating-Clusters/EDIP-Nigel-Params/with-SteepDescent/Only-C1/SD-CG/HFTN-CG
REM
REM
REM
REM
REM
REM ./C.cell (11c1c37f851c82e70ff6c80c92926a4b)
REM
REM compiler GCC version 9.2.1 20190827 (Red Hat 9.2.1-1)
REM options -cpp -mtune=generic -march=x86-64 -g -O0 -fpre-include=/usr/include/finclude/math-vector-fortran.h
REM seed 1413489966 -522404979 1544942852 209894230 -74936217 1712341101 -1463941140 1275056569 -1784242905 -1057535227 -1759124113 1986306088 1400182636 1902660569 -166880721 1933199860 -579122570 -1166633876 2041840991 -630296597 698593642 -569218770 -1969871652 -534661772 -569410931 844055366 -1650957739 -1989612657 1687138672 723659010 1919847519 1532512259 -1734764774
REM
CELL 1.54180   50.00000   50.00000   50.00000   90.00000   90.00000   90.00000
LATT -1
SFAC C  
C      1  0.5032770000000  0.5654240000000  0.5054360000000 1.0
C      1  0.4944520000000  0.4341900000000  0.4869310000000 1.0
C      1  0.4352120000000  0.4958530000000  0.5238480000000 1.0
C      1  0.4854340000000  0.4888490000000  0.4382760000000 1.0
C      1  0.5197790000000  0.5607350000000  0.5313470000000 1.0
C      1  0.5181600000000  0.5336400000000  0.5729380000000 1.0
C      1  0.4700480000000  0.4593770000000  0.5239580000000 1.0
C      1  0.5203160000000  0.5157220000000  0.4534230000000 1.0
C      1  0.5414340000000  0.5585220000000  0.4734870000000 1.0
C      1  0.4757820000000  0.5544860000000  0.5057000000000 1.0
C      1  0.4442740000000  0.5263390000000  0.4868430000000 1.0
C      1  0.4518550000000  0.5023630000000  0.4701210000000 1.0
C      1  0.5031660000000  0.5509790000000  0.5546080000000 1.0
C      1  0.4713580000000  0.5331930000000  0.5268420000000 1.0
C      1  0.4822000000000  0.5366460000000  0.4589700000000 1.0
C      1  0.5204120000000  0.5469860000000  0.4309170000000 1.0
C      1  0.5409170000000  0.4625300000000  0.5610320000000 1.0
C      1  0.4863380000000  0.4888740000000  0.4823210000000 1.0
C      1  0.4542670000000  0.4359680000000  0.5237700000000 1.0
C      1  0.5100900000000  0.4424300000000  0.5314370000000 1.0
C      1  0.5551490000000  0.5463760000000  0.4961430000000 1.0
C      1  0.5418710000000  0.4621220000000  0.4897190000000 1.0
C      1  0.5338680000000  0.4506810000000  0.4639210000000 1.0
C      1  0.5543940000000  0.4691140000000  0.5364920000000 1.0
C      1  0.4876400000000  0.4623520000000  0.4991770000000 1.0
C      1  0.4701910000000  0.5119540000000  0.4486090000000 1.0
C      1  0.5079850000000  0.4809800000000  0.5322240000000 1.0
C      1  0.4208780000000  0.4720040000000  0.4785130000000 1.0
C      1  0.5756210000000  0.5285670000000  0.4892010000000 1.0
C      1  0.4414060000000  0.4352040000000  0.4999760000000 1.0
C      1  0.4935260000000  0.5102900000000  0.5251430000000 1.0
C      1  0.4277990000000  0.4904390000000  0.4586260000000 1.0
C      1  0.5380030000000  0.4911790000000  0.5248710000000 1.0
C      1  0.5532550000000  0.4486270000000  0.5144730000000 1.0
C      1  0.4640250000000  0.5470100000000  0.4798970000000 1.0
C      1  0.4194910000000  0.4828390000000  0.5044560000000 1.0
C      1  0.5145740000000  0.4920230000000  0.4367470000000 1.0
C      1  0.5647070000000  0.5042590000000  0.4862840000000 1.0
C      1  0.5405630000000  0.4912390000000  0.4940350000000 1.0
C      1  0.4566360000000  0.4814990000000  0.5341690000000 1.0
C      1  0.4746260000000  0.5476020000000  0.5521500000000 1.0
C      1  0.5358010000000  0.4296280000000  0.5271050000000 1.0
C      1  0.5425390000000  0.5242870000000  0.5630460000000 1.0
C      1  0.5165140000000  0.5727260000000  0.4793990000000 1.0
C      1  0.5141820000000  0.4312920000000  0.4670120000000 1.0
C      1  0.5039780000000  0.5168650000000  0.5902480000000 1.0
C      1  0.5073440000000  0.4915040000000  0.5819010000000 1.0
C      1  0.4397870000000  0.4499660000000  0.4762070000000 1.0
C      1  0.5094900000000  0.5267170000000  0.5048430000000 1.0
C      1  0.5435010000000  0.5458800000000  0.4475930000000 1.0
C      1  0.5143290000000  0.5057120000000  0.4825100000000 1.0
C      1  0.5292060000000  0.4692340000000  0.4435830000000 1.0
C      1  0.4724930000000  0.4633800000000  0.4381700000000 1.0
C      1  0.5011870000000  0.4221770000000  0.5122590000000 1.0
C      1  0.5009460000000  0.5807610000000  0.4573400000000 1.0
C      1  0.5148720000000  0.4742660000000  0.5615380000000 1.0
C      1  0.5360090000000  0.5380760000000  0.5179580000000 1.0
C      1  0.4438700000000  0.5228950000000  0.5166050000000 1.0
C      1  0.4661540000000  0.4606150000000  0.4662040000000 1.0
C      1  0.5466410000000  0.5177160000000  0.5363270000000 1.0
C      1  0.4961780000000  0.5568390000000  0.4431210000000 1.0
END
