TITL C-950531-5884-462 -1.14913086367139e-05 125000 -57.4487310789286 0 0 11 (C1) n - 1
REM
REM in /home/bkarasulu/work/CARBON/AIRSS/Generating-Clusters/EDIP-Nigel-Params/with-SteepDescent/Only-C1/SD-CG/HFTN-CG
REM
REM
REM
REM
REM
REM ./C.cell (11c1c37f851c82e70ff6c80c92926a4b)
REM
REM compiler GCC version 9.2.1 20190827 (Red Hat 9.2.1-1)
REM options -cpp -mtune=generic -march=x86-64 -g -O0 -fpre-include=/usr/include/finclude/math-vector-fortran.h
REM seed -749793999 -1867508969 -1372579962 -1214454760 -615883647 -1736018122 -275926268 -1182139138 -798003259 1342225839 -269955104 1228952989 -1890203433 905716332 1546905995 -539620728 -619427872 -1860683714 1668775505 -40434978 462272286 -362099013 -2000734716 368283519 -1664700658 -413307316 2128268743 -2015661323 -1112357527 739788884 -924203363 -1096109278 878157890
REM
CELL 1.54180   50.00000   50.00000   50.00000   90.00000   90.00000   90.00000
LATT -1
SFAC C  
C      1  0.5226970000000  0.4881310000000  0.5227800000000 1.0
C      1  0.4919130000000  0.5062590000000  0.4904410000000 1.0
C      1  0.4592610000000  0.4590210000000  0.5341110000000 1.0
C      1  0.4453550000000  0.5051900000000  0.4652350000000 1.0
C      1  0.5135600000000  0.5199210000000  0.4776240000000 1.0
C      1  0.4976050000000  0.4876160000000  0.5114080000000 1.0
C      1  0.5453360000000  0.5001610000000  0.5151560000000 1.0
C      1  0.4681960000000  0.5042110000000  0.4767870000000 1.0
C      1  0.5480000000000  0.5171920000000  0.4937030000000 1.0
C      1  0.5308020000000  0.5383990000000  0.4891440000000 1.0
C      1  0.4772730000000  0.4738970000000  0.5236110000000 1.0
END
