TITL C-950530-3293-636 -4.66449411304836e-06 125000 -656.601052902409 0 0 108 (C1) n - 1
REM
REM in /home/bkarasulu/work/CARBON/AIRSS/Generating-Clusters/EDIP-Nigel-Params/with-SteepDescent/Only-C1/SD-CG/HFTN-CG
REM
REM
REM
REM
REM
REM ./C.cell (11c1c37f851c82e70ff6c80c92926a4b)
REM
REM compiler GCC version 9.2.1 20190827 (Red Hat 9.2.1-1)
REM options -cpp -mtune=generic -march=x86-64 -g -O0 -fpre-include=/usr/include/finclude/math-vector-fortran.h
REM seed -1687882749 1353471423 -132645088 -375802171 256088930 -1747300205 183371024 110839367 -2147035342 1053175770 855522050 622482218 -1720625749 -845152123 1314053827 677619496 58396394 1137611080 1794759568 1106014434 -233569671 164578695 740623852 -2047932648 2053136505 -978633786 782968692 -225646616 848358714 -1213424220 -714236581 1968104704 -1838647834
REM
CELL 1.54180   50.00000   50.00000   50.00000   90.00000   90.00000   90.00000
LATT -1
SFAC C  
C      1  0.5482680000000  0.5394290000000  0.5546030000000 1.0
C      1  0.4146530000000  0.4729700000000  0.5209050000000 1.0
C      1  0.5346630000000  0.5548210000000  0.4590660000000 1.0
C      1  0.4903760000000  0.4759860000000  0.5578940000000 1.0
C      1  0.5048120000000  0.5505590000000  0.5003360000000 1.0
C      1  0.4309430000000  0.4289410000000  0.4867770000000 1.0
C      1  0.5065750000000  0.4449330000000  0.4714040000000 1.0
C      1  0.4830540000000  0.5765410000000  0.5617100000000 1.0
C      1  0.4626710000000  0.4648940000000  0.5675300000000 1.0
C      1  0.5540420000000  0.4564730000000  0.5662910000000 1.0
C      1  0.4118960000000  0.4859080000000  0.5470090000000 1.0
C      1  0.5326210000000  0.4560130000000  0.4642400000000 1.0
C      1  0.4428640000000  0.4773540000000  0.5108770000000 1.0
C      1  0.5741820000000  0.4726420000000  0.5220590000000 1.0
C      1  0.4624940000000  0.5589450000000  0.5543630000000 1.0
C      1  0.5842870000000  0.4847030000000  0.4389140000000 1.0
C      1  0.5974430000000  0.4867250000000  0.5144800000000 1.0
C      1  0.4476420000000  0.5062620000000  0.4667840000000 1.0
C      1  0.5084770000000  0.5563180000000  0.4456520000000 1.0
C      1  0.5540580000000  0.4839260000000  0.5738740000000 1.0
C      1  0.4923080000000  0.5777640000000  0.4563690000000 1.0
C      1  0.4297250000000  0.5461080000000  0.4711210000000 1.0
C      1  0.5594240000000  0.4893230000000  0.4275470000000 1.0
C      1  0.4679220000000  0.4069240000000  0.5164300000000 1.0
C      1  0.5555720000000  0.4462280000000  0.4499980000000 1.0
C      1  0.5043740000000  0.4894640000000  0.5789240000000 1.0
C      1  0.4574790000000  0.5553330000000  0.5248550000000 1.0
C      1  0.4796170000000  0.5147170000000  0.4655170000000 1.0
C      1  0.5942540000000  0.5118090000000  0.5030670000000 1.0
C      1  0.4211630000000  0.5287570000000  0.4501170000000 1.0
C      1  0.5175120000000  0.5099950000000  0.4292740000000 1.0
C      1  0.4072330000000  0.5173720000000  0.5053900000000 1.0
C      1  0.5834680000000  0.5584200000000  0.4779630000000 1.0
C      1  0.4903940000000  0.4140710000000  0.4528790000000 1.0
C      1  0.5372160000000  0.5181470000000  0.4968310000000 1.0
C      1  0.5117180000000  0.4831730000000  0.4194650000000 1.0
C      1  0.4226630000000  0.5119490000000  0.5492570000000 1.0
C      1  0.5170540000000  0.4121960000000  0.5299910000000 1.0
C      1  0.4945990000000  0.4877820000000  0.4714870000000 1.0
C      1  0.5414760000000  0.4790560000000  0.4794690000000 1.0
C      1  0.4379220000000  0.5232540000000  0.4269930000000 1.0
C      1  0.4340250000000  0.4538320000000  0.4745510000000 1.0
C      1  0.4692050000000  0.4179510000000  0.5450440000000 1.0
C      1  0.5325440000000  0.5278590000000  0.5777250000000 1.0
C      1  0.4696890000000  0.5791080000000  0.5102510000000 1.0
C      1  0.4997730000000  0.5800890000000  0.5049640000000 1.0
C      1  0.4192750000000  0.4807230000000  0.4735140000000 1.0
C      1  0.4479760000000  0.4567330000000  0.4494960000000 1.0
C      1  0.5858790000000  0.5239420000000  0.5265500000000 1.0
C      1  0.5328130000000  0.5480260000000  0.4887670000000 1.0
C      1  0.5230850000000  0.5011370000000  0.4722270000000 1.0
C      1  0.5752120000000  0.4515600000000  0.4744600000000 1.0
C      1  0.5299340000000  0.4746540000000  0.5070180000000 1.0
C      1  0.5391520000000  0.4688240000000  0.4228680000000 1.0
C      1  0.4464500000000  0.5682710000000  0.4630680000000 1.0
C      1  0.5254720000000  0.5584240000000  0.5438320000000 1.0
C      1  0.4546300000000  0.5665800000000  0.4363100000000 1.0
C      1  0.5173680000000  0.5131510000000  0.5241480000000 1.0
C      1  0.4987720000000  0.4233680000000  0.5511510000000 1.0
C      1  0.5037420000000  0.4144390000000  0.4789300000000 1.0
C      1  0.5553130000000  0.5375980000000  0.4460180000000 1.0
C      1  0.4895260000000  0.4382590000000  0.4376950000000 1.0
C      1  0.4642060000000  0.4639280000000  0.5264150000000 1.0
C      1  0.5449350000000  0.5124980000000  0.4357970000000 1.0
C      1  0.4507110000000  0.4976770000000  0.4236360000000 1.0
C      1  0.4415880000000  0.4859360000000  0.5721670000000 1.0
C      1  0.4632200000000  0.5854560000000  0.4809110000000 1.0
C      1  0.5306200000000  0.4990030000000  0.5816160000000 1.0
C      1  0.4532150000000  0.4435540000000  0.5473090000000 1.0
C      1  0.5078690000000  0.5404130000000  0.5277720000000 1.0
C      1  0.4487100000000  0.5125300000000  0.5605020000000 1.0
C      1  0.5093220000000  0.5683990000000  0.5674550000000 1.0
C      1  0.5742400000000  0.4414160000000  0.5535180000000 1.0
C      1  0.5490030000000  0.5674940000000  0.5043520000000 1.0
C      1  0.5455510000000  0.4107610000000  0.5345310000000 1.0
C      1  0.4024470000000  0.4894040000000  0.4978760000000 1.0
C      1  0.4784920000000  0.4982910000000  0.4120320000000 1.0
C      1  0.4296370000000  0.5566710000000  0.5188050000000 1.0
C      1  0.4552210000000  0.5446070000000  0.4184790000000 1.0
C      1  0.4837570000000  0.5333780000000  0.5887320000000 1.0
C      1  0.4846280000000  0.4519830000000  0.5086610000000 1.0
C      1  0.5730650000000  0.5773740000000  0.4941950000000 1.0
C      1  0.5370950000000  0.4477320000000  0.5122200000000 1.0
C      1  0.5725230000000  0.5104080000000  0.4828110000000 1.0
C      1  0.4992230000000  0.4774000000000  0.5023010000000 1.0
C      1  0.4191180000000  0.5421900000000  0.4976680000000 1.0
C      1  0.5072720000000  0.4511220000000  0.5541600000000 1.0
C      1  0.4903360000000  0.4976620000000  0.5246050000000 1.0
C      1  0.5329940000000  0.5800360000000  0.5245930000000 1.0
C      1  0.4440710000000  0.4123010000000  0.5030220000000 1.0
C      1  0.4825570000000  0.5327660000000  0.4894410000000 1.0
C      1  0.5093620000000  0.5448510000000  0.5852260000000 1.0
C      1  0.4965650000000  0.5289980000000  0.4394740000000 1.0
C      1  0.4615850000000  0.5356040000000  0.5715940000000 1.0
C      1  0.5785790000000  0.4821470000000  0.4670150000000 1.0
C      1  0.5668890000000  0.4468320000000  0.5072990000000 1.0
C      1  0.4437890000000  0.5057920000000  0.4991490000000 1.0
C      1  0.4804380000000  0.5291570000000  0.4141910000000 1.0
C      1  0.5775680000000  0.5343340000000  0.4648260000000 1.0
C      1  0.4348070000000  0.4787700000000  0.4377200000000 1.0
C      1  0.4766260000000  0.4618710000000  0.4487030000000 1.0
C      1  0.5012590000000  0.5929870000000  0.4784120000000 1.0
C      1  0.5702530000000  0.4249490000000  0.5303180000000 1.0
C      1  0.4684300000000  0.5204480000000  0.5124820000000 1.0
C      1  0.4931690000000  0.4218160000000  0.5071170000000 1.0
C      1  0.5515920000000  0.4888520000000  0.5359620000000 1.0
C      1  0.5594030000000  0.5190820000000  0.5349970000000 1.0
C      1  0.5351150000000  0.4504060000000  0.5436370000000 1.0
END
