TITL C-950533-5798-224 2.96966785457396e-07 125000 -163.762298707668 0 0 28 (C1) n - 1
REM
REM in /home/bkarasulu/work/CARBON/AIRSS/Generating-Clusters/EDIP-Nigel-Params/with-SteepDescent/Only-C1/SD-CG/HFTN-CG
REM
REM
REM
REM
REM
REM ./C.cell (11c1c37f851c82e70ff6c80c92926a4b)
REM
REM compiler GCC version 9.2.1 20190827 (Red Hat 9.2.1-1)
REM options -cpp -mtune=generic -march=x86-64 -g -O0 -fpre-include=/usr/include/finclude/math-vector-fortran.h
REM seed -57016916 -1744384404 -21829982 219162112 1356800365 918648250 -2050650967 -678316250 -998791633 1789493165 1503264401 -2011984253 -1049394101 -114564850 -441154402 2131321271 -588792874 -1721987050 -203892863 -868365279 -847184621 1215967705 -1894379273 494129937 -2063243915 1787669267 1455190527 -1032978033 1025033450 177421338 -1292835985 1018361321 -691878923
REM
CELL 1.54180   50.00000   50.00000   50.00000   90.00000   90.00000   90.00000
LATT -1
SFAC C  
C      1  0.4532860000000  0.5219750000000  0.5141470000000 1.0
C      1  0.4691450000000  0.4801940000000  0.4939460000000 1.0
C      1  0.4886390000000  0.4956300000000  0.5361970000000 1.0
C      1  0.4746310000000  0.5210900000000  0.5339650000000 1.0
C      1  0.4831600000000  0.5438690000000  0.5480060000000 1.0
C      1  0.4931890000000  0.5565650000000  0.4810240000000 1.0
C      1  0.5514480000000  0.5035410000000  0.4853270000000 1.0
C      1  0.5321400000000  0.4962390000000  0.4667670000000 1.0
C      1  0.4701710000000  0.4256570000000  0.4435150000000 1.0
C      1  0.4926380000000  0.4820560000000  0.5110510000000 1.0
C      1  0.5574080000000  0.5001540000000  0.5329630000000 1.0
C      1  0.5281130000000  0.4534350000000  0.4915670000000 1.0
C      1  0.4483430000000  0.5454440000000  0.5000490000000 1.0
C      1  0.4666270000000  0.4655380000000  0.4696600000000 1.0
C      1  0.5471660000000  0.4829820000000  0.5522100000000 1.0
C      1  0.5224990000000  0.4688230000000  0.4682270000000 1.0
C      1  0.5007910000000  0.4611530000000  0.4516100000000 1.0
C      1  0.5418920000000  0.4958080000000  0.5101440000000 1.0
C      1  0.5251840000000  0.4665790000000  0.5425290000000 1.0
C      1  0.5220100000000  0.4731300000000  0.5125460000000 1.0
C      1  0.4991540000000  0.5579860000000  0.5314690000000 1.0
C      1  0.5089530000000  0.4878330000000  0.5553950000000 1.0
C      1  0.5052170000000  0.5393900000000  0.4629350000000 1.0
C      1  0.5053810000000  0.5610010000000  0.5055170000000 1.0
C      1  0.5172400000000  0.5166910000000  0.4553470000000 1.0
C      1  0.4810850000000  0.4427410000000  0.4604850000000 1.0
C      1  0.4489840000000  0.4978930000000  0.5008450000000 1.0
C      1  0.4655060000000  0.5566010000000  0.4825580000000 1.0
END
