TITL C-951344-124-507 1.28145893943599e-06 125000 -816.326668231222 0 0 133 (C1) n - 1
REM
REM in /home/bkarasulu/work/CARBON/AIRSS/Generating-Clusters/EDIP-Nigel-Params/with-SteepDescent/Only-C1/SD-CG/HFTN-CG
REM
REM
REM
REM
REM
REM ./C.cell (11c1c37f851c82e70ff6c80c92926a4b)
REM
REM compiler GCC version 9.2.1 20190827 (Red Hat 9.2.1-1)
REM options -cpp -mtune=generic -march=x86-64 -g -O0 -fpre-include=/usr/include/finclude/math-vector-fortran.h
REM seed 1636461384 2073076083 665306441 1561464797 166699739 2049586757 -1998484819 -1673753936 165856559 1530446688 1450299369 -1797592775 304147304 -379504872 -269036034 -1950234951 -514518288 -1708772050 1209671473 581014138 -2089382713 -838309970 1705508957 1796480551 1010985785 -1241003369 2098141864 -1828409950 -1444619771 1020274233 -1979606121 -579584902 1330205627
REM
CELL 1.54180   50.00000   50.00000   50.00000   90.00000   90.00000   90.00000
LATT -1
SFAC C  
C      1  0.5163480000000  0.5183530000000  0.4450470000000 1.0
C      1  0.5968980000000  0.5296870000000  0.4821300000000 1.0
C      1  0.4969130000000  0.5384700000000  0.4561990000000 1.0
C      1  0.4734400000000  0.5941570000000  0.4965350000000 1.0
C      1  0.4336170000000  0.4947850000000  0.4526130000000 1.0
C      1  0.4820140000000  0.4609700000000  0.4186660000000 1.0
C      1  0.5734420000000  0.4312520000000  0.4982800000000 1.0
C      1  0.5333700000000  0.4137670000000  0.5361050000000 1.0
C      1  0.5469130000000  0.5313680000000  0.4250400000000 1.0
C      1  0.4383610000000  0.4751650000000  0.4322230000000 1.0
C      1  0.4135010000000  0.5200030000000  0.5599270000000 1.0
C      1  0.5767180000000  0.4933470000000  0.4562450000000 1.0
C      1  0.5599470000000  0.4256810000000  0.5433980000000 1.0
C      1  0.5338400000000  0.4028830000000  0.5091930000000 1.0
C      1  0.5695640000000  0.5395520000000  0.5326450000000 1.0
C      1  0.5431420000000  0.4103220000000  0.4529860000000 1.0
C      1  0.5122570000000  0.5699300000000  0.4297630000000 1.0
C      1  0.5039180000000  0.5940490000000  0.4983760000000 1.0
C      1  0.5269840000000  0.4507770000000  0.4330920000000 1.0
C      1  0.5464940000000  0.5013040000000  0.4178570000000 1.0
C      1  0.5548030000000  0.5666740000000  0.4616080000000 1.0
C      1  0.5238390000000  0.5150530000000  0.5889650000000 1.0
C      1  0.5205100000000  0.5486190000000  0.5206250000000 1.0
C      1  0.4777820000000  0.4325310000000  0.5901620000000 1.0
C      1  0.5096000000000  0.4607290000000  0.4751540000000 1.0
C      1  0.5116330000000  0.4634600000000  0.4112370000000 1.0
C      1  0.5317980000000  0.4780460000000  0.4671640000000 1.0
C      1  0.4775890000000  0.4976910000000  0.4579200000000 1.0
C      1  0.4292190000000  0.4403500000000  0.4877570000000 1.0
C      1  0.5345950000000  0.5014460000000  0.5430420000000 1.0
C      1  0.4778020000000  0.5588790000000  0.5873140000000 1.0
C      1  0.5033550000000  0.4292770000000  0.5475380000000 1.0
C      1  0.4736660000000  0.4821620000000  0.5928120000000 1.0
C      1  0.5235440000000  0.4899960000000  0.4010470000000 1.0
C      1  0.5204030000000  0.5630130000000  0.5465000000000 1.0
C      1  0.4158120000000  0.4648380000000  0.4867320000000 1.0
C      1  0.5345150000000  0.4892560000000  0.5991920000000 1.0
C      1  0.4166680000000  0.5067950000000  0.5331610000000 1.0
C      1  0.4536620000000  0.4560480000000  0.5569730000000 1.0
C      1  0.5073640000000  0.4411150000000  0.4534540000000 1.0
C      1  0.5979020000000  0.5119520000000  0.5041300000000 1.0
C      1  0.5256130000000  0.5765730000000  0.4570380000000 1.0
C      1  0.5815760000000  0.4749570000000  0.4784810000000 1.0
C      1  0.4343560000000  0.5809120000000  0.4652170000000 1.0
C      1  0.5595560000000  0.4067950000000  0.4981140000000 1.0
C      1  0.4780180000000  0.4469420000000  0.4458340000000 1.0
C      1  0.4960810000000  0.5023620000000  0.4810620000000 1.0
C      1  0.5175040000000  0.4651270000000  0.5239100000000 1.0
C      1  0.5586440000000  0.5345910000000  0.5593640000000 1.0
C      1  0.5374150000000  0.6116970000000  0.4905790000000 1.0
C      1  0.4200160000000  0.5609850000000  0.5284280000000 1.0
C      1  0.4449520000000  0.4615310000000  0.5296310000000 1.0
C      1  0.4343810000000  0.5216280000000  0.4109250000000 1.0
C      1  0.4743510000000  0.4632370000000  0.4932740000000 1.0
C      1  0.5250480000000  0.5486360000000  0.4137640000000 1.0
C      1  0.5214910000000  0.4963780000000  0.5171300000000 1.0
C      1  0.4203780000000  0.5096270000000  0.4318010000000 1.0
C      1  0.5078180000000  0.5278180000000  0.6084620000000 1.0
C      1  0.4678850000000  0.4693300000000  0.4644540000000 1.0
C      1  0.4536830000000  0.5154210000000  0.5459530000000 1.0
C      1  0.5004880000000  0.5196640000000  0.5216570000000 1.0
C      1  0.5143780000000  0.4466730000000  0.4999480000000 1.0
C      1  0.5104750000000  0.5372940000000  0.3930130000000 1.0
C      1  0.4678940000000  0.5406480000000  0.4310360000000 1.0
C      1  0.4619620000000  0.5272910000000  0.4603640000000 1.0
C      1  0.4974660000000  0.4776630000000  0.5688080000000 1.0
C      1  0.5559370000000  0.4836000000000  0.4385210000000 1.0
C      1  0.4969700000000  0.5011890000000  0.4277920000000 1.0
C      1  0.5504430000000  0.5168080000000  0.4909200000000 1.0
C      1  0.5169200000000  0.4148200000000  0.4640260000000 1.0
C      1  0.4865470000000  0.5803130000000  0.5432310000000 1.0
C      1  0.5060550000000  0.5641390000000  0.4996690000000 1.0
C      1  0.4233260000000  0.4921740000000  0.4808670000000 1.0
C      1  0.4020320000000  0.5123770000000  0.4843880000000 1.0
C      1  0.5607680000000  0.5673630000000  0.4911780000000 1.0
C      1  0.5750620000000  0.5120440000000  0.5735330000000 1.0
C      1  0.5088240000000  0.4698950000000  0.6051380000000 1.0
C      1  0.4814340000000  0.5689720000000  0.4293450000000 1.0
C      1  0.4524650000000  0.4417260000000  0.5069940000000 1.0
C      1  0.4616110000000  0.4843090000000  0.5154270000000 1.0
C      1  0.4045580000000  0.5358390000000  0.4689850000000 1.0
C      1  0.5020240000000  0.5110050000000  0.3962220000000 1.0
C      1  0.4682800000000  0.5878260000000  0.4471840000000 1.0
C      1  0.5134860000000  0.5557320000000  0.4733290000000 1.0
C      1  0.5487570000000  0.4302110000000  0.4319130000000 1.0
C      1  0.5200850000000  0.4346540000000  0.5725740000000 1.0
C      1  0.4658980000000  0.4152810000000  0.5174310000000 1.0
C      1  0.4951530000000  0.4600470000000  0.5428370000000 1.0
C      1  0.4565180000000  0.5308800000000  0.4958630000000 1.0
C      1  0.4659880000000  0.5814750000000  0.5218680000000 1.0
C      1  0.4785360000000  0.5577930000000  0.5592750000000 1.0
C      1  0.4600160000000  0.5102430000000  0.4085810000000 1.0
C      1  0.5939630000000  0.5230320000000  0.5307580000000 1.0
C      1  0.4769580000000  0.4135650000000  0.5460650000000 1.0
C      1  0.5723140000000  0.4357200000000  0.4488420000000 1.0
C      1  0.4614370000000  0.5804610000000  0.4735890000000 1.0
C      1  0.4491120000000  0.5562200000000  0.5197970000000 1.0
C      1  0.5122710000000  0.4166020000000  0.4938260000000 1.0
C      1  0.4574140000000  0.5442580000000  0.5452690000000 1.0
C      1  0.4600850000000  0.4810620000000  0.4142470000000 1.0
C      1  0.4007220000000  0.5203530000000  0.5121010000000 1.0
C      1  0.5718660000000  0.4479230000000  0.4750410000000 1.0
C      1  0.5504650000000  0.5433750000000  0.5086770000000 1.0
C      1  0.4003600000000  0.5483660000000  0.5132840000000 1.0
C      1  0.5041560000000  0.4421250000000  0.5948380000000 1.0
C      1  0.5743240000000  0.4437830000000  0.5247350000000 1.0
C      1  0.5177420000000  0.6027170000000  0.4709750000000 1.0
C      1  0.4799150000000  0.5010890000000  0.5375190000000 1.0
C      1  0.4422010000000  0.5067460000000  0.5735660000000 1.0
C      1  0.5364680000000  0.5512070000000  0.5664200000000 1.0
C      1  0.4866830000000  0.5244680000000  0.4966050000000 1.0
C      1  0.5245360000000  0.5049660000000  0.4722640000000 1.0
C      1  0.5384080000000  0.4559890000000  0.5469200000000 1.0
C      1  0.4139920000000  0.5479790000000  0.5532740000000 1.0
C      1  0.4618740000000  0.4293170000000  0.5666880000000 1.0
C      1  0.5776220000000  0.4752960000000  0.5311040000000 1.0
C      1  0.5550090000000  0.5930410000000  0.5005680000000 1.0
C      1  0.4173180000000  0.5593310000000  0.4653470000000 1.0
C      1  0.5725330000000  0.5207910000000  0.4685890000000 1.0
C      1  0.5767660000000  0.4909730000000  0.5035290000000 1.0
C      1  0.4727140000000  0.4052020000000  0.4708030000000 1.0
C      1  0.4467980000000  0.4751700000000  0.5777400000000 1.0
C      1  0.4416220000000  0.5044670000000  0.5037140000000 1.0
C      1  0.4838880000000  0.5329550000000  0.5955750000000 1.0
C      1  0.5534930000000  0.4803350000000  0.5513460000000 1.0
C      1  0.4645720000000  0.5117880000000  0.5953170000000 1.0
C      1  0.5624920000000  0.5410520000000  0.4489630000000 1.0
C      1  0.5108780000000  0.5049650000000  0.5621320000000 1.0
C      1  0.4607530000000  0.4225420000000  0.4524220000000 1.0
C      1  0.5599970000000  0.4852820000000  0.5819790000000 1.0
C      1  0.5932500000000  0.5029040000000  0.5519810000000 1.0
C      1  0.4842310000000  0.4047380000000  0.4965070000000 1.0
C      1  0.4359320000000  0.4295990000000  0.4629400000000 1.0
END
