TITL C-950521-2237-213 -6.57418816413599e-07 125000 -602.521118967591 0 0 98 (C1) n - 1
REM
REM in /home/bkarasulu/work/CARBON/AIRSS/Generating-Clusters/EDIP-Nigel-Params/with-SteepDescent/Only-C1/SD-CG/HFTN-CG
REM
REM
REM
REM
REM
REM ./C.cell (11c1c37f851c82e70ff6c80c92926a4b)
REM
REM compiler GCC version 9.2.1 20190827 (Red Hat 9.2.1-1)
REM options -cpp -mtune=generic -march=x86-64 -g -O0 -fpre-include=/usr/include/finclude/math-vector-fortran.h
REM seed -1475161017 847107842 -855708440 -1559759370 -1971801060 1067744280 38383261 -889308073 74581297 -575132203 -1071108507 -230236772 1951890980 1121415123 1350683584 1788477709 -580594959 -1177749605 1143101108 -542935901 1410062012 -1626571829 1987452381 -127108526 1695897486 -1144611987 1148591868 311814707 -760662189 -2061328842 566320156 -346657194 60321814
REM
CELL 1.54180   50.00000   50.00000   50.00000   90.00000   90.00000   90.00000
LATT -1
SFAC C  
C      1  0.4636280000000  0.5702670000000  0.4699490000000 1.0
C      1  0.4771230000000  0.4570960000000  0.5009890000000 1.0
C      1  0.5793710000000  0.5030030000000  0.5615790000000 1.0
C      1  0.4126850000000  0.5171670000000  0.5299110000000 1.0
C      1  0.5657680000000  0.4802680000000  0.4479140000000 1.0
C      1  0.5385700000000  0.4785220000000  0.5534470000000 1.0
C      1  0.5592310000000  0.5432320000000  0.5473930000000 1.0
C      1  0.4889670000000  0.4565450000000  0.4353040000000 1.0
C      1  0.5296400000000  0.5297780000000  0.4951800000000 1.0
C      1  0.5638850000000  0.5103580000000  0.4534420000000 1.0
C      1  0.5687710000000  0.4518360000000  0.4941190000000 1.0
C      1  0.5284600000000  0.4843600000000  0.4712550000000 1.0
C      1  0.4504430000000  0.5548100000000  0.4494740000000 1.0
C      1  0.5912240000000  0.5109710000000  0.5348830000000 1.0
C      1  0.4401500000000  0.5434840000000  0.5396650000000 1.0
C      1  0.4229390000000  0.4822350000000  0.4870620000000 1.0
C      1  0.4442430000000  0.4927480000000  0.5582650000000 1.0
C      1  0.5355520000000  0.5586530000000  0.5412340000000 1.0
C      1  0.4487830000000  0.4955040000000  0.4181950000000 1.0
C      1  0.4785630000000  0.5107780000000  0.5359210000000 1.0
C      1  0.4395320000000  0.5485070000000  0.5096300000000 1.0
C      1  0.5492690000000  0.4843110000000  0.4966100000000 1.0
C      1  0.4780130000000  0.4999910000000  0.4116100000000 1.0
C      1  0.5266540000000  0.5195460000000  0.5223950000000 1.0
C      1  0.5314300000000  0.5651020000000  0.5121110000000 1.0
C      1  0.4802280000000  0.4511170000000  0.5502910000000 1.0
C      1  0.5171110000000  0.5703670000000  0.4508190000000 1.0
C      1  0.5145340000000  0.4249160000000  0.5242550000000 1.0
C      1  0.5418560000000  0.4197160000000  0.4714470000000 1.0
C      1  0.4774400000000  0.5271550000000  0.5762600000000 1.0
C      1  0.4595050000000  0.4495880000000  0.4804450000000 1.0
C      1  0.5003620000000  0.5329590000000  0.5315570000000 1.0
C      1  0.5306210000000  0.5132050000000  0.5787160000000 1.0
C      1  0.4976900000000  0.5370030000000  0.4562330000000 1.0
C      1  0.5212580000000  0.5177010000000  0.4250940000000 1.0
C      1  0.4415510000000  0.4737110000000  0.4386090000000 1.0
C      1  0.5260500000000  0.4518140000000  0.5652360000000 1.0
C      1  0.5060770000000  0.4371890000000  0.5490850000000 1.0
C      1  0.5397310000000  0.5267860000000  0.4466610000000 1.0
C      1  0.5156340000000  0.4470720000000  0.4451820000000 1.0
C      1  0.5573340000000  0.5222600000000  0.5683050000000 1.0
C      1  0.4633080000000  0.5614420000000  0.4977650000000 1.0
C      1  0.5385420000000  0.5531670000000  0.4589350000000 1.0
C      1  0.4360070000000  0.5195550000000  0.4270820000000 1.0
C      1  0.4090210000000  0.4980960000000  0.5079560000000 1.0
C      1  0.4611300000000  0.5047550000000  0.5086980000000 1.0
C      1  0.4239320000000  0.5127280000000  0.5556480000000 1.0
C      1  0.5074650000000  0.5310170000000  0.5750840000000 1.0
C      1  0.5032800000000  0.4949610000000  0.5503070000000 1.0
C      1  0.4918490000000  0.5879860000000  0.5306640000000 1.0
C      1  0.4539440000000  0.4806340000000  0.5324720000000 1.0
C      1  0.5042330000000  0.5758140000000  0.5081830000000 1.0
C      1  0.5763910000000  0.5145030000000  0.4794000000000 1.0
C      1  0.4662080000000  0.5476690000000  0.5557480000000 1.0
C      1  0.5514460000000  0.5580750000000  0.4869220000000 1.0
C      1  0.4163830000000  0.5131240000000  0.4472740000000 1.0
C      1  0.5691280000000  0.4755990000000  0.5561520000000 1.0
C      1  0.4322080000000  0.5249960000000  0.4926940000000 1.0
C      1  0.5114420000000  0.4675770000000  0.5864110000000 1.0
C      1  0.4577920000000  0.4366650000000  0.5350800000000 1.0
C      1  0.4896670000000  0.5728590000000  0.4413820000000 1.0
C      1  0.5911690000000  0.4910820000000  0.4886860000000 1.0
C      1  0.4222050000000  0.5571310000000  0.4541520000000 1.0
C      1  0.5413410000000  0.4203800000000  0.5180760000000 1.0
C      1  0.5315250000000  0.4898760000000  0.5235130000000 1.0
C      1  0.4655990000000  0.4166810000000  0.5147350000000 1.0
C      1  0.5817530000000  0.4675480000000  0.4722600000000 1.0
C      1  0.4867400000000  0.5695770000000  0.5517350000000 1.0
C      1  0.4371050000000  0.4560090000000  0.5244130000000 1.0
C      1  0.5171270000000  0.4347800000000  0.4723530000000 1.0
C      1  0.4937370000000  0.4107500000000  0.5092320000000 1.0
C      1  0.5008110000000  0.5295050000000  0.4856230000000 1.0
C      1  0.5122320000000  0.5569500000000  0.5607570000000 1.0
C      1  0.4208640000000  0.4859050000000  0.4575060000000 1.0
C      1  0.5836890000000  0.4641560000000  0.5338770000000 1.0
C      1  0.4663580000000  0.4677270000000  0.4546060000000 1.0
C      1  0.4786400000000  0.5521370000000  0.4220420000000 1.0
C      1  0.4732310000000  0.4955040000000  0.4641200000000 1.0
C      1  0.4164730000000  0.5333630000000  0.4679360000000 1.0
C      1  0.4331260000000  0.4559860000000  0.4945040000000 1.0
C      1  0.5201630000000  0.4625280000000  0.4905810000000 1.0
C      1  0.5347230000000  0.4722230000000  0.4442570000000 1.0
C      1  0.4848520000000  0.5009990000000  0.4900050000000 1.0
C      1  0.4897230000000  0.5501370000000  0.5060100000000 1.0
C      1  0.5728680000000  0.5384710000000  0.4958180000000 1.0
C      1  0.4935170000000  0.5263230000000  0.4142680000000 1.0
C      1  0.4677930000000  0.5209710000000  0.4488560000000 1.0
C      1  0.5549960000000  0.4267450000000  0.4946400000000 1.0
C      1  0.4670970000000  0.4976300000000  0.5764550000000 1.0
C      1  0.4881490000000  0.4758700000000  0.5686060000000 1.0
C      1  0.4942340000000  0.4146450000000  0.4800780000000 1.0
C      1  0.5783260000000  0.5359230000000  0.5254780000000 1.0
C      1  0.5270250000000  0.4897050000000  0.5934730000000 1.0
C      1  0.5230150000000  0.4885140000000  0.4216220000000 1.0
C      1  0.4656200000000  0.4210450000000  0.4764240000000 1.0
C      1  0.4964260000000  0.4771960000000  0.4148820000000 1.0
C      1  0.4965220000000  0.4756870000000  0.5009020000000 1.0
C      1  0.5879710000000  0.4874850000000  0.5179350000000 1.0
END
