TITL C-951338-5626-294 1.22816635993963e-07 125000 -961.232644695877 0 0 154 (C1) n - 1
REM
REM in /home/bkarasulu/work/CARBON/AIRSS/Generating-Clusters/EDIP-Nigel-Params/with-SteepDescent/Only-C1/SD-CG/HFTN-CG
REM
REM
REM
REM
REM
REM ./C.cell (11c1c37f851c82e70ff6c80c92926a4b)
REM
REM compiler GCC version 9.2.1 20190827 (Red Hat 9.2.1-1)
REM options -cpp -mtune=generic -march=x86-64 -g -O0 -fpre-include=/usr/include/finclude/math-vector-fortran.h
REM seed -68030910 2051741171 -110425558 1364027639 -1926202020 1208543252 1982847205 -695252548 -1458267680 -1480871621 1173169406 -1797973271 964331148 1714786400 761342993 -1431516458 1989817350 -1250955676 -1452334959 2043151545 1294127127 1375503689 491320342 -1469547023 1877922340 -195216983 -2040809117 -1634449777 1040393769 -900710445 1604338026 948328654 1307888862
REM
CELL 1.54180   50.00000   50.00000   50.00000   90.00000   90.00000   90.00000
LATT -1
SFAC C  
C      1  0.5132010000000  0.4556970000000  0.4619650000000 1.0
C      1  0.5586100000000  0.5913290000000  0.4770310000000 1.0
C      1  0.5627080000000  0.4530160000000  0.4584130000000 1.0
C      1  0.4202550000000  0.5115830000000  0.4742290000000 1.0
C      1  0.4693410000000  0.4027540000000  0.4969070000000 1.0
C      1  0.4549210000000  0.4369420000000  0.5210680000000 1.0
C      1  0.4722560000000  0.5080780000000  0.5665590000000 1.0
C      1  0.5276940000000  0.3954160000000  0.5212430000000 1.0
C      1  0.5359200000000  0.4664340000000  0.5448220000000 1.0
C      1  0.5646930000000  0.4407600000000  0.5104800000000 1.0
C      1  0.4129590000000  0.5400490000000  0.4655680000000 1.0
C      1  0.5167130000000  0.4601530000000  0.5680130000000 1.0
C      1  0.4245690000000  0.4203560000000  0.5024810000000 1.0
C      1  0.5188850000000  0.4332140000000  0.5821420000000 1.0
C      1  0.4463440000000  0.5908370000000  0.4930140000000 1.0
C      1  0.4773280000000  0.5541760000000  0.5611630000000 1.0
C      1  0.4089440000000  0.5590010000000  0.5053590000000 1.0
C      1  0.4785680000000  0.5109440000000  0.3845040000000 1.0
C      1  0.4675830000000  0.5810000000000  0.5470260000000 1.0
C      1  0.4497740000000  0.4246610000000  0.4583610000000 1.0
C      1  0.5281660000000  0.5126130000000  0.5987000000000 1.0
C      1  0.5624510000000  0.5007030000000  0.4984240000000 1.0
C      1  0.5341570000000  0.4120100000000  0.4520740000000 1.0
C      1  0.5355700000000  0.4257860000000  0.5575790000000 1.0
C      1  0.5596860000000  0.4616650000000  0.4298030000000 1.0
C      1  0.5042560000000  0.5680690000000  0.4176370000000 1.0
C      1  0.5228170000000  0.5409010000000  0.5881160000000 1.0
C      1  0.4405560000000  0.5722340000000  0.5378140000000 1.0
C      1  0.5981200000000  0.4927060000000  0.4675190000000 1.0
C      1  0.5456380000000  0.5405160000000  0.4245030000000 1.0
C      1  0.5391880000000  0.4624680000000  0.4744200000000 1.0
C      1  0.4800200000000  0.4998420000000  0.4580420000000 1.0
C      1  0.4153140000000  0.5087680000000  0.5738270000000 1.0
C      1  0.4267020000000  0.5354700000000  0.5720340000000 1.0
C      1  0.4831460000000  0.4715690000000  0.4505650000000 1.0
C      1  0.5195190000000  0.5075640000000  0.5555540000000 1.0
C      1  0.5238380000000  0.5832020000000  0.4355410000000 1.0
C      1  0.4952910000000  0.4519500000000  0.5139900000000 1.0
C      1  0.4706520000000  0.5891410000000  0.4532880000000 1.0
C      1  0.5768500000000  0.5933930000000  0.4996310000000 1.0
C      1  0.4509550000000  0.4756750000000  0.4911200000000 1.0
C      1  0.5577560000000  0.5639550000000  0.4667240000000 1.0
C      1  0.5527810000000  0.4972110000000  0.5872550000000 1.0
C      1  0.5189060000000  0.5409190000000  0.4111000000000 1.0
C      1  0.5265080000000  0.4644160000000  0.4009230000000 1.0
C      1  0.4906220000000  0.4297640000000  0.4293230000000 1.0
C      1  0.4759820000000  0.4134050000000  0.4490700000000 1.0
C      1  0.5114140000000  0.5485530000000  0.4648910000000 1.0
C      1  0.3952700000000  0.5543600000000  0.4813840000000 1.0
C      1  0.4201190000000  0.4695950000000  0.4917970000000 1.0
C      1  0.4737260000000  0.4060000000000  0.5739500000000 1.0
C      1  0.5270380000000  0.5047140000000  0.4538030000000 1.0
C      1  0.5101060000000  0.5014860000000  0.5016590000000 1.0
C      1  0.5527820000000  0.5663290000000  0.5125860000000 1.0
C      1  0.4424910000000  0.4338920000000  0.5486710000000 1.0
C      1  0.4610120000000  0.5410430000000  0.4746340000000 1.0
C      1  0.4381580000000  0.5553000000000  0.4590090000000 1.0
C      1  0.4206280000000  0.5534950000000  0.5499590000000 1.0
C      1  0.5625100000000  0.4705490000000  0.5821040000000 1.0
C      1  0.4499330000000  0.5112740000000  0.4878540000000 1.0
C      1  0.4444270000000  0.5130530000000  0.5241840000000 1.0
C      1  0.5618040000000  0.5146070000000  0.4285030000000 1.0
C      1  0.4130990000000  0.4450820000000  0.5096370000000 1.0
C      1  0.5801780000000  0.4657870000000  0.4995430000000 1.0
C      1  0.5190770000000  0.4346580000000  0.4395170000000 1.0
C      1  0.5847490000000  0.5663930000000  0.5123290000000 1.0
C      1  0.4581160000000  0.5305870000000  0.5519030000000 1.0
C      1  0.4435560000000  0.5850420000000  0.4653200000000 1.0
C      1  0.4042010000000  0.4976360000000  0.5491020000000 1.0
C      1  0.4928860000000  0.4453360000000  0.4847230000000 1.0
C      1  0.4695130000000  0.5598600000000  0.4967950000000 1.0
C      1  0.4681800000000  0.4610280000000  0.5723870000000 1.0
C      1  0.5406360000000  0.5757800000000  0.5383740000000 1.0
C      1  0.4055050000000  0.4696160000000  0.5489600000000 1.0
C      1  0.5762050000000  0.5168450000000  0.4558450000000 1.0
C      1  0.5166830000000  0.4129040000000  0.5393360000000 1.0
C      1  0.4895620000000  0.4026670000000  0.4740290000000 1.0
C      1  0.4838270000000  0.5438660000000  0.4529200000000 1.0
C      1  0.5304390000000  0.6020980000000  0.4809340000000 1.0
C      1  0.5125420000000  0.5843900000000  0.4990670000000 1.0
C      1  0.4915210000000  0.5458730000000  0.5890410000000 1.0
C      1  0.5833710000000  0.5599320000000  0.5693690000000 1.0
C      1  0.4867870000000  0.5824260000000  0.4794460000000 1.0
C      1  0.5009310000000  0.5508030000000  0.5436140000000 1.0
C      1  0.5631710000000  0.4380720000000  0.5435630000000 1.0
C      1  0.4349210000000  0.4907430000000  0.4278970000000 1.0
C      1  0.5113950000000  0.5777630000000  0.5419480000000 1.0
C      1  0.4058730000000  0.4983270000000  0.4982370000000 1.0
C      1  0.5148730000000  0.5513380000000  0.4945650000000 1.0
C      1  0.4567260000000  0.4065030000000  0.5515260000000 1.0
C      1  0.4127290000000  0.5128860000000  0.5244540000000 1.0
C      1  0.4996280000000  0.4992050000000  0.3991090000000 1.0
C      1  0.5902670000000  0.5185990000000  0.5059170000000 1.0
C      1  0.4947210000000  0.4190790000000  0.5849330000000 1.0
C      1  0.5611570000000  0.4219840000000  0.4620130000000 1.0
C      1  0.4906760000000  0.4286660000000  0.5344670000000 1.0
C      1  0.4041850000000  0.5417950000000  0.5281390000000 1.0
C      1  0.4981020000000  0.4703930000000  0.4015260000000 1.0
C      1  0.5898460000000  0.5064570000000  0.5539030000000 1.0
C      1  0.5911260000000  0.5542080000000  0.5414680000000 1.0
C      1  0.4453260000000  0.4133710000000  0.4853380000000 1.0
C      1  0.4753430000000  0.5665750000000  0.4338960000000 1.0
C      1  0.5356480000000  0.5585060000000  0.4483230000000 1.0
C      1  0.5134420000000  0.5997010000000  0.4568860000000 1.0
C      1  0.4674820000000  0.4565180000000  0.4720310000000 1.0
C      1  0.4461750000000  0.5311350000000  0.4135980000000 1.0
C      1  0.5875780000000  0.4646740000000  0.4710860000000 1.0
C      1  0.4881230000000  0.5092080000000  0.5186580000000 1.0
C      1  0.5669910000000  0.5140280000000  0.5691470000000 1.0
C      1  0.4466250000000  0.4632810000000  0.4230490000000 1.0
C      1  0.5568960000000  0.5581970000000  0.5812240000000 1.0
C      1  0.4525210000000  0.4849030000000  0.5669760000000 1.0
C      1  0.4907180000000  0.4652800000000  0.5550110000000 1.0
C      1  0.4596950000000  0.4677880000000  0.5179740000000 1.0
C      1  0.4922440000000  0.5401920000000  0.5150930000000 1.0
C      1  0.5808680000000  0.5457220000000  0.4658200000000 1.0
C      1  0.5419610000000  0.5395980000000  0.5002140000000 1.0
C      1  0.4704110000000  0.5318980000000  0.4003900000000 1.0
C      1  0.5195430000000  0.4002480000000  0.4740670000000 1.0
C      1  0.4151310000000  0.4451460000000  0.5392420000000 1.0
C      1  0.4931000000000  0.4970080000000  0.5470160000000 1.0
C      1  0.5222690000000  0.4629560000000  0.5188540000000 1.0
C      1  0.4313440000000  0.5763090000000  0.5113680000000 1.0
C      1  0.5098860000000  0.5143230000000  0.4240110000000 1.0
C      1  0.5380070000000  0.5092660000000  0.5148800000000 1.0
C      1  0.4282630000000  0.5100790000000  0.4085220000000 1.0
C      1  0.5502150000000  0.4881550000000  0.4202510000000 1.0
C      1  0.5431980000000  0.4968430000000  0.5442340000000 1.0
C      1  0.5049890000000  0.5056370000000  0.4727360000000 1.0
C      1  0.4341110000000  0.4476720000000  0.4452020000000 1.0
C      1  0.5886530000000  0.4803640000000  0.5422040000000 1.0
C      1  0.5632950000000  0.4141680000000  0.4914930000000 1.0
C      1  0.6097200000000  0.4986440000000  0.4956580000000 1.0
C      1  0.4700020000000  0.3971740000000  0.5259410000000 1.0
C      1  0.4173220000000  0.4913850000000  0.4510880000000 1.0
C      1  0.5514910000000  0.5131690000000  0.4717960000000 1.0
C      1  0.5225440000000  0.5361940000000  0.5584250000000 1.0
C      1  0.5387240000000  0.3968390000000  0.4960340000000 1.0
C      1  0.4824230000000  0.5194470000000  0.4351410000000 1.0
C      1  0.4450150000000  0.4850450000000  0.5370760000000 1.0
C      1  0.4783500000000  0.4580930000000  0.4229310000000 1.0
C      1  0.5378830000000  0.4456020000000  0.4186100000000 1.0
C      1  0.4310160000000  0.4892790000000  0.5866630000000 1.0
C      1  0.6028270000000  0.4751730000000  0.5160840000000 1.0
C      1  0.5766820000000  0.4598960000000  0.5594640000000 1.0
C      1  0.4840860000000  0.5174350000000  0.5932370000000 1.0
C      1  0.5387710000000  0.4501260000000  0.5003470000000 1.0
C      1  0.4161990000000  0.4645180000000  0.4621030000000 1.0
C      1  0.5035550000000  0.5013010000000  0.6062430000000 1.0
C      1  0.4903210000000  0.5935450000000  0.5293290000000 1.0
C      1  0.4457940000000  0.5548550000000  0.4295690000000 1.0
C      1  0.5963830000000  0.5262180000000  0.5345190000000 1.0
C      1  0.5485670000000  0.5509550000000  0.5530890000000 1.0
C      1  0.5931880000000  0.5451700000000  0.4920930000000 1.0
END
