TITL C-950529-3362-477 -4.09160222496597e-06 125000 -747.405180049681 0 0 122 (C1) n - 1
REM
REM in /home/bkarasulu/work/CARBON/AIRSS/Generating-Clusters/EDIP-Nigel-Params/with-SteepDescent/Only-C1/SD-CG/HFTN-CG
REM
REM
REM
REM
REM
REM ./C.cell (11c1c37f851c82e70ff6c80c92926a4b)
REM
REM compiler GCC version 9.2.1 20190827 (Red Hat 9.2.1-1)
REM options -cpp -mtune=generic -march=x86-64 -g -O0 -fpre-include=/usr/include/finclude/math-vector-fortran.h
REM seed 1246530688 2087733809 -792967086 -132528973 -50980980 2028330008 -2088284129 757127680 1822770285 -1048497852 -1687561726 95468182 -493094463 -345369033 1652019295 -612658228 1126919386 -2015602535 238824010 -1514057329 558219315 -698004669 697286371 -1866885876 732182370 297383027 -1150248316 -1788070875 368394209 1715481289 -1881970473 -136778904 -1737781338
REM
CELL 1.54180   50.00000   50.00000   50.00000   90.00000   90.00000   90.00000
LATT -1
SFAC C  
C      1  0.5381250000000  0.5385240000000  0.5387350000000 1.0
C      1  0.5668690000000  0.5267280000000  0.4514760000000 1.0
C      1  0.4935950000000  0.4692010000000  0.5892990000000 1.0
C      1  0.4841640000000  0.5293240000000  0.4587940000000 1.0
C      1  0.4651490000000  0.5300230000000  0.5455610000000 1.0
C      1  0.4101100000000  0.5261350000000  0.5233880000000 1.0
C      1  0.4141750000000  0.5031890000000  0.4549000000000 1.0
C      1  0.4344420000000  0.4858100000000  0.5521780000000 1.0
C      1  0.4677350000000  0.5495640000000  0.5689790000000 1.0
C      1  0.4202150000000  0.4629130000000  0.4883310000000 1.0
C      1  0.5429920000000  0.4815200000000  0.5074680000000 1.0
C      1  0.5072810000000  0.5753010000000  0.5068600000000 1.0
C      1  0.6020690000000  0.5241210000000  0.4956670000000 1.0
C      1  0.4574620000000  0.4924630000000  0.4099940000000 1.0
C      1  0.4683250000000  0.4415270000000  0.5145560000000 1.0
C      1  0.5531010000000  0.5984880000000  0.4726150000000 1.0
C      1  0.4896400000000  0.5008590000000  0.4384960000000 1.0
C      1  0.4614350000000  0.4697720000000  0.4251630000000 1.0
C      1  0.5662510000000  0.5413540000000  0.5265820000000 1.0
C      1  0.4497470000000  0.4175020000000  0.5432480000000 1.0
C      1  0.4701660000000  0.5525780000000  0.4420140000000 1.0
C      1  0.4369530000000  0.4154040000000  0.4814510000000 1.0
C      1  0.5647990000000  0.5078780000000  0.4757720000000 1.0
C      1  0.5115360000000  0.5077920000000  0.4841510000000 1.0
C      1  0.4993980000000  0.5882920000000  0.5652080000000 1.0
C      1  0.4869490000000  0.4130750000000  0.4619820000000 1.0
C      1  0.5406030000000  0.5106100000000  0.4071410000000 1.0
C      1  0.5469310000000  0.5752430000000  0.4566950000000 1.0
C      1  0.5638360000000  0.4604250000000  0.4988310000000 1.0
C      1  0.4659510000000  0.4933870000000  0.5108260000000 1.0
C      1  0.4911530000000  0.4633180000000  0.4832530000000 1.0
C      1  0.5002100000000  0.4369840000000  0.4443580000000 1.0
C      1  0.4643640000000  0.5760800000000  0.5292330000000 1.0
C      1  0.5593930000000  0.4387520000000  0.4555790000000 1.0
C      1  0.5090770000000  0.5578120000000  0.4813440000000 1.0
C      1  0.4806340000000  0.4943020000000  0.5944840000000 1.0
C      1  0.5658250000000  0.4509590000000  0.5422950000000 1.0
C      1  0.5301510000000  0.5949760000000  0.5091780000000 1.0
C      1  0.5148170000000  0.4519950000000  0.5297560000000 1.0
C      1  0.5024970000000  0.4424680000000  0.5809670000000 1.0
C      1  0.5743670000000  0.5330110000000  0.4947850000000 1.0
C      1  0.5134550000000  0.4522130000000  0.4675800000000 1.0
C      1  0.5168470000000  0.4037530000000  0.5196550000000 1.0
C      1  0.4779160000000  0.5419450000000  0.5938690000000 1.0
C      1  0.5735290000000  0.4646840000000  0.4524610000000 1.0
C      1  0.4479310000000  0.5176990000000  0.4166260000000 1.0
C      1  0.4600160000000  0.4955730000000  0.5407740000000 1.0
C      1  0.5328770000000  0.5458640000000  0.5674770000000 1.0
C      1  0.5780300000000  0.4410730000000  0.5186620000000 1.0
C      1  0.4418030000000  0.5494380000000  0.4521590000000 1.0
C      1  0.3997610000000  0.5452770000000  0.4779720000000 1.0
C      1  0.5520290000000  0.4340560000000  0.4841330000000 1.0
C      1  0.4835280000000  0.4799910000000  0.5532470000000 1.0
C      1  0.4325580000000  0.4349580000000  0.5277080000000 1.0
C      1  0.5195240000000  0.5706160000000  0.5684900000000 1.0
C      1  0.4864230000000  0.4517020000000  0.5387170000000 1.0
C      1  0.4882410000000  0.4587750000000  0.4257620000000 1.0
C      1  0.5132390000000  0.5429270000000  0.5231610000000 1.0
C      1  0.5576130000000  0.5842830000000  0.5082530000000 1.0
C      1  0.5227100000000  0.4948200000000  0.4434300000000 1.0
C      1  0.4794400000000  0.5874120000000  0.5061330000000 1.0
C      1  0.4016080000000  0.5170330000000  0.4778180000000 1.0
C      1  0.5378840000000  0.4617620000000  0.4193250000000 1.0
C      1  0.4174480000000  0.5618340000000  0.4929690000000 1.0
C      1  0.4218690000000  0.5513290000000  0.5209550000000 1.0
C      1  0.4824200000000  0.5793420000000  0.4535350000000 1.0
C      1  0.5228390000000  0.4322670000000  0.4863230000000 1.0
C      1  0.4945210000000  0.4866490000000  0.5003320000000 1.0
C      1  0.4623580000000  0.4255810000000  0.4737910000000 1.0
C      1  0.4151130000000  0.4752910000000  0.5352450000000 1.0
C      1  0.4769140000000  0.5742640000000  0.5560340000000 1.0
C      1  0.4942820000000  0.4039850000000  0.5378580000000 1.0
C      1  0.4504130000000  0.5113660000000  0.4930710000000 1.0
C      1  0.4450300000000  0.5596380000000  0.4801050000000 1.0
C      1  0.4222690000000  0.4743810000000  0.4607920000000 1.0
C      1  0.5650400000000  0.5532940000000  0.4627220000000 1.0
C      1  0.4528500000000  0.4936730000000  0.5961160000000 1.0
C      1  0.4948520000000  0.5200080000000  0.5946330000000 1.0
C      1  0.5828430000000  0.5230040000000  0.5451350000000 1.0
C      1  0.5696430000000  0.5160040000000  0.5701520000000 1.0
C      1  0.5202800000000  0.5257990000000  0.5835640000000 1.0
C      1  0.5315350000000  0.4445500000000  0.5750300000000 1.0
C      1  0.5111920000000  0.4737560000000  0.4118000000000 1.0
C      1  0.5386650000000  0.4965780000000  0.4841410000000 1.0
C      1  0.4652240000000  0.5834500000000  0.4789380000000 1.0
C      1  0.5138840000000  0.5033610000000  0.4016600000000 1.0
C      1  0.5703670000000  0.4786830000000  0.5461250000000 1.0
C      1  0.5607950000000  0.4885450000000  0.5706820000000 1.0
C      1  0.4177530000000  0.5089580000000  0.5011900000000 1.0
C      1  0.4839810000000  0.4288530000000  0.5584790000000 1.0
C      1  0.5979780000000  0.4970480000000  0.5030400000000 1.0
C      1  0.4589090000000  0.5393050000000  0.4973670000000 1.0
C      1  0.4689140000000  0.5386860000000  0.4134440000000 1.0
C      1  0.4603960000000  0.5081340000000  0.4632480000000 1.0
C      1  0.4655510000000  0.4535330000000  0.4777820000000 1.0
C      1  0.4962170000000  0.5247120000000  0.4162000000000 1.0
C      1  0.5160840000000  0.5685360000000  0.4535010000000 1.0
C      1  0.5177850000000  0.5342530000000  0.4948380000000 1.0
C      1  0.5347220000000  0.4388320000000  0.4375210000000 1.0
C      1  0.4326160000000  0.4870240000000  0.5797380000000 1.0
C      1  0.5717040000000  0.5697280000000  0.5274930000000 1.0
C      1  0.5417820000000  0.4117370000000  0.5321530000000 1.0
C      1  0.5579200000000  0.5216980000000  0.4251470000000 1.0
C      1  0.5150360000000  0.5453410000000  0.4315110000000 1.0
C      1  0.5434350000000  0.4694950000000  0.5829940000000 1.0
C      1  0.5060010000000  0.4977190000000  0.5433490000000 1.0
C      1  0.5230720000000  0.5251390000000  0.4518340000000 1.0
C      1  0.5822530000000  0.4780960000000  0.4802540000000 1.0
C      1  0.5315360000000  0.6117770000000  0.4858920000000 1.0
C      1  0.4519250000000  0.5490540000000  0.5241440000000 1.0
C      1  0.5166240000000  0.4798200000000  0.5212090000000 1.0
C      1  0.4384540000000  0.5195590000000  0.4456360000000 1.0
C      1  0.5558830000000  0.4793900000000  0.4340370000000 1.0
C      1  0.5379550000000  0.4390150000000  0.5456760000000 1.0
C      1  0.4939640000000  0.5237030000000  0.5351470000000 1.0
C      1  0.5882020000000  0.4969300000000  0.5315250000000 1.0
C      1  0.4273500000000  0.4361300000000  0.4988780000000 1.0
C      1  0.4112580000000  0.4812370000000  0.5083360000000 1.0
C      1  0.4693530000000  0.4090600000000  0.5230340000000 1.0
C      1  0.5082350000000  0.4073980000000  0.4825730000000 1.0
C      1  0.4403980000000  0.4629790000000  0.4424020000000 1.0
C      1  0.5646540000000  0.4149800000000  0.5137170000000 1.0
END
