TITL C-950528-5794-124 -4.2469329582641e-07 125000 -432.727861674671 0 0 71 (C1) n - 1
REM
REM in /home/bkarasulu/work/CARBON/AIRSS/Generating-Clusters/EDIP-Nigel-Params/with-SteepDescent/Only-C1/SD-CG/HFTN-CG
REM
REM
REM
REM
REM
REM ./C.cell (11c1c37f851c82e70ff6c80c92926a4b)
REM
REM compiler GCC version 9.2.1 20190827 (Red Hat 9.2.1-1)
REM options -cpp -mtune=generic -march=x86-64 -g -O0 -fpre-include=/usr/include/finclude/math-vector-fortran.h
REM seed 2146342047 1654553551 1545813505 1472557236 1436333291 225232679 -865378620 -213148029 -1488883471 632812105 39556567 1762747447 1178422463 1896401204 -46426910 -1215000812 440536099 1923607800 -322169255 -1229930508 532586986 -246816319 291306451 -190719980 1140232238 2007550441 -995119759 -1058013876 -392884357 -365600389 -1559649078 -23577545 541165777
REM
CELL 1.54180   50.00000   50.00000   50.00000   90.00000   90.00000   90.00000
LATT -1
SFAC C  
C      1  0.4721660000000  0.5697510000000  0.5368610000000 1.0
C      1  0.5491070000000  0.4408140000000  0.5040560000000 1.0
C      1  0.4466380000000  0.4861600000000  0.4693410000000 1.0
C      1  0.4290450000000  0.5097490000000  0.4722650000000 1.0
C      1  0.4798400000000  0.5544020000000  0.5614610000000 1.0
C      1  0.4464670000000  0.5504010000000  0.4975870000000 1.0
C      1  0.4883690000000  0.5785330000000  0.4764490000000 1.0
C      1  0.4965400000000  0.4999870000000  0.5450570000000 1.0
C      1  0.4399730000000  0.5259220000000  0.4493860000000 1.0
C      1  0.5360330000000  0.4777650000000  0.5576860000000 1.0
C      1  0.4692500000000  0.5553070000000  0.4785010000000 1.0
C      1  0.5746100000000  0.4839510000000  0.5088800000000 1.0
C      1  0.5472180000000  0.4320470000000  0.5533560000000 1.0
C      1  0.4616400000000  0.4669460000000  0.5533510000000 1.0
C      1  0.4722570000000  0.4610000000000  0.4381220000000 1.0
C      1  0.5137950000000  0.5188960000000  0.5615100000000 1.0
C      1  0.4718670000000  0.4962440000000  0.4977090000000 1.0
C      1  0.4425980000000  0.4598540000000  0.4813220000000 1.0
C      1  0.5057270000000  0.4207420000000  0.4896670000000 1.0
C      1  0.5218730000000  0.4566380000000  0.4358720000000 1.0
C      1  0.4775750000000  0.4277400000000  0.4906750000000 1.0
C      1  0.5422120000000  0.5479260000000  0.4456570000000 1.0
C      1  0.4848650000000  0.4811720000000  0.5653730000000 1.0
C      1  0.4332680000000  0.5099710000000  0.5247690000000 1.0
C      1  0.4768610000000  0.5148040000000  0.5253920000000 1.0
C      1  0.5267360000000  0.5153330000000  0.4306690000000 1.0
C      1  0.5039050000000  0.5543130000000  0.5252600000000 1.0
C      1  0.5098900000000  0.4642330000000  0.5682540000000 1.0
C      1  0.5655410000000  0.5434050000000  0.5279440000000 1.0
C      1  0.4519280000000  0.5079470000000  0.4271370000000 1.0
C      1  0.5645290000000  0.4600180000000  0.5202710000000 1.0
C      1  0.5261690000000  0.4582030000000  0.4798110000000 1.0
C      1  0.5228800000000  0.4236420000000  0.5414080000000 1.0
C      1  0.5009590000000  0.4852440000000  0.4679340000000 1.0
C      1  0.4625520000000  0.4415090000000  0.4681750000000 1.0
C      1  0.5441700000000  0.4776690000000  0.4677890000000 1.0
C      1  0.5093990000000  0.5479210000000  0.5565110000000 1.0
C      1  0.5454130000000  0.4725690000000  0.4397460000000 1.0
C      1  0.5160760000000  0.5795050000000  0.4868490000000 1.0
C      1  0.5264490000000  0.5702920000000  0.4448180000000 1.0
C      1  0.5700830000000  0.5068440000000  0.4933250000000 1.0
C      1  0.5201140000000  0.4376800000000  0.4585840000000 1.0
C      1  0.4505080000000  0.4806410000000  0.4404360000000 1.0
C      1  0.4792820000000  0.5184370000000  0.4228880000000 1.0
C      1  0.4747660000000  0.4415190000000  0.5426720000000 1.0
C      1  0.5010930000000  0.4375340000000  0.5566450000000 1.0
C      1  0.4994960000000  0.5291580000000  0.5098300000000 1.0
C      1  0.4985570000000  0.4754160000000  0.4394980000000 1.0
C      1  0.4837040000000  0.5099840000000  0.4733120000000 1.0
C      1  0.5589280000000  0.5260350000000  0.5489550000000 1.0
C      1  0.5407200000000  0.5078700000000  0.5606690000000 1.0
C      1  0.4704240000000  0.5328890000000  0.4571100000000 1.0
C      1  0.4473390000000  0.5579280000000  0.5263350000000 1.0
C      1  0.5236250000000  0.4286780000000  0.5122130000000 1.0
C      1  0.4409990000000  0.5331170000000  0.5425030000000 1.0
C      1  0.5762690000000  0.5306050000000  0.5059730000000 1.0
C      1  0.5569340000000  0.4584020000000  0.5491460000000 1.0
C      1  0.5234660000000  0.5723860000000  0.5134790000000 1.0
C      1  0.4485110000000  0.4605510000000  0.5101590000000 1.0
C      1  0.4647900000000  0.5297050000000  0.5583430000000 1.0
C      1  0.5489900000000  0.5648080000000  0.5213090000000 1.0
C      1  0.5222430000000  0.5092060000000  0.5057510000000 1.0
C      1  0.5119230000000  0.4860870000000  0.5218070000000 1.0
C      1  0.4750570000000  0.4479250000000  0.5127030000000 1.0
C      1  0.4468060000000  0.4825020000000  0.5307240000000 1.0
C      1  0.4927240000000  0.4724470000000  0.5032180000000 1.0
C      1  0.4361390000000  0.5225940000000  0.4977200000000 1.0
C      1  0.5426690000000  0.5051300000000  0.4804770000000 1.0
C      1  0.5022460000000  0.5010570000000  0.4232490000000 1.0
C      1  0.5016060000000  0.5806900000000  0.4505890000000 1.0
C      1  0.5335990000000  0.5236470000000  0.4574990000000 1.0
END
