TITL C-950529-3362-717 3.29481842094753e-08 125000 -232.338213364856 0 0 39 (C1) n - 1
REM
REM in /home/bkarasulu/work/CARBON/AIRSS/Generating-Clusters/EDIP-Nigel-Params/with-SteepDescent/Only-C1/SD-CG/HFTN-CG
REM
REM
REM
REM
REM
REM ./C.cell (11c1c37f851c82e70ff6c80c92926a4b)
REM
REM compiler GCC version 9.2.1 20190827 (Red Hat 9.2.1-1)
REM options -cpp -mtune=generic -march=x86-64 -g -O0 -fpre-include=/usr/include/finclude/math-vector-fortran.h
REM seed -67745059 -1301928969 -1137916997 674066443 774970205 1585645309 -1083532263 -265888333 -2131064575 -1007102606 -1914368963 603173164 -169455991 1536964268 761810373 -1333428192 510995998 -1890168953 -1447093961 1486929307 2125629904 1748219329 -1360455392 -1434388776 -606517941 2065349591 234250730 -1475947276 -1332344349 1192109967 1091411096 1204570137 -926946513
REM
CELL 1.54180   50.00000   50.00000   50.00000   90.00000   90.00000   90.00000
LATT -1
SFAC C  
C      1  0.5482250000000  0.4981620000000  0.5408460000000 1.0
C      1  0.5161200000000  0.4457000000000  0.4623010000000 1.0
C      1  0.4903530000000  0.4460370000000  0.5050500000000 1.0
C      1  0.5029950000000  0.5157740000000  0.5513240000000 1.0
C      1  0.4640280000000  0.4977110000000  0.4843430000000 1.0
C      1  0.4671810000000  0.5311960000000  0.5223210000000 1.0
C      1  0.5312420000000  0.5206210000000  0.5464510000000 1.0
C      1  0.4700640000000  0.4497120000000  0.5443100000000 1.0
C      1  0.4800920000000  0.5153890000000  0.4990780000000 1.0
C      1  0.5263940000000  0.4979290000000  0.4890430000000 1.0
C      1  0.5071600000000  0.5218860000000  0.4859390000000 1.0
C      1  0.4477500000000  0.4668590000000  0.5485590000000 1.0
C      1  0.4877370000000  0.5395220000000  0.5440580000000 1.0
C      1  0.5503130000000  0.4989470000000  0.4749280000000 1.0
C      1  0.4667110000000  0.4944240000000  0.4565020000000 1.0
C      1  0.4688500000000  0.4450600000000  0.4623840000000 1.0
C      1  0.4773740000000  0.4679960000000  0.4473070000000 1.0
C      1  0.4965390000000  0.4638600000000  0.5469130000000 1.0
C      1  0.4549680000000  0.5552260000000  0.5111070000000 1.0
C      1  0.4472500000000  0.5144680000000  0.5357910000000 1.0
C      1  0.5276870000000  0.4818970000000  0.5132250000000 1.0
C      1  0.5247630000000  0.5269040000000  0.4396330000000 1.0
C      1  0.5067210000000  0.4658130000000  0.4447230000000 1.0
C      1  0.4758690000000  0.5695980000000  0.5015180000000 1.0
C      1  0.4698340000000  0.4344820000000  0.5204440000000 1.0
C      1  0.5743690000000  0.5008310000000  0.5387800000000 1.0
C      1  0.4925990000000  0.4389180000000  0.4769660000000 1.0
C      1  0.4586780000000  0.4925480000000  0.5491300000000 1.0
C      1  0.4872670000000  0.4915230000000  0.5480260000000 1.0
C      1  0.5077810000000  0.5611000000000  0.5367410000000 1.0
C      1  0.5393220000000  0.5042660000000  0.4323070000000 1.0
C      1  0.5227960000000  0.4821170000000  0.4286650000000 1.0
C      1  0.4797130000000  0.5163950000000  0.4451430000000 1.0
C      1  0.5201590000000  0.5463880000000  0.4973490000000 1.0
C      1  0.5032450000000  0.5686630000000  0.5080530000000 1.0
C      1  0.5114470000000  0.4586570000000  0.5213450000000 1.0
C      1  0.5606170000000  0.4995410000000  0.4499400000000 1.0
C      1  0.5332390000000  0.5462030000000  0.5330500000000 1.0
C      1  0.5025480000000  0.5276750000000  0.4564070000000 1.0
END
