TITL C-951342-2639-669 -2.47474956973068e-07 125000 -901.247565620815 0 0 145 (C1) n - 1
REM
REM in /home/bkarasulu/work/CARBON/AIRSS/Generating-Clusters/EDIP-Nigel-Params/with-SteepDescent/Only-C1/SD-CG/HFTN-CG
REM
REM
REM
REM
REM
REM ./C.cell (11c1c37f851c82e70ff6c80c92926a4b)
REM
REM compiler GCC version 9.2.1 20190827 (Red Hat 9.2.1-1)
REM options -cpp -mtune=generic -march=x86-64 -g -O0 -fpre-include=/usr/include/finclude/math-vector-fortran.h
REM seed -661602569 1036541511 1167329855 1930554169 1750542692 1524283271 1098169699 2097562491 -1523578986 -1126458996 2094124546 -1728706246 -130018422 1325441189 -1252229987 -1898264042 -1740698902 -1523519486 -740172150 -1946624099 -772517695 -1780796468 1455667018 1386776998 -760562903 -1042450686 -1493535905 -690606775 1671413757 -776804005 -400202939 -231582967 -985004708
REM
CELL 1.54180   50.00000   50.00000   50.00000   90.00000   90.00000   90.00000
LATT -1
SFAC C  
C      1  0.4899090000000  0.5163800000000  0.6075820000000 1.0
C      1  0.4862360000000  0.4744000000000  0.3923890000000 1.0
C      1  0.4315290000000  0.5592400000000  0.5196240000000 1.0
C      1  0.4480220000000  0.5089430000000  0.5783440000000 1.0
C      1  0.4163920000000  0.5417910000000  0.5009440000000 1.0
C      1  0.5792070000000  0.4443760000000  0.4995990000000 1.0
C      1  0.5155280000000  0.5259560000000  0.5992340000000 1.0
C      1  0.5359680000000  0.5037860000000  0.5964810000000 1.0
C      1  0.4244020000000  0.5221220000000  0.4511810000000 1.0
C      1  0.5162680000000  0.6070460000000  0.5179850000000 1.0
C      1  0.4262330000000  0.4536450000000  0.4300780000000 1.0
C      1  0.5024620000000  0.4362250000000  0.5840130000000 1.0
C      1  0.4035940000000  0.4413870000000  0.4722280000000 1.0
C      1  0.6011180000000  0.4886570000000  0.4864980000000 1.0
C      1  0.5314910000000  0.4742090000000  0.5945770000000 1.0
C      1  0.4555430000000  0.4954310000000  0.4193180000000 1.0
C      1  0.4901550000000  0.4786060000000  0.4405820000000 1.0
C      1  0.4679500000000  0.5217350000000  0.3997610000000 1.0
C      1  0.4630760000000  0.5653360000000  0.4442370000000 1.0
C      1  0.4532980000000  0.4998240000000  0.4998460000000 1.0
C      1  0.5507370000000  0.4432150000000  0.5115310000000 1.0
C      1  0.5636390000000  0.5645290000000  0.4295200000000 1.0
C      1  0.4792390000000  0.5759750000000  0.5751690000000 1.0
C      1  0.4975340000000  0.5662450000000  0.4976980000000 1.0
C      1  0.5844890000000  0.4313450000000  0.4746920000000 1.0
C      1  0.4386260000000  0.4783980000000  0.4422270000000 1.0
C      1  0.5608440000000  0.4966940000000  0.5069990000000 1.0
C      1  0.5711000000000  0.5779980000000  0.4763540000000 1.0
C      1  0.4711600000000  0.5435760000000  0.4642150000000 1.0
C      1  0.5517020000000  0.4288470000000  0.5593620000000 1.0
C      1  0.5792100000000  0.5602630000000  0.5103950000000 1.0
C      1  0.5030130000000  0.6043660000000  0.5455180000000 1.0
C      1  0.5298450000000  0.4098020000000  0.5522700000000 1.0
C      1  0.5961320000000  0.5181210000000  0.4921230000000 1.0
C      1  0.4937660000000  0.5955370000000  0.4991910000000 1.0
C      1  0.5346770000000  0.4974990000000  0.4527890000000 1.0
C      1  0.5133550000000  0.4294920000000  0.4702400000000 1.0
C      1  0.5021170000000  0.5556160000000  0.4179530000000 1.0
C      1  0.4334320000000  0.4817770000000  0.4851590000000 1.0
C      1  0.4483980000000  0.5373660000000  0.5724330000000 1.0
C      1  0.4903720000000  0.4110340000000  0.4664340000000 1.0
C      1  0.5521570000000  0.5398280000000  0.4225820000000 1.0
C      1  0.5703210000000  0.5165390000000  0.4204050000000 1.0
C      1  0.4500730000000  0.5241960000000  0.4634570000000 1.0
C      1  0.5962830000000  0.4826640000000  0.4513730000000 1.0
C      1  0.5434460000000  0.4510800000000  0.5421220000000 1.0
C      1  0.4531130000000  0.4184850000000  0.5543160000000 1.0
C      1  0.4742890000000  0.4363090000000  0.4221010000000 1.0
C      1  0.5596730000000  0.4926440000000  0.4725050000000 1.0
C      1  0.4951570000000  0.5246250000000  0.5125750000000 1.0
C      1  0.5521240000000  0.4479810000000  0.4439790000000 1.0
C      1  0.4494560000000  0.4148730000000  0.4891510000000 1.0
C      1  0.5571400000000  0.5759120000000  0.5010180000000 1.0
C      1  0.5285990000000  0.5675360000000  0.4570360000000 1.0
C      1  0.4726710000000  0.4722730000000  0.5964620000000 1.0
C      1  0.5317060000000  0.4625040000000  0.4986580000000 1.0
C      1  0.5541500000000  0.4629180000000  0.5774310000000 1.0
C      1  0.4506350000000  0.5758890000000  0.5019760000000 1.0
C      1  0.5264040000000  0.5286280000000  0.4564810000000 1.0
C      1  0.5022460000000  0.4642230000000  0.5905120000000 1.0
C      1  0.4799980000000  0.5033900000000  0.4879640000000 1.0
C      1  0.4839010000000  0.5883150000000  0.4483050000000 1.0
C      1  0.5326880000000  0.4883270000000  0.5108490000000 1.0
C      1  0.5879930000000  0.4926650000000  0.5498570000000 1.0
C      1  0.5632280000000  0.5308300000000  0.5645220000000 1.0
C      1  0.5360360000000  0.5357840000000  0.5542760000000 1.0
C      1  0.5591380000000  0.4936240000000  0.4085590000000 1.0
C      1  0.4946090000000  0.4400490000000  0.5201670000000 1.0
C      1  0.5433770000000  0.4145620000000  0.5053510000000 1.0
C      1  0.5753400000000  0.4780820000000  0.5278900000000 1.0
C      1  0.4571470000000  0.4736550000000  0.3980730000000 1.0
C      1  0.4216910000000  0.4337050000000  0.4519120000000 1.0
C      1  0.5435610000000  0.5940330000000  0.5198920000000 1.0
C      1  0.4234310000000  0.4652260000000  0.5440210000000 1.0
C      1  0.5041280000000  0.4949420000000  0.5671020000000 1.0
C      1  0.4716220000000  0.5498990000000  0.5832120000000 1.0
C      1  0.4927510000000  0.5042330000000  0.3901580000000 1.0
C      1  0.4969980000000  0.4756330000000  0.5481920000000 1.0
C      1  0.5430260000000  0.5313100000000  0.5044270000000 1.0
C      1  0.4772900000000  0.4041560000000  0.4930420000000 1.0
C      1  0.5131610000000  0.4752990000000  0.4577580000000 1.0
C      1  0.4553770000000  0.4617560000000  0.5744240000000 1.0
C      1  0.4015280000000  0.4913290000000  0.5046370000000 1.0
C      1  0.4384410000000  0.5424820000000  0.5445720000000 1.0
C      1  0.5753290000000  0.4852400000000  0.5761570000000 1.0
C      1  0.5504300000000  0.5404470000000  0.4756600000000 1.0
C      1  0.5726140000000  0.4659450000000  0.4621660000000 1.0
C      1  0.5845970000000  0.5321260000000  0.5160770000000 1.0
C      1  0.5072860000000  0.5802100000000  0.5651660000000 1.0
C      1  0.4899430000000  0.6036460000000  0.4715420000000 1.0
C      1  0.5378820000000  0.4131140000000  0.4763210000000 1.0
C      1  0.5125250000000  0.5094700000000  0.4128970000000 1.0
C      1  0.5051330000000  0.5516240000000  0.5206080000000 1.0
C      1  0.4099040000000  0.5164200000000  0.5154860000000 1.0
C      1  0.4842580000000  0.4723570000000  0.4833500000000 1.0
C      1  0.4593360000000  0.5911330000000  0.5621990000000 1.0
C      1  0.5202900000000  0.5123610000000  0.5023310000000 1.0
C      1  0.4345900000000  0.5709390000000  0.4580580000000 1.0
C      1  0.4132790000000  0.4448520000000  0.4986150000000 1.0
C      1  0.5238580000000  0.5367500000000  0.4134370000000 1.0
C      1  0.5793500000000  0.5260300000000  0.4685940000000 1.0
C      1  0.4310760000000  0.4248810000000  0.5097340000000 1.0
C      1  0.4956740000000  0.4581800000000  0.4192860000000 1.0
C      1  0.4735370000000  0.6045450000000  0.5417730000000 1.0
C      1  0.4560580000000  0.5011050000000  0.5293700000000 1.0
C      1  0.4437240000000  0.4375970000000  0.5332870000000 1.0
C      1  0.5335240000000  0.5518300000000  0.5299020000000 1.0
C      1  0.4262350000000  0.4918490000000  0.5608190000000 1.0
C      1  0.5629400000000  0.5105170000000  0.5862530000000 1.0
C      1  0.5132300000000  0.5421280000000  0.5722650000000 1.0
C      1  0.4561220000000  0.4621790000000  0.4723900000000 1.0
C      1  0.4189320000000  0.5466040000000  0.4694270000000 1.0
C      1  0.5032840000000  0.4149910000000  0.5651170000000 1.0
C      1  0.4675350000000  0.4524550000000  0.5241510000000 1.0
C      1  0.4360810000000  0.5877240000000  0.4799420000000 1.0
C      1  0.4884340000000  0.5205750000000  0.5645810000000 1.0
C      1  0.5609570000000  0.4234580000000  0.4591540000000 1.0
C      1  0.4675750000000  0.4735600000000  0.5446330000000 1.0
C      1  0.4678980000000  0.5007240000000  0.5983820000000 1.0
C      1  0.4895350000000  0.5065600000000  0.4340880000000 1.0
C      1  0.4289690000000  0.5143440000000  0.5384160000000 1.0
C      1  0.5944960000000  0.4680350000000  0.5076130000000 1.0
C      1  0.4949150000000  0.5235930000000  0.4588100000000 1.0
C      1  0.5216120000000  0.4481890000000  0.4463210000000 1.0
C      1  0.4676030000000  0.5986570000000  0.5136160000000 1.0
C      1  0.4696170000000  0.4215580000000  0.4478800000000 1.0
C      1  0.4927420000000  0.4100510000000  0.5197780000000 1.0
C      1  0.4526920000000  0.4335940000000  0.5777780000000 1.0
C      1  0.5553390000000  0.5776030000000  0.4524930000000 1.0
C      1  0.4086490000000  0.4666060000000  0.5175740000000 1.0
C      1  0.4795970000000  0.4058330000000  0.5477450000000 1.0
C      1  0.5057570000000  0.4503660000000  0.4937330000000 1.0
C      1  0.5230710000000  0.4029060000000  0.5235310000000 1.0
C      1  0.5346810000000  0.4906400000000  0.4219510000000 1.0
C      1  0.5390670000000  0.5788050000000  0.5435230000000 1.0
C      1  0.4178380000000  0.4945110000000  0.4575210000000 1.0
C      1  0.4717610000000  0.5555350000000  0.4914300000000 1.0
C      1  0.5115370000000  0.4495290000000  0.5451120000000 1.0
C      1  0.4784150000000  0.5193680000000  0.5359870000000 1.0
C      1  0.4486570000000  0.4475320000000  0.4103050000000 1.0
C      1  0.5877260000000  0.5109030000000  0.4438050000000 1.0
C      1  0.5081190000000  0.5763940000000  0.4372820000000 1.0
C      1  0.4737380000000  0.5476510000000  0.4147650000000 1.0
C      1  0.4484520000000  0.4324590000000  0.4651400000000 1.0
C      1  0.5841200000000  0.5220260000000  0.5445940000000 1.0
END
