TITL C-951340-9809-547 5.29790197446093e-05 125000 -153.890727481602 0 0 27 (C1) n - 1
REM
REM in /home/bkarasulu/work/CARBON/AIRSS/Generating-Clusters/EDIP-Nigel-Params/with-SteepDescent/Only-C1/SD-CG/HFTN-CG
REM
REM
REM
REM
REM
REM ./C.cell (11c1c37f851c82e70ff6c80c92926a4b)
REM
REM compiler GCC version 9.2.1 20190827 (Red Hat 9.2.1-1)
REM options -cpp -mtune=generic -march=x86-64 -g -O0 -fpre-include=/usr/include/finclude/math-vector-fortran.h
REM seed -826184523 -1308678501 -2146084772 671350361 190075153 -993116122 -1441246246 52231290 -242532426 2035978221 875762666 -2044175717 1441920387 -601027274 -1829945910 1835994298 1015281909 -1223790427 1553058593 667990186 1273818941 -1092247971 1177114877 1465556383 671616705 -428991139 -514355804 514126407 -1215351642 434495824 -1902308265 -1616381070 -1200145486
REM
CELL 1.54180   50.00000   50.00000   50.00000   90.00000   90.00000   90.00000
LATT -1
SFAC C  
C      1  0.5536750000000  0.4562980000000  0.4965510000000 1.0
C      1  0.5467680000000  0.5128050000000  0.4781990000000 1.0
C      1  0.4812630000000  0.5034370000000  0.5462310000000 1.0
C      1  0.5138080000000  0.5135190000000  0.4416400000000 1.0
C      1  0.4586860000000  0.4944750000000  0.4927240000000 1.0
C      1  0.4832700000000  0.4890940000000  0.5050350000000 1.0
C      1  0.5012140000000  0.5287740000000  0.4626910000000 1.0
C      1  0.5034520000000  0.4568050000000  0.5389330000000 1.0
C      1  0.4557210000000  0.5146730000000  0.5496390000000 1.0
C      1  0.4413190000000  0.5150700000000  0.5001460000000 1.0
C      1  0.4941550000000  0.5141310000000  0.5201050000000 1.0
C      1  0.4803500000000  0.4745520000000  0.5329650000000 1.0
C      1  0.5431450000000  0.4765440000000  0.5120650000000 1.0
C      1  0.5024350000000  0.4314770000000  0.5274180000000 1.0
C      1  0.4586120000000  0.5502030000000  0.4671000000000 1.0
C      1  0.5469130000000  0.4299810000000  0.4919700000000 1.0
C      1  0.5218140000000  0.5178710000000  0.5186050000000 1.0
C      1  0.4855840000000  0.5532810000000  0.4617880000000 1.0
C      1  0.5317280000000  0.5272640000000  0.4595160000000 1.0
C      1  0.5168330000000  0.4155080000000  0.5101700000000 1.0
C      1  0.4975490000000  0.5751180000000  0.4734650000000 1.0
C      1  0.5279250000000  0.4695340000000  0.5341460000000 1.0
C      1  0.4405170000000  0.5196100000000  0.5277060000000 1.0
C      1  0.5091730000000  0.5968450000000  0.4804750000000 1.0
C      1  0.5215440000000  0.4223320000000  0.4836840000000 1.0
C      1  0.5406850000000  0.5038420000000  0.5037990000000 1.0
C      1  0.4418600000000  0.5369550000000  0.4832330000000 1.0
END
