TITL C-950523-3027-228 1.44027973726341e-06 125000 -534.404255866199 0 0 88 (C1) n - 1
REM
REM in /home/bkarasulu/work/CARBON/AIRSS/Generating-Clusters/EDIP-Nigel-Params/with-SteepDescent/Only-C1/SD-CG/HFTN-CG
REM
REM
REM
REM
REM
REM ./C.cell (11c1c37f851c82e70ff6c80c92926a4b)
REM
REM compiler GCC version 9.2.1 20190827 (Red Hat 9.2.1-1)
REM options -cpp -mtune=generic -march=x86-64 -g -O0 -fpre-include=/usr/include/finclude/math-vector-fortran.h
REM seed 47617647 -574911186 -1882507373 -2081565631 -1589536388 -1576014790 -1353093842 2007061166 -535024201 1046809836 851727898 -1030695100 1167156025 -1431390095 -636325479 -1416626431 1965086910 1323329489 1287763441 -1320015916 -1401375595 880347038 37938938 -875784643 -1340702433 1008880225 1600254689 -1137118848 2025452063 -200372293 -1102252331 -534090132 1483003909
REM
CELL 1.54180   50.00000   50.00000   50.00000   90.00000   90.00000   90.00000
LATT -1
SFAC C  
C      1  0.4755280000000  0.5358560000000  0.5027430000000 1.0
C      1  0.4949600000000  0.4919650000000  0.4711800000000 1.0
C      1  0.5604460000000  0.4594400000000  0.4514150000000 1.0
C      1  0.4875080000000  0.5837160000000  0.4970180000000 1.0
C      1  0.5278910000000  0.4901890000000  0.4280470000000 1.0
C      1  0.4814320000000  0.4764250000000  0.5832570000000 1.0
C      1  0.4470820000000  0.4959880000000  0.4603310000000 1.0
C      1  0.5397380000000  0.4429250000000  0.4430750000000 1.0
C      1  0.4350770000000  0.5213100000000  0.4485450000000 1.0
C      1  0.5569720000000  0.4929340000000  0.5337800000000 1.0
C      1  0.4491880000000  0.4593580000000  0.4994750000000 1.0
C      1  0.4202710000000  0.5010670000000  0.4993300000000 1.0
C      1  0.5550550000000  0.5372580000000  0.4576100000000 1.0
C      1  0.4763380000000  0.5364190000000  0.4596970000000 1.0
C      1  0.5263880000000  0.4718250000000  0.5668830000000 1.0
C      1  0.5019810000000  0.4745750000000  0.4310410000000 1.0
C      1  0.4733780000000  0.5546390000000  0.5588450000000 1.0
C      1  0.5265240000000  0.5363890000000  0.4485730000000 1.0
C      1  0.5048010000000  0.5786880000000  0.4504670000000 1.0
C      1  0.5667700000000  0.4535630000000  0.4788740000000 1.0
C      1  0.4576400000000  0.4365180000000  0.4838630000000 1.0
C      1  0.4638350000000  0.4816020000000  0.5383420000000 1.0
C      1  0.5302890000000  0.4981800000000  0.5202150000000 1.0
C      1  0.4873850000000  0.4496090000000  0.4412270000000 1.0
C      1  0.5360510000000  0.5618030000000  0.5464910000000 1.0
C      1  0.5020280000000  0.5323180000000  0.4132070000000 1.0
C      1  0.4353000000000  0.4497740000000  0.5256680000000 1.0
C      1  0.5195710000000  0.5648970000000  0.5213730000000 1.0
C      1  0.4774160000000  0.5184580000000  0.4198740000000 1.0
C      1  0.5597820000000  0.5620170000000  0.4730480000000 1.0
C      1  0.4535480000000  0.5321540000000  0.4283670000000 1.0
C      1  0.5850550000000  0.4713360000000  0.4902290000000 1.0
C      1  0.4543430000000  0.4784940000000  0.4363250000000 1.0
C      1  0.4928030000000  0.4345480000000  0.5652920000000 1.0
C      1  0.5479380000000  0.5406640000000  0.5008980000000 1.0
C      1  0.4644490000000  0.4304840000000  0.5629810000000 1.0
C      1  0.5203510000000  0.5566800000000  0.5688410000000 1.0
C      1  0.5050020000000  0.5381670000000  0.5124210000000 1.0
C      1  0.4736970000000  0.4721890000000  0.5125410000000 1.0
C      1  0.5188260000000  0.4653200000000  0.4857960000000 1.0
C      1  0.4514100000000  0.5367320000000  0.5507310000000 1.0
C      1  0.4328870000000  0.5403980000000  0.4711080000000 1.0
C      1  0.4843700000000  0.4165580000000  0.5329380000000 1.0
C      1  0.4753640000000  0.4957580000000  0.5624830000000 1.0
C      1  0.5343130000000  0.4253150000000  0.5089010000000 1.0
C      1  0.5391950000000  0.4417150000000  0.5327470000000 1.0
C      1  0.4974840000000  0.5848570000000  0.5246080000000 1.0
C      1  0.4506640000000  0.5116040000000  0.5683850000000 1.0
C      1  0.5171840000000  0.4601590000000  0.5384040000000 1.0
C      1  0.5003960000000  0.5136340000000  0.5588110000000 1.0
C      1  0.5077510000000  0.5332510000000  0.4742500000000 1.0
C      1  0.5638230000000  0.4558530000000  0.5374640000000 1.0
C      1  0.4179620000000  0.4923990000000  0.5250820000000 1.0
C      1  0.5211160000000  0.4996950000000  0.5719440000000 1.0
C      1  0.5164810000000  0.5602660000000  0.4336170000000 1.0
C      1  0.4287760000000  0.4930920000000  0.5681350000000 1.0
C      1  0.4420870000000  0.5435070000000  0.5217470000000 1.0
C      1  0.5021450000000  0.4576480000000  0.5799540000000 1.0
C      1  0.5009840000000  0.4588080000000  0.5116120000000 1.0
C      1  0.5785460000000  0.5096890000000  0.5179650000000 1.0
C      1  0.4565520000000  0.5580860000000  0.4695570000000 1.0
C      1  0.4496440000000  0.4270500000000  0.5382570000000 1.0
C      1  0.5098550000000  0.5154640000000  0.5308550000000 1.0
C      1  0.4986770000000  0.4282480000000  0.5083280000000 1.0
C      1  0.4779370000000  0.4894940000000  0.4228220000000 1.0
C      1  0.5812390000000  0.4993460000000  0.4892220000000 1.0
C      1  0.5372900000000  0.5760550000000  0.4883740000000 1.0
C      1  0.5658920000000  0.5094250000000  0.4640390000000 1.0
C      1  0.4340810000000  0.4777820000000  0.5431030000000 1.0
C      1  0.4825320000000  0.4236070000000  0.4833900000000 1.0
C      1  0.5252290000000  0.4394990000000  0.4684560000000 1.0
C      1  0.5093080000000  0.5769870000000  0.4779230000000 1.0
C      1  0.4714120000000  0.5091730000000  0.4749480000000 1.0
C      1  0.5255780000000  0.5159760000000  0.4160190000000 1.0
C      1  0.5250170000000  0.4939410000000  0.4716710000000 1.0
C      1  0.5601580000000  0.5480000000000  0.5435680000000 1.0
C      1  0.4325800000000  0.5272740000000  0.4975670000000 1.0
C      1  0.4987410000000  0.4302580000000  0.4601320000000 1.0
C      1  0.5703000000000  0.5381980000000  0.5195950000000 1.0
C      1  0.4589730000000  0.4507400000000  0.4401960000000 1.0
C      1  0.4326540000000  0.4806740000000  0.4824550000000 1.0
C      1  0.4969480000000  0.5413630000000  0.5700200000000 1.0
C      1  0.4639570000000  0.5645840000000  0.4971500000000 1.0
C      1  0.5347080000000  0.5124980000000  0.4943690000000 1.0
C      1  0.5558600000000  0.4283560000000  0.4895090000000 1.0
C      1  0.5572920000000  0.4721730000000  0.5610120000000 1.0
C      1  0.4785880000000  0.5777450000000  0.5438720000000 1.0
C      1  0.5534220000000  0.4873250000000  0.4455220000000 1.0
END
