TITL C-950527-2551-382 6.60459196853081e-06 125000 -1089.63330866581 0 0 174 (C1) n - 1
REM
REM in /home/bkarasulu/work/CARBON/AIRSS/Generating-Clusters/EDIP-Nigel-Params/with-SteepDescent/Only-C1/SD-CG/HFTN-CG
REM
REM
REM
REM
REM
REM ./C.cell (11c1c37f851c82e70ff6c80c92926a4b)
REM
REM compiler GCC version 9.2.1 20190827 (Red Hat 9.2.1-1)
REM options -cpp -mtune=generic -march=x86-64 -g -O0 -fpre-include=/usr/include/finclude/math-vector-fortran.h
REM seed -1288333271 -1706175677 -1150152786 -1377571103 1062387954 2069805886 -361022211 201177742 -744788164 1095866352 1393285578 -1711022947 -1785847618 -889992441 -1066199707 -1646205581 1332110143 111449879 1334373141 -1872723457 -441477429 -407085284 -1385454091 1877907221 515508320 -1836548123 -962437841 230638123 11534592 2063048890 -403223857 276199681 1424217982
REM
CELL 1.54180   50.00000   50.00000   50.00000   90.00000   90.00000   90.00000
LATT -1
SFAC C  
C      1  0.4672060000000  0.4964590000000  0.5586430000000 1.0
C      1  0.5432800000000  0.5070170000000  0.5002580000000 1.0
C      1  0.5213460000000  0.4695890000000  0.4475930000000 1.0
C      1  0.4638720000000  0.6089880000000  0.4992120000000 1.0
C      1  0.4827210000000  0.4046820000000  0.4447160000000 1.0
C      1  0.5003720000000  0.5719410000000  0.4148530000000 1.0
C      1  0.5564610000000  0.4651910000000  0.5564990000000 1.0
C      1  0.5452520000000  0.4547570000000  0.5063000000000 1.0
C      1  0.4979710000000  0.4464370000000  0.4127690000000 1.0
C      1  0.4188050000000  0.4880560000000  0.4207090000000 1.0
C      1  0.4108440000000  0.5599830000000  0.4494310000000 1.0
C      1  0.5539240000000  0.5631570000000  0.5423010000000 1.0
C      1  0.5075830000000  0.3969770000000  0.5472820000000 1.0
C      1  0.5273140000000  0.4161720000000  0.5879490000000 1.0
C      1  0.4659690000000  0.4062660000000  0.4670610000000 1.0
C      1  0.4854460000000  0.4885950000000  0.4905170000000 1.0
C      1  0.4122530000000  0.5016650000000  0.4947200000000 1.0
C      1  0.5302130000000  0.5657560000000  0.4714980000000 1.0
C      1  0.5548120000000  0.5918010000000  0.4974980000000 1.0
C      1  0.5525880000000  0.4972790000000  0.4746460000000 1.0
C      1  0.4185870000000  0.5128790000000  0.4669390000000 1.0
C      1  0.5103580000000  0.4211130000000  0.5102450000000 1.0
C      1  0.4731890000000  0.5330650000000  0.4802020000000 1.0
C      1  0.5095450000000  0.4709560000000  0.5784570000000 1.0
C      1  0.4473790000000  0.4494540000000  0.4500880000000 1.0
C      1  0.4632430000000  0.4841960000000  0.4648420000000 1.0
C      1  0.4494100000000  0.4945950000000  0.5828170000000 1.0
C      1  0.5912820000000  0.5149600000000  0.4515760000000 1.0
C      1  0.5558840000000  0.5237630000000  0.4128630000000 1.0
C      1  0.5121820000000  0.4586180000000  0.5501610000000 1.0
C      1  0.5370310000000  0.5107770000000  0.5685750000000 1.0
C      1  0.4575930000000  0.5476630000000  0.4005860000000 1.0
C      1  0.4834740000000  0.5498170000000  0.4588350000000 1.0
C      1  0.4796160000000  0.4462970000000  0.4805460000000 1.0
C      1  0.4083050000000  0.5756580000000  0.5014730000000 1.0
C      1  0.4580070000000  0.5197670000000  0.5188860000000 1.0
C      1  0.5794870000000  0.4566470000000  0.5396610000000 1.0
C      1  0.4810390000000  0.5785090000000  0.4652280000000 1.0
C      1  0.5507430000000  0.4975440000000  0.4245860000000 1.0
C      1  0.5193620000000  0.5248540000000  0.5048740000000 1.0
C      1  0.5853500000000  0.4207410000000  0.5086350000000 1.0
C      1  0.5140580000000  0.6152810000000  0.5149150000000 1.0
C      1  0.5900410000000  0.5114210000000  0.5003910000000 1.0
C      1  0.3972000000000  0.5486450000000  0.4954740000000 1.0
C      1  0.5044210000000  0.5234370000000  0.5329100000000 1.0
C      1  0.4357590000000  0.5351660000000  0.4139310000000 1.0
C      1  0.5654650000000  0.5801360000000  0.4732840000000 1.0
C      1  0.5455830000000  0.4352370000000  0.4269420000000 1.0
C      1  0.5450600000000  0.5442800000000  0.5861710000000 1.0
C      1  0.4574740000000  0.5809880000000  0.4421650000000 1.0
C      1  0.5307080000000  0.5437970000000  0.4508390000000 1.0
C      1  0.4385980000000  0.5803730000000  0.5428390000000 1.0
C      1  0.6137030000000  0.4935420000000  0.5393850000000 1.0
C      1  0.4811220000000  0.4844710000000  0.4374330000000 1.0
C      1  0.5320410000000  0.4376830000000  0.5316080000000 1.0
C      1  0.5876490000000  0.4385920000000  0.4612700000000 1.0
C      1  0.5289290000000  0.6046850000000  0.4920060000000 1.0
C      1  0.5914060000000  0.5422240000000  0.4987540000000 1.0
C      1  0.5093430000000  0.5775680000000  0.5724730000000 1.0
C      1  0.5134380000000  0.5494010000000  0.4012460000000 1.0
C      1  0.4568000000000  0.4195000000000  0.5612620000000 1.0
C      1  0.5425610000000  0.5928650000000  0.4243820000000 1.0
C      1  0.4803770000000  0.4307020000000  0.5769220000000 1.0
C      1  0.4306540000000  0.4332890000000  0.5616570000000 1.0
C      1  0.4685900000000  0.4248470000000  0.5342310000000 1.0
C      1  0.5796540000000  0.5101070000000  0.5802720000000 1.0
C      1  0.5932180000000  0.5583350000000  0.5223240000000 1.0
C      1  0.4022470000000  0.5394380000000  0.4670470000000 1.0
C      1  0.4160400000000  0.4667010000000  0.5254820000000 1.0
C      1  0.4120500000000  0.4868710000000  0.5494060000000 1.0
C      1  0.4859590000000  0.4587170000000  0.5915680000000 1.0
C      1  0.4831320000000  0.4976970000000  0.6185300000000 1.0
C      1  0.4981290000000  0.4590710000000  0.4608650000000 1.0
C      1  0.4370290000000  0.5513270000000  0.5419130000000 1.0
C      1  0.6004730000000  0.4715720000000  0.5548130000000 1.0
C      1  0.4242210000000  0.4621040000000  0.4112490000000 1.0
C      1  0.5821910000000  0.4984900000000  0.4731050000000 1.0
C      1  0.4965170000000  0.5395330000000  0.6006660000000 1.0
C      1  0.4916840000000  0.5132030000000  0.4321610000000 1.0
C      1  0.5494470000000  0.4375190000000  0.4838820000000 1.0
C      1  0.5152970000000  0.5934540000000  0.5372730000000 1.0
C      1  0.4237280000000  0.4799010000000  0.5757530000000 1.0
C      1  0.4827280000000  0.4512510000000  0.5438430000000 1.0
C      1  0.4101970000000  0.5157990000000  0.5442360000000 1.0
C      1  0.5046600000000  0.4132590000000  0.5720010000000 1.0
C      1  0.5724090000000  0.4702460000000  0.5140230000000 1.0
C      1  0.6123350000000  0.4927890000000  0.5097680000000 1.0
C      1  0.6168620000000  0.5190000000000  0.5509960000000 1.0
C      1  0.4675360000000  0.5797390000000  0.4936320000000 1.0
C      1  0.4804930000000  0.5672240000000  0.5196980000000 1.0
C      1  0.4384100000000  0.4042640000000  0.5027470000000 1.0
C      1  0.4485700000000  0.4523780000000  0.4205640000000 1.0
C      1  0.5193490000000  0.5565450000000  0.5915070000000 1.0
C      1  0.4424220000000  0.4208880000000  0.4591620000000 1.0
C      1  0.5793330000000  0.5547990000000  0.4752860000000 1.0
C      1  0.4096650000000  0.5256240000000  0.5134720000000 1.0
C      1  0.4242910000000  0.4525150000000  0.5809250000000 1.0
C      1  0.5279800000000  0.4150090000000  0.4388080000000 1.0
C      1  0.5274040000000  0.5550400000000  0.5013590000000 1.0
C      1  0.4760620000000  0.5393790000000  0.5777070000000 1.0
C      1  0.5518340000000  0.4195010000000  0.5469330000000 1.0
C      1  0.4718290000000  0.5668460000000  0.4194430000000 1.0
C      1  0.4275680000000  0.5913850000000  0.5175900000000 1.0
C      1  0.4385480000000  0.4774770000000  0.5037400000000 1.0
C      1  0.5635770000000  0.5007740000000  0.5204540000000 1.0
C      1  0.5792990000000  0.4266620000000  0.5353730000000 1.0
C      1  0.4881060000000  0.4040850000000  0.5232850000000 1.0
C      1  0.4372370000000  0.5647190000000  0.4577320000000 1.0
C      1  0.5186460000000  0.4816910000000  0.5330000000000 1.0
C      1  0.4672480000000  0.4796930000000  0.6039290000000 1.0
C      1  0.5350300000000  0.4956960000000  0.4507970000000 1.0
C      1  0.5710950000000  0.4390900000000  0.4383670000000 1.0
C      1  0.5738390000000  0.4235390000000  0.4829830000000 1.0
C      1  0.4634210000000  0.4909950000000  0.5131940000000 1.0
C      1  0.5106120000000  0.5015030000000  0.5793270000000 1.0
C      1  0.4653060000000  0.3943440000000  0.4943660000000 1.0
C      1  0.5995170000000  0.4677030000000  0.4996380000000 1.0
C      1  0.4248210000000  0.5350880000000  0.5636670000000 1.0
C      1  0.5403910000000  0.5866340000000  0.5518150000000 1.0
C      1  0.5258350000000  0.4579960000000  0.4207780000000 1.0
C      1  0.3867790000000  0.4877260000000  0.4951520000000 1.0
C      1  0.4499080000000  0.4501630000000  0.4917230000000 1.0
C      1  0.5142800000000  0.5179620000000  0.4538760000000 1.0
C      1  0.4217760000000  0.4184410000000  0.4799630000000 1.0
C      1  0.4072130000000  0.4473130000000  0.4811500000000 1.0
C      1  0.5582090000000  0.5711510000000  0.4219390000000 1.0
C      1  0.5086670000000  0.5715440000000  0.5184910000000 1.0
C      1  0.5506220000000  0.4263680000000  0.5768630000000 1.0
C      1  0.5318950000000  0.4036130000000  0.4648000000000 1.0
C      1  0.4733660000000  0.5233780000000  0.3893760000000 1.0
C      1  0.4729210000000  0.4679140000000  0.4124950000000 1.0
C      1  0.4461330000000  0.5259480000000  0.5842450000000 1.0
C      1  0.4987380000000  0.5160670000000  0.4833020000000 1.0
C      1  0.4995110000000  0.5221250000000  0.4030470000000 1.0
C      1  0.4379940000000  0.5072040000000  0.4109430000000 1.0
C      1  0.5909910000000  0.5264930000000  0.5586420000000 1.0
C      1  0.4363400000000  0.5394800000000  0.5139540000000 1.0
C      1  0.4597840000000  0.4971620000000  0.3948170000000 1.0
C      1  0.5443020000000  0.4915950000000  0.5453270000000 1.0
C      1  0.4804200000000  0.5700050000000  0.5688700000000 1.0
C      1  0.4245460000000  0.4658020000000  0.4638050000000 1.0
C      1  0.4650320000000  0.5279800000000  0.4390920000000 1.0
C      1  0.3943850000000  0.4623660000000  0.5044380000000 1.0
C      1  0.5574860000000  0.4541930000000  0.5841800000000 1.0
C      1  0.5006960000000  0.4202580000000  0.4298860000000 1.0
C      1  0.4111210000000  0.4891250000000  0.4492880000000 1.0
C      1  0.5041670000000  0.5119870000000  0.6069040000000 1.0
C      1  0.5253130000000  0.5006610000000  0.3868690000000 1.0
C      1  0.5363850000000  0.3938430000000  0.5385920000000 1.0
C      1  0.5799150000000  0.5402630000000  0.4508690000000 1.0
C      1  0.5380570000000  0.4806880000000  0.4041480000000 1.0
C      1  0.5595940000000  0.5221520000000  0.5970270000000 1.0
C      1  0.4873430000000  0.6215390000000  0.5082260000000 1.0
C      1  0.5557910000000  0.5635480000000  0.5119740000000 1.0
C      1  0.4518180000000  0.5135390000000  0.4649260000000 1.0
C      1  0.5169640000000  0.4718110000000  0.5042440000000 1.0
C      1  0.5106820000000  0.5892520000000  0.4625640000000 1.0
C      1  0.4237660000000  0.4394110000000  0.5339370000000 1.0
C      1  0.4386890000000  0.6159330000000  0.5091880000000 1.0
C      1  0.4687400000000  0.5822020000000  0.5444470000000 1.0
C      1  0.4449950000000  0.4299750000000  0.5159830000000 1.0
C      1  0.5815160000000  0.5529100000000  0.5483170000000 1.0
C      1  0.5256280000000  0.4013340000000  0.4927250000000 1.0
C      1  0.5561740000000  0.5450330000000  0.4337140000000 1.0
C      1  0.4903490000000  0.5153350000000  0.5605600000000 1.0
C      1  0.5975640000000  0.4643450000000  0.4710460000000 1.0
C      1  0.5395630000000  0.3856690000000  0.5114880000000 1.0
C      1  0.5847640000000  0.4801200000000  0.5795960000000 1.0
C      1  0.5157920000000  0.5913030000000  0.4321090000000 1.0
C      1  0.4974590000000  0.4478480000000  0.5034800000000 1.0
C      1  0.4423330000000  0.5625290000000  0.4879630000000 1.0
C      1  0.4806250000000  0.5370910000000  0.5230520000000 1.0
C      1  0.5402650000000  0.5261800000000  0.3884510000000 1.0
C      1  0.4668750000000  0.4761470000000  0.5384600000000 1.0
END
