TITL C-951340-9809-400 1.40780845448925e-06 125000 -715.107988092085 0 0 117 (C1) n - 1
REM
REM in /home/bkarasulu/work/CARBON/AIRSS/Generating-Clusters/EDIP-Nigel-Params/with-SteepDescent/Only-C1/SD-CG/HFTN-CG
REM
REM
REM
REM
REM
REM ./C.cell (11c1c37f851c82e70ff6c80c92926a4b)
REM
REM compiler GCC version 9.2.1 20190827 (Red Hat 9.2.1-1)
REM options -cpp -mtune=generic -march=x86-64 -g -O0 -fpre-include=/usr/include/finclude/math-vector-fortran.h
REM seed 1021765417 -269553741 1471050256 547688678 1332083207 -304504309 -1147907214 1218696899 790850173 1677634991 670350406 2030339305 -1453956547 23784010 -294875948 -374086983 703787125 1700779566 1460827512 -442124473 787262417 -278315140 372482251 -505486903 807651771 888379984 -965142124 -1181345595 1444122361 1407219974 1325186875 2005954626 107484477
REM
CELL 1.54180   50.00000   50.00000   50.00000   90.00000   90.00000   90.00000
LATT -1
SFAC C  
C      1  0.4336690000000  0.5264940000000  0.5666300000000 1.0
C      1  0.5350500000000  0.4943750000000  0.4561370000000 1.0
C      1  0.5354380000000  0.5211820000000  0.5619730000000 1.0
C      1  0.4238200000000  0.4889060000000  0.5456840000000 1.0
C      1  0.5445040000000  0.5525970000000  0.4320570000000 1.0
C      1  0.4233080000000  0.4476370000000  0.4317300000000 1.0
C      1  0.4153990000000  0.5321450000000  0.5204560000000 1.0
C      1  0.4580200000000  0.5342380000000  0.5460350000000 1.0
C      1  0.5735820000000  0.4237210000000  0.5101130000000 1.0
C      1  0.5491030000000  0.4142110000000  0.4493230000000 1.0
C      1  0.5601820000000  0.5302250000000  0.4256680000000 1.0
C      1  0.4810480000000  0.5394360000000  0.4438250000000 1.0
C      1  0.5788260000000  0.4955350000000  0.4960980000000 1.0
C      1  0.5512210000000  0.5420370000000  0.5459750000000 1.0
C      1  0.4124790000000  0.5305070000000  0.4914160000000 1.0
C      1  0.5066550000000  0.4680500000000  0.4302570000000 1.0
C      1  0.5324750000000  0.5596160000000  0.5305390000000 1.0
C      1  0.5443370000000  0.5837980000000  0.4741430000000 1.0
C      1  0.5287400000000  0.4322980000000  0.5237260000000 1.0
C      1  0.5738930000000  0.5328000000000  0.5302590000000 1.0
C      1  0.4901750000000  0.5560920000000  0.5674570000000 1.0
C      1  0.4793470000000  0.4623740000000  0.4206080000000 1.0
C      1  0.4692790000000  0.4918810000000  0.4905790000000 1.0
C      1  0.4975640000000  0.5420350000000  0.4995890000000 1.0
C      1  0.5106780000000  0.4971540000000  0.4379350000000 1.0
C      1  0.4488250000000  0.5416030000000  0.4434360000000 1.0
C      1  0.5384230000000  0.5756150000000  0.5724240000000 1.0
C      1  0.4445910000000  0.4371280000000  0.4465290000000 1.0
C      1  0.4233020000000  0.4756660000000  0.4754740000000 1.0
C      1  0.5517270000000  0.4380130000000  0.4333830000000 1.0
C      1  0.4491050000000  0.5499760000000  0.5222650000000 1.0
C      1  0.4341420000000  0.4937590000000  0.4313000000000 1.0
C      1  0.5059970000000  0.5174410000000  0.4842190000000 1.0
C      1  0.5750790000000  0.4379400000000  0.5352480000000 1.0
C      1  0.4965830000000  0.4973870000000  0.5012100000000 1.0
C      1  0.4181580000000  0.5548310000000  0.4782650000000 1.0
C      1  0.4920660000000  0.4286230000000  0.4538300000000 1.0
C      1  0.4747370000000  0.4318060000000  0.5190460000000 1.0
C      1  0.5094220000000  0.4969560000000  0.5279500000000 1.0
C      1  0.5016390000000  0.4217370000000  0.5362210000000 1.0
C      1  0.4464620000000  0.5035120000000  0.5809890000000 1.0
C      1  0.4405070000000  0.5628270000000  0.4629560000000 1.0
C      1  0.5024940000000  0.4326850000000  0.5636880000000 1.0
C      1  0.5893270000000  0.4816790000000  0.5185470000000 1.0
C      1  0.5799820000000  0.4979360000000  0.5407500000000 1.0
C      1  0.4291100000000  0.5185600000000  0.4466470000000 1.0
C      1  0.5752920000000  0.5521160000000  0.5072470000000 1.0
C      1  0.5803960000000  0.5623070000000  0.4597400000000 1.0
C      1  0.4878400000000  0.4032410000000  0.4654780000000 1.0
C      1  0.4781600000000  0.5041410000000  0.5709440000000 1.0
C      1  0.5281700000000  0.4508630000000  0.4255320000000 1.0
C      1  0.5199510000000  0.5560690000000  0.4192520000000 1.0
C      1  0.4758700000000  0.4480620000000  0.5843600000000 1.0
C      1  0.4964930000000  0.5408510000000  0.4177700000000 1.0
C      1  0.5129110000000  0.4613610000000  0.5637270000000 1.0
C      1  0.4711100000000  0.4358270000000  0.4334060000000 1.0
C      1  0.5258250000000  0.5830750000000  0.5480490000000 1.0
C      1  0.5077230000000  0.5436230000000  0.5879920000000 1.0
C      1  0.5485830000000  0.5667400000000  0.5036790000000 1.0
C      1  0.5775640000000  0.5425160000000  0.4798340000000 1.0
C      1  0.5058290000000  0.5198250000000  0.5484860000000 1.0
C      1  0.4517040000000  0.4825750000000  0.5116310000000 1.0
C      1  0.5804090000000  0.4842810000000  0.4445560000000 1.0
C      1  0.4579860000000  0.5178750000000  0.4802360000000 1.0
C      1  0.4267340000000  0.4690590000000  0.5062860000000 1.0
C      1  0.4661320000000  0.5696970000000  0.4786660000000 1.0
C      1  0.4288030000000  0.5103080000000  0.4754180000000 1.0
C      1  0.4959500000000  0.5802570000000  0.5505510000000 1.0
C      1  0.5348990000000  0.5511600000000  0.5856100000000 1.0
C      1  0.5016790000000  0.5126380000000  0.4116700000000 1.0
C      1  0.4519870000000  0.4406420000000  0.5385770000000 1.0
C      1  0.4637590000000  0.4880960000000  0.4331160000000 1.0
C      1  0.4724370000000  0.4815990000000  0.5510910000000 1.0
C      1  0.5730550000000  0.4562130000000  0.4417180000000 1.0
C      1  0.4288240000000  0.4459420000000  0.5227030000000 1.0
C      1  0.5109910000000  0.5890860000000  0.4930260000000 1.0
C      1  0.4716230000000  0.4718400000000  0.4674830000000 1.0
C      1  0.4911800000000  0.4516280000000  0.5017380000000 1.0
C      1  0.5575210000000  0.5743730000000  0.4477370000000 1.0
C      1  0.5888690000000  0.4909450000000  0.4703200000000 1.0
C      1  0.4129560000000  0.5168780000000  0.5459050000000 1.0
C      1  0.5035110000000  0.5189350000000  0.6009220000000 1.0
C      1  0.4333050000000  0.4776760000000  0.5722150000000 1.0
C      1  0.4569300000000  0.4586400000000  0.5632580000000 1.0
C      1  0.4490290000000  0.4509420000000  0.4726570000000 1.0
C      1  0.5422270000000  0.4249270000000  0.4746770000000 1.0
C      1  0.4489540000000  0.5777610000000  0.5298600000000 1.0
C      1  0.5488320000000  0.4409230000000  0.5452590000000 1.0
C      1  0.4975460000000  0.4687280000000  0.5893330000000 1.0
C      1  0.5186870000000  0.4576030000000  0.5092290000000 1.0
C      1  0.5549790000000  0.4513190000000  0.4751990000000 1.0
C      1  0.5109860000000  0.5621840000000  0.4801790000000 1.0
C      1  0.4663420000000  0.5441830000000  0.4964800000000 1.0
C      1  0.5514830000000  0.4928490000000  0.5503490000000 1.0
C      1  0.4889180000000  0.5635520000000  0.4596900000000 1.0
C      1  0.4515020000000  0.4971240000000  0.5358420000000 1.0
C      1  0.4929730000000  0.4932630000000  0.6045100000000 1.0
C      1  0.5378470000000  0.4935930000000  0.5246250000000 1.0
C      1  0.5505770000000  0.5007170000000  0.4999980000000 1.0
C      1  0.4970070000000  0.4545490000000  0.4713930000000 1.0
C      1  0.4653850000000  0.4042480000000  0.4800530000000 1.0
C      1  0.5453420000000  0.4149220000000  0.5030020000000 1.0
C      1  0.4760340000000  0.5849290000000  0.5270140000000 1.0
C      1  0.4825480000000  0.5907220000000  0.4989370000000 1.0
C      1  0.4764720000000  0.4988130000000  0.4076880000000 1.0
C      1  0.5354990000000  0.5138310000000  0.4786480000000 1.0
C      1  0.4987510000000  0.4724080000000  0.5396010000000 1.0
C      1  0.4902530000000  0.5128760000000  0.4573730000000 1.0
C      1  0.5302330000000  0.4693380000000  0.4767330000000 1.0
C      1  0.5430620000000  0.4648670000000  0.5618880000000 1.0
C      1  0.4558590000000  0.4268290000000  0.4932130000000 1.0
C      1  0.5684000000000  0.5047360000000  0.4294740000000 1.0
C      1  0.5756720000000  0.4516930000000  0.4986960000000 1.0
C      1  0.5476110000000  0.5413330000000  0.4742440000000 1.0
C      1  0.4180440000000  0.4724380000000  0.4438460000000 1.0
C      1  0.5069650000000  0.5436580000000  0.5282910000000 1.0
C      1  0.4625470000000  0.5521560000000  0.5695030000000 1.0
END
