TITL C-951348-1603-674 -4.47892468965615e-06 125000 -472.324219537702 0 0 77 (C1) n - 1
REM
REM in /home/bkarasulu/work/CARBON/AIRSS/Generating-Clusters/EDIP-Nigel-Params/with-SteepDescent/Only-C1/SD-CG/HFTN-CG
REM
REM
REM
REM
REM
REM ./C.cell (11c1c37f851c82e70ff6c80c92926a4b)
REM
REM compiler GCC version 9.2.1 20190827 (Red Hat 9.2.1-1)
REM options -cpp -mtune=generic -march=x86-64 -g -O0 -fpre-include=/usr/include/finclude/math-vector-fortran.h
REM seed 490147517 638875528 184612076 922709071 -1401110835 580852701 1556092947 647834825 -562965588 -670018374 1411224538 125805957 469061818 2026478080 -322657112 -541735040 347156548 -575664670 -1788643933 1229598427 -1404103657 907958375 -1795040281 792536768 1130446680 -985436898 -1426287332 -269175443 -1816961034 1209039835 1344476753 -635725316 -1852853806
REM
CELL 1.54180   50.00000   50.00000   50.00000   90.00000   90.00000   90.00000
LATT -1
SFAC C  
C      1  0.4630670000000  0.4994380000000  0.5615180000000 1.0
C      1  0.5633790000000  0.5499210000000  0.5022070000000 1.0
C      1  0.5288950000000  0.5587840000000  0.5389980000000 1.0
C      1  0.5269860000000  0.4318460000000  0.4779390000000 1.0
C      1  0.5582010000000  0.4780640000000  0.4468600000000 1.0
C      1  0.4971700000000  0.5214810000000  0.5921530000000 1.0
C      1  0.4426050000000  0.4940860000000  0.5393000000000 1.0
C      1  0.4390320000000  0.4550490000000  0.5378370000000 1.0
C      1  0.4423250000000  0.5065810000000  0.4825300000000 1.0
C      1  0.5350790000000  0.5061540000000  0.4219130000000 1.0
C      1  0.4879700000000  0.4406710000000  0.5430730000000 1.0
C      1  0.5003140000000  0.4699530000000  0.4246860000000 1.0
C      1  0.4979200000000  0.5351980000000  0.5658350000000 1.0
C      1  0.5230260000000  0.4537800000000  0.4342840000000 1.0
C      1  0.5173140000000  0.5135790000000  0.4666430000000 1.0
C      1  0.4685690000000  0.5631240000000  0.5380710000000 1.0
C      1  0.4940180000000  0.4492330000000  0.5688160000000 1.0
C      1  0.5074740000000  0.4980740000000  0.5380010000000 1.0
C      1  0.5597870000000  0.5493480000000  0.4716680000000 1.0
C      1  0.5038990000000  0.4295470000000  0.4965160000000 1.0
C      1  0.4510620000000  0.5517930000000  0.4679000000000 1.0
C      1  0.4603410000000  0.4339040000000  0.5348480000000 1.0
C      1  0.5577870000000  0.5061270000000  0.4395860000000 1.0
C      1  0.4608500000000  0.5113830000000  0.4366660000000 1.0
C      1  0.5604240000000  0.5201040000000  0.4659010000000 1.0
C      1  0.4898800000000  0.5746760000000  0.4912510000000 1.0
C      1  0.5549350000000  0.4992930000000  0.5497000000000 1.0
C      1  0.5390680000000  0.4820150000000  0.4716960000000 1.0
C      1  0.4253450000000  0.5262790000000  0.4994160000000 1.0
C      1  0.5762700000000  0.5114780000000  0.5356340000000 1.0
C      1  0.4742760000000  0.4611030000000  0.4374570000000 1.0
C      1  0.4605340000000  0.5234910000000  0.4642810000000 1.0
C      1  0.4303880000000  0.5513460000000  0.4870520000000 1.0
C      1  0.5207570000000  0.5386950000000  0.4470670000000 1.0
C      1  0.4931410000000  0.4668250000000  0.5017870000000 1.0
C      1  0.5081660000000  0.4980590000000  0.4264670000000 1.0
C      1  0.4340300000000  0.4566040000000  0.4842870000000 1.0
C      1  0.5337230000000  0.4543200000000  0.5288310000000 1.0
C      1  0.5337350000000  0.5474790000000  0.5098720000000 1.0
C      1  0.5728980000000  0.5055480000000  0.4886060000000 1.0
C      1  0.4645050000000  0.4710870000000  0.5118240000000 1.0
C      1  0.4824440000000  0.5166650000000  0.5475000000000 1.0
C      1  0.5175550000000  0.5634390000000  0.4895990000000 1.0
C      1  0.4713700000000  0.5708590000000  0.4706940000000 1.0
C      1  0.5347020000000  0.4735660000000  0.5523630000000 1.0
C      1  0.5325040000000  0.5606400000000  0.4638390000000 1.0
C      1  0.4705010000000  0.4934880000000  0.5889330000000 1.0
C      1  0.4781080000000  0.4372580000000  0.4675260000000 1.0
C      1  0.4344370000000  0.5247140000000  0.5287810000000 1.0
C      1  0.4532120000000  0.4820610000000  0.4409270000000 1.0
C      1  0.4264750000000  0.4626800000000  0.5122790000000 1.0
C      1  0.5784330000000  0.5242820000000  0.5102300000000 1.0
C      1  0.4779340000000  0.5780630000000  0.5162680000000 1.0
C      1  0.5106150000000  0.4715110000000  0.5723500000000 1.0
C      1  0.4534140000000  0.4338280000000  0.4833560000000 1.0
C      1  0.5108810000000  0.4355160000000  0.5254650000000 1.0
C      1  0.4929660000000  0.4638040000000  0.4715280000000 1.0
C      1  0.5068520000000  0.4943130000000  0.5089590000000 1.0
C      1  0.5521330000000  0.4329700000000  0.4899960000000 1.0
C      1  0.4995710000000  0.4916100000000  0.5924480000000 1.0
C      1  0.5211090000000  0.4574670000000  0.4639040000000 1.0
C      1  0.5484410000000  0.4621120000000  0.4255060000000 1.0
C      1  0.5111030000000  0.5789650000000  0.5480390000000 1.0
C      1  0.4972770000000  0.5445540000000  0.4315830000000 1.0
C      1  0.5324400000000  0.5146420000000  0.5389170000000 1.0
C      1  0.5514390000000  0.4561650000000  0.5056050000000 1.0
C      1  0.4631790000000  0.5350600000000  0.5313540000000 1.0
C      1  0.5309350000000  0.5134020000000  0.4974280000000 1.0
C      1  0.4368350000000  0.4809540000000  0.4664550000000 1.0
C      1  0.5259610000000  0.5363600000000  0.5562550000000 1.0
C      1  0.4580730000000  0.4230380000000  0.5089840000000 1.0
C      1  0.4859770000000  0.5119120000000  0.5017250000000 1.0
C      1  0.5680060000000  0.4782970000000  0.4979330000000 1.0
C      1  0.4877480000000  0.5184810000000  0.4249340000000 1.0
C      1  0.4883060000000  0.5185320000000  0.4750310000000 1.0
C      1  0.4604850000000  0.4994500000000  0.5053670000000 1.0
C      1  0.4894330000000  0.5638170000000  0.5589600000000 1.0
END
