TITL C-951336-9012-271 -1.40913947273917e-06 125000 -510.18246931731 0 0 84 (C1) n - 1
REM
REM in /home/bkarasulu/work/CARBON/AIRSS/Generating-Clusters/EDIP-Nigel-Params/with-SteepDescent/Only-C1/SD-CG/HFTN-CG
REM
REM
REM
REM
REM
REM ./C.cell (11c1c37f851c82e70ff6c80c92926a4b)
REM
REM compiler GCC version 9.2.1 20190827 (Red Hat 9.2.1-1)
REM options -cpp -mtune=generic -march=x86-64 -g -O0 -fpre-include=/usr/include/finclude/math-vector-fortran.h
REM seed 2008381319 1306536212 99156344 970893148 1760029939 1947277636 23570969 -402123478 738716328 -2118419363 103922709 848154049 -2084218333 -1656060463 -194337460 -1071313726 1616167345 426105599 -857359125 -2116014144 1433882550 -1028420233 2059062671 29230062 -240933769 548079751 -325548160 -515321952 1522791974 -122108322 415658394 -173517997 1312529353
REM
CELL 1.54180   50.00000   50.00000   50.00000   90.00000   90.00000   90.00000
LATT -1
SFAC C  
C      1  0.5732480000000  0.4545080000000  0.4922620000000 1.0
C      1  0.4461320000000  0.4831910000000  0.4449610000000 1.0
C      1  0.4694570000000  0.4331540000000  0.5499850000000 1.0
C      1  0.4687070000000  0.5074700000000  0.5118010000000 1.0
C      1  0.4310160000000  0.5436220000000  0.5426780000000 1.0
C      1  0.4614810000000  0.5193330000000  0.5637590000000 1.0
C      1  0.4974360000000  0.4425420000000  0.4300890000000 1.0
C      1  0.4977030000000  0.5625520000000  0.4948070000000 1.0
C      1  0.4804400000000  0.4798580000000  0.5596110000000 1.0
C      1  0.5007950000000  0.5867270000000  0.5101020000000 1.0
C      1  0.4505420000000  0.5269530000000  0.4620330000000 1.0
C      1  0.5231500000000  0.4912060000000  0.4351410000000 1.0
C      1  0.5156680000000  0.5417760000000  0.5100030000000 1.0
C      1  0.4396640000000  0.4968780000000  0.5583370000000 1.0
C      1  0.4681830000000  0.4603180000000  0.5412600000000 1.0
C      1  0.4554460000000  0.5517410000000  0.5244070000000 1.0
C      1  0.5465950000000  0.4738550000000  0.4419940000000 1.0
C      1  0.4295050000000  0.4842050000000  0.4876840000000 1.0
C      1  0.5438480000000  0.4400600000000  0.5310800000000 1.0
C      1  0.5304670000000  0.5539710000000  0.4577800000000 1.0
C      1  0.4615940000000  0.5780390000000  0.4562000000000 1.0
C      1  0.5678530000000  0.5349730000000  0.5106580000000 1.0
C      1  0.4973610000000  0.4274160000000  0.5478050000000 1.0
C      1  0.5414190000000  0.4970650000000  0.5046880000000 1.0
C      1  0.5027720000000  0.4987200000000  0.5471030000000 1.0
C      1  0.4973900000000  0.4507790000000  0.4587490000000 1.0
C      1  0.5147090000000  0.5837040000000  0.5346390000000 1.0
C      1  0.4717060000000  0.4948980000000  0.4345910000000 1.0
C      1  0.4307960000000  0.4565820000000  0.4803920000000 1.0
C      1  0.5447990000000  0.5542980000000  0.5081630000000 1.0
C      1  0.5032280000000  0.4683850000000  0.5089550000000 1.0
C      1  0.5415850000000  0.5700630000000  0.5329480000000 1.0
C      1  0.5096760000000  0.4257370000000  0.5187300000000 1.0
C      1  0.4466020000000  0.4570370000000  0.4569530000000 1.0
C      1  0.5603890000000  0.5260440000000  0.5387050000000 1.0
C      1  0.4948900000000  0.4652280000000  0.5816090000000 1.0
C      1  0.5351050000000  0.4944110000000  0.5823320000000 1.0
C      1  0.4983280000000  0.5115050000000  0.4732930000000 1.0
C      1  0.5227980000000  0.5029900000000  0.4084950000000 1.0
C      1  0.5151360000000  0.5131030000000  0.4990170000000 1.0
C      1  0.4850610000000  0.4265560000000  0.4719540000000 1.0
C      1  0.4879300000000  0.5756950000000  0.4472690000000 1.0
C      1  0.4743030000000  0.4283640000000  0.4234060000000 1.0
C      1  0.5072830000000  0.5664640000000  0.4667520000000 1.0
C      1  0.5814670000000  0.4782740000000  0.4797650000000 1.0
C      1  0.5079210000000  0.5351410000000  0.5895020000000 1.0
C      1  0.5330750000000  0.4262710000000  0.4880500000000 1.0
C      1  0.5338280000000  0.4570730000000  0.5524280000000 1.0
C      1  0.5242080000000  0.4324420000000  0.4260090000000 1.0
C      1  0.4912220000000  0.5661300000000  0.4210640000000 1.0
C      1  0.5351770000000  0.5249050000000  0.4201310000000 1.0
C      1  0.4238300000000  0.5143520000000  0.5377830000000 1.0
C      1  0.4331490000000  0.5017670000000  0.4640370000000 1.0
C      1  0.5395200000000  0.5295450000000  0.4480280000000 1.0
C      1  0.5618040000000  0.5161550000000  0.4613820000000 1.0
C      1  0.5693850000000  0.4879510000000  0.4538910000000 1.0
C      1  0.5490580000000  0.4992980000000  0.5341390000000 1.0
C      1  0.5208650000000  0.5543890000000  0.5740070000000 1.0
C      1  0.4720950000000  0.5287480000000  0.5350720000000 1.0
C      1  0.5479880000000  0.4467340000000  0.4323500000000 1.0
C      1  0.5082030000000  0.4907050000000  0.5922290000000 1.0
C      1  0.5309890000000  0.4873470000000  0.5541990000000 1.0
C      1  0.5127960000000  0.4439460000000  0.5676490000000 1.0
C      1  0.4805710000000  0.5412850000000  0.4204470000000 1.0
C      1  0.4901060000000  0.5140550000000  0.5859140000000 1.0
C      1  0.4430380000000  0.5420440000000  0.5694500000000 1.0
C      1  0.5018470000000  0.5645550000000  0.5534100000000 1.0
C      1  0.4968660000000  0.4955790000000  0.5170290000000 1.0
C      1  0.4845210000000  0.4245090000000  0.5010670000000 1.0
C      1  0.4425080000000  0.4739730000000  0.5373580000000 1.0
C      1  0.5471820000000  0.4472070000000  0.5027600000000 1.0
C      1  0.4682530000000  0.5514420000000  0.4948330000000 1.0
C      1  0.4407810000000  0.4945660000000  0.5142450000000 1.0
C      1  0.5301950000000  0.4698810000000  0.4976720000000 1.0
C      1  0.5660530000000  0.5099500000000  0.4915970000000 1.0
C      1  0.4719370000000  0.5216120000000  0.4848840000000 1.0
C      1  0.4811590000000  0.4533180000000  0.4995730000000 1.0
C      1  0.4490780000000  0.5591020000000  0.4720090000000 1.0
C      1  0.5021490000000  0.5368080000000  0.5382560000000 1.0
C      1  0.4965700000000  0.4884130000000  0.4524030000000 1.0
C      1  0.5427300000000  0.5475200000000  0.5523250000000 1.0
C      1  0.5260080000000  0.4419240000000  0.4638100000000 1.0
C      1  0.4647990000000  0.5234760000000  0.4351370000000 1.0
C      1  0.4548700000000  0.4356310000000  0.4409310000000 1.0
END
