TITL C-951340-9809-368 -3.47991437872695e-06 125000 -370.544922067015 0 0 61 (C1) n - 1
REM
REM in /home/bkarasulu/work/CARBON/AIRSS/Generating-Clusters/EDIP-Nigel-Params/with-SteepDescent/Only-C1/SD-CG/HFTN-CG
REM
REM
REM
REM
REM
REM ./C.cell (11c1c37f851c82e70ff6c80c92926a4b)
REM
REM compiler GCC version 9.2.1 20190827 (Red Hat 9.2.1-1)
REM options -cpp -mtune=generic -march=x86-64 -g -O0 -fpre-include=/usr/include/finclude/math-vector-fortran.h
REM seed -1958249521 13697982 1904525832 -1362057924 1748788742 -1550970576 1359361127 -272008652 -338956113 -1454224372 1479592158 -19430388 -1964848055 286112095 -2100287827 -278216263 777204931 -1170651430 1300493870 832543095 -629763040 1148005150 1943115664 -1895288681 1585939376 376961388 -289114330 -1929808949 1778456702 812127465 1321419492 -1135273877 95776000
REM
CELL 1.54180   50.00000   50.00000   50.00000   90.00000   90.00000   90.00000
LATT -1
SFAC C  
C      1  0.4766790000000  0.5115450000000  0.5318160000000 1.0
C      1  0.4907080000000  0.5227150000000  0.4280460000000 1.0
C      1  0.4433200000000  0.5586200000000  0.5152610000000 1.0
C      1  0.4989310000000  0.5303580000000  0.5235390000000 1.0
C      1  0.5454790000000  0.4512160000000  0.4559570000000 1.0
C      1  0.4179320000000  0.5464210000000  0.5149000000000 1.0
C      1  0.5129100000000  0.4508030000000  0.5420870000000 1.0
C      1  0.4362240000000  0.5119820000000  0.4655340000000 1.0
C      1  0.5306870000000  0.5594760000000  0.5118100000000 1.0
C      1  0.4698520000000  0.4372620000000  0.5214640000000 1.0
C      1  0.5050040000000  0.5190850000000  0.4954920000000 1.0
C      1  0.4333200000000  0.4754360000000  0.4967810000000 1.0
C      1  0.4220900000000  0.5025030000000  0.4906660000000 1.0
C      1  0.5802520000000  0.5005970000000  0.4878380000000 1.0
C      1  0.5444720000000  0.4985660000000  0.4399300000000 1.0
C      1  0.5875760000000  0.4965010000000  0.5144330000000 1.0
C      1  0.5111690000000  0.5007250000000  0.5577060000000 1.0
C      1  0.5805630000000  0.4783020000000  0.4698980000000 1.0
C      1  0.4602640000000  0.4578440000000  0.5398220000000 1.0
C      1  0.4814620000000  0.4663440000000  0.5584470000000 1.0
C      1  0.4996290000000  0.4478760000000  0.4751340000000 1.0
C      1  0.5297030000000  0.4779340000000  0.4885980000000 1.0
C      1  0.5161720000000  0.4576320000000  0.4514230000000 1.0
C      1  0.5416920000000  0.4376490000000  0.5049800000000 1.0
C      1  0.5513150000000  0.5239580000000  0.4559460000000 1.0
C      1  0.5505840000000  0.4590880000000  0.4854230000000 1.0
C      1  0.4984820000000  0.4323430000000  0.5232780000000 1.0
C      1  0.4590910000000  0.4328530000000  0.4960030000000 1.0
C      1  0.4595000000000  0.5564640000000  0.4901350000000 1.0
C      1  0.5632060000000  0.4744760000000  0.4463480000000 1.0
C      1  0.5115090000000  0.5624760000000  0.4900870000000 1.0
C      1  0.5576260000000  0.4703500000000  0.5400060000000 1.0
C      1  0.5497770000000  0.5205890000000  0.5328140000000 1.0
C      1  0.5128570000000  0.4309600000000  0.4971880000000 1.0
C      1  0.4695870000000  0.4473750000000  0.4743490000000 1.0
C      1  0.5607970000000  0.5216110000000  0.4836760000000 1.0
C      1  0.5670410000000  0.4959570000000  0.5334390000000 1.0
C      1  0.4782450000000  0.5105150000000  0.4854800000000 1.0
C      1  0.4742780000000  0.5349650000000  0.4456590000000 1.0
C      1  0.5092720000000  0.5026800000000  0.4244060000000 1.0
C      1  0.4626080000000  0.4991450000000  0.5077220000000 1.0
C      1  0.4535530000000  0.4721550000000  0.4743720000000 1.0
C      1  0.4826270000000  0.4959590000000  0.5665360000000 1.0
C      1  0.5420460000000  0.4475770000000  0.5339960000000 1.0
C      1  0.4601390000000  0.5567390000000  0.5394620000000 1.0
C      1  0.5137280000000  0.5435270000000  0.4688100000000 1.0
C      1  0.5144390000000  0.5631020000000  0.5379380000000 1.0
C      1  0.5175940000000  0.4937090000000  0.5071670000000 1.0
C      1  0.5514190000000  0.5372320000000  0.5084960000000 1.0
C      1  0.4239850000000  0.5189310000000  0.5150250000000 1.0
C      1  0.4459420000000  0.4882890000000  0.4520900000000 1.0
C      1  0.5223570000000  0.5258130000000  0.5458330000000 1.0
C      1  0.5348360000000  0.5457290000000  0.4510090000000 1.0
C      1  0.5166630000000  0.4872250000000  0.4471080000000 1.0
C      1  0.4562930000000  0.5209250000000  0.5522740000000 1.0
C      1  0.5086460000000  0.4816500000000  0.5343100000000 1.0
C      1  0.4852020000000  0.5704620000000  0.5310580000000 1.0
C      1  0.4850370000000  0.5661540000000  0.5018280000000 1.0
C      1  0.4610970000000  0.5300850000000  0.4709280000000 1.0
C      1  0.4392830000000  0.4763710000000  0.5286300000000 1.0
C      1  0.4332470000000  0.5051690000000  0.5396080000000 1.0
END
