TITL C-950535-5962-311 -4.41969516210644e-06 125000 -1214.06933539438 0 0 196 (C1) n - 1
REM
REM in /home/bkarasulu/work/CARBON/AIRSS/Generating-Clusters/EDIP-Nigel-Params/with-SteepDescent/Only-C1/SD-CG/HFTN-CG
REM
REM
REM
REM
REM
REM ./C.cell (11c1c37f851c82e70ff6c80c92926a4b)
REM
REM compiler GCC version 9.2.1 20190827 (Red Hat 9.2.1-1)
REM options -cpp -mtune=generic -march=x86-64 -g -O0 -fpre-include=/usr/include/finclude/math-vector-fortran.h
REM seed -44811360 264582 282519415 1639176046 -438503131 -1535628633 -132495967 1866911194 -1759427681 -726213863 -1961995825 39529538 659171329 247802974 555294828 907408227 1662137550 -524904023 -85277685 -245676127 1759060663 -1069587450 -404334119 1244684847 1312770770 -570668990 -1434492593 1869967206 -1092962832 1051316366 -837642997 1375113340 -2079245766
REM
CELL 1.54180   50.00000   50.00000   50.00000   90.00000   90.00000   90.00000
LATT -1
SFAC C  
C      1  0.5021140000000  0.5615540000000  0.5752000000000 1.0
C      1  0.4704330000000  0.4503770000000  0.5060620000000 1.0
C      1  0.5080980000000  0.5342400000000  0.3852700000000 1.0
C      1  0.5383090000000  0.5221870000000  0.4907080000000 1.0
C      1  0.5612450000000  0.5116260000000  0.6066540000000 1.0
C      1  0.4987610000000  0.5694580000000  0.4748040000000 1.0
C      1  0.4825100000000  0.4659820000000  0.4568270000000 1.0
C      1  0.5872240000000  0.5329840000000  0.5248450000000 1.0
C      1  0.6044220000000  0.5393850000000  0.5011810000000 1.0
C      1  0.5962610000000  0.5492330000000  0.5493150000000 1.0
C      1  0.5116800000000  0.4558450000000  0.4117970000000 1.0
C      1  0.3872210000000  0.4710020000000  0.5226190000000 1.0
C      1  0.4392060000000  0.3946440000000  0.5030090000000 1.0
C      1  0.4762260000000  0.5905510000000  0.4331650000000 1.0
C      1  0.4668990000000  0.5100830000000  0.6056560000000 1.0
C      1  0.5490480000000  0.3864340000000  0.5114000000000 1.0
C      1  0.4513220000000  0.5740860000000  0.4383060000000 1.0
C      1  0.5581170000000  0.5501830000000  0.4305450000000 1.0
C      1  0.4329820000000  0.4808020000000  0.4061340000000 1.0
C      1  0.4845620000000  0.3765910000000  0.4975400000000 1.0
C      1  0.5258850000000  0.4205980000000  0.4193670000000 1.0
C      1  0.5525190000000  0.3920310000000  0.4658130000000 1.0
C      1  0.5491380000000  0.4291230000000  0.5485010000000 1.0
C      1  0.4921560000000  0.5203470000000  0.4731850000000 1.0
C      1  0.5592340000000  0.5447350000000  0.5250640000000 1.0
C      1  0.4842100000000  0.5088880000000  0.5170880000000 1.0
C      1  0.4489680000000  0.4596280000000  0.4198490000000 1.0
C      1  0.4475790000000  0.4935120000000  0.5916660000000 1.0
C      1  0.5567400000000  0.4804430000000  0.5988260000000 1.0
C      1  0.5081550000000  0.4368810000000  0.5294870000000 1.0
C      1  0.5277100000000  0.4820660000000  0.5321500000000 1.0
C      1  0.4046200000000  0.5489310000000  0.5246840000000 1.0
C      1  0.4449730000000  0.4908780000000  0.4899170000000 1.0
C      1  0.4198860000000  0.5652130000000  0.5466110000000 1.0
C      1  0.5599400000000  0.4208960000000  0.4688080000000 1.0
C      1  0.4950540000000  0.4998240000000  0.5986180000000 1.0
C      1  0.5546410000000  0.4860730000000  0.4193630000000 1.0
C      1  0.5565470000000  0.4452840000000  0.4513380000000 1.0
C      1  0.5195150000000  0.4982870000000  0.5574550000000 1.0
C      1  0.4592150000000  0.5800700000000  0.5682500000000 1.0
C      1  0.4509130000000  0.5547880000000  0.5804140000000 1.0
C      1  0.5360520000000  0.5435520000000  0.3866940000000 1.0
C      1  0.4607480000000  0.5430830000000  0.3997250000000 1.0
C      1  0.4971370000000  0.5751700000000  0.4179420000000 1.0
C      1  0.5449030000000  0.5968380000000  0.4691640000000 1.0
C      1  0.5089550000000  0.6036520000000  0.5512120000000 1.0
C      1  0.5241830000000  0.3860310000000  0.4590450000000 1.0
C      1  0.5608120000000  0.3756870000000  0.4872120000000 1.0
C      1  0.4292870000000  0.5155570000000  0.5004780000000 1.0
C      1  0.5705450000000  0.4848400000000  0.4787660000000 1.0
C      1  0.4153740000000  0.5562100000000  0.4726770000000 1.0
C      1  0.4448460000000  0.4954580000000  0.3855330000000 1.0
C      1  0.4302710000000  0.5794020000000  0.4586480000000 1.0
C      1  0.4932830000000  0.5272480000000  0.4346090000000 1.0
C      1  0.3909830000000  0.5090170000000  0.4947960000000 1.0
C      1  0.4556780000000  0.3970630000000  0.5275700000000 1.0
C      1  0.4518690000000  0.3939080000000  0.4561280000000 1.0
C      1  0.5402620000000  0.5690570000000  0.3984610000000 1.0
C      1  0.5357130000000  0.4643250000000  0.4608050000000 1.0
C      1  0.4560310000000  0.4734210000000  0.4458340000000 1.0
C      1  0.4541160000000  0.6076120000000  0.5295920000000 1.0
C      1  0.5613960000000  0.5934000000000  0.5161900000000 1.0
C      1  0.5397210000000  0.4965160000000  0.3857040000000 1.0
C      1  0.6102520000000  0.5660210000000  0.4947240000000 1.0
C      1  0.5104170000000  0.6038940000000  0.5202730000000 1.0
C      1  0.5561490000000  0.4940730000000  0.5327210000000 1.0
C      1  0.4600160000000  0.5013530000000  0.5338840000000 1.0
C      1  0.5248400000000  0.4041860000000  0.5048700000000 1.0
C      1  0.3998210000000  0.4462470000000  0.5248560000000 1.0
C      1  0.5699170000000  0.5949250000000  0.4869960000000 1.0
C      1  0.3946270000000  0.5196250000000  0.5253530000000 1.0
C      1  0.4772660000000  0.5162160000000  0.5549690000000 1.0
C      1  0.4382500000000  0.5207450000000  0.5313220000000 1.0
C      1  0.4454860000000  0.4673090000000  0.5096370000000 1.0
C      1  0.5350160000000  0.5308030000000  0.5195010000000 1.0
C      1  0.5795370000000  0.5391050000000  0.5697010000000 1.0
C      1  0.5319850000000  0.4635230000000  0.6029600000000 1.0
C      1  0.4695570000000  0.5932310000000  0.4838910000000 1.0
C      1  0.4518280000000  0.5629110000000  0.5110800000000 1.0
C      1  0.5895970000000  0.5107120000000  0.4313690000000 1.0
C      1  0.5917170000000  0.4508900000000  0.5223270000000 1.0
C      1  0.4954150000000  0.4473860000000  0.4380060000000 1.0
C      1  0.4850320000000  0.4306290000000  0.5791700000000 1.0
C      1  0.4360220000000  0.4148640000000  0.4442720000000 1.0
C      1  0.5840290000000  0.4250510000000  0.4840270000000 1.0
C      1  0.5083840000000  0.4875630000000  0.4073950000000 1.0
C      1  0.4831860000000  0.3875160000000  0.5263230000000 1.0
C      1  0.6038960000000  0.5178110000000  0.4810070000000 1.0
C      1  0.5800490000000  0.4653960000000  0.4571170000000 1.0
C      1  0.4894040000000  0.5448590000000  0.4077820000000 1.0
C      1  0.4422130000000  0.5519340000000  0.4204530000000 1.0
C      1  0.5834490000000  0.4814170000000  0.4299740000000 1.0
C      1  0.4635580000000  0.4236740000000  0.4929470000000 1.0
C      1  0.5341420000000  0.4331430000000  0.5020660000000 1.0
C      1  0.4925210000000  0.4644070000000  0.4882530000000 1.0
C      1  0.6035220000000  0.4909930000000  0.5450370000000 1.0
C      1  0.5358860000000  0.5426620000000  0.4492570000000 1.0
C      1  0.5412720000000  0.5486050000000  0.4764830000000 1.0
C      1  0.5378120000000  0.4354500000000  0.6047530000000 1.0
C      1  0.4467450000000  0.4117930000000  0.5506340000000 1.0
C      1  0.5298980000000  0.5822530000000  0.5133800000000 1.0
C      1  0.4278750000000  0.5290230000000  0.4355950000000 1.0
C      1  0.4672220000000  0.5066010000000  0.4622170000000 1.0
C      1  0.5699050000000  0.5271110000000  0.4160830000000 1.0
C      1  0.5931860000000  0.4925170000000  0.4960070000000 1.0
C      1  0.5163820000000  0.3986230000000  0.4343870000000 1.0
C      1  0.4864840000000  0.4137260000000  0.4735890000000 1.0
C      1  0.4035550000000  0.5372010000000  0.4525480000000 1.0
C      1  0.5294280000000  0.4518860000000  0.5403190000000 1.0
C      1  0.5631710000000  0.4928790000000  0.5623510000000 1.0
C      1  0.4838270000000  0.6180440000000  0.4766800000000 1.0
C      1  0.4880380000000  0.5861380000000  0.5672900000000 1.0
C      1  0.5546540000000  0.5210710000000  0.3919770000000 1.0
C      1  0.4183030000000  0.4272840000000  0.4632380000000 1.0
C      1  0.4785980000000  0.5304100000000  0.4974730000000 1.0
C      1  0.3952660000000  0.4919250000000  0.5404730000000 1.0
C      1  0.5017990000000  0.6211060000000  0.4986600000000 1.0
C      1  0.4258070000000  0.5833230000000  0.5064320000000 1.0
C      1  0.4194210000000  0.4191570000000  0.5538830000000 1.0
C      1  0.5342680000000  0.5925760000000  0.5624230000000 1.0
C      1  0.5146080000000  0.5243920000000  0.5992270000000 1.0
C      1  0.4545160000000  0.5482380000000  0.5379710000000 1.0
C      1  0.6057380000000  0.4646860000000  0.4995190000000 1.0
C      1  0.4419850000000  0.4322250000000  0.4228580000000 1.0
C      1  0.5382280000000  0.4922850000000  0.4453270000000 1.0
C      1  0.3951700000000  0.5115570000000  0.4646700000000 1.0
C      1  0.5489210000000  0.5925860000000  0.4394260000000 1.0
C      1  0.3838610000000  0.4621220000000  0.4749130000000 1.0
C      1  0.5184310000000  0.4477910000000  0.4788620000000 1.0
C      1  0.5624100000000  0.4340050000000  0.5750620000000 1.0
C      1  0.4090040000000  0.4875500000000  0.4508950000000 1.0
C      1  0.5594870000000  0.5190200000000  0.5769030000000 1.0
C      1  0.5763650000000  0.5837670000000  0.4337410000000 1.0
C      1  0.5846490000000  0.5253570000000  0.4580100000000 1.0
C      1  0.5848420000000  0.5768400000000  0.5421840000000 1.0
C      1  0.4653130000000  0.4339590000000  0.5572080000000 1.0
C      1  0.4185050000000  0.4455330000000  0.5650300000000 1.0
C      1  0.5893580000000  0.5745510000000  0.4786380000000 1.0
C      1  0.5693540000000  0.4046720000000  0.5258680000000 1.0
C      1  0.5304400000000  0.5692030000000  0.5791870000000 1.0
C      1  0.5058740000000  0.3966560000000  0.5477720000000 1.0
C      1  0.4207610000000  0.5000580000000  0.5808380000000 1.0
C      1  0.4487240000000  0.5284860000000  0.4576910000000 1.0
C      1  0.5429530000000  0.4599010000000  0.4086330000000 1.0
C      1  0.4027050000000  0.5650830000000  0.4998070000000 1.0
C      1  0.4554100000000  0.4657530000000  0.5913250000000 1.0
C      1  0.5127120000000  0.5516470000000  0.5240740000000 1.0
C      1  0.5997020000000  0.4489430000000  0.4744740000000 1.0
C      1  0.5447350000000  0.5579270000000  0.6015420000000 1.0
C      1  0.5309790000000  0.4142940000000  0.5871480000000 1.0
C      1  0.4174230000000  0.5223680000000  0.5633640000000 1.0
C      1  0.5053220000000  0.4104820000000  0.5747930000000 1.0
C      1  0.4060010000000  0.4799320000000  0.5655710000000 1.0
C      1  0.5579900000000  0.5084340000000  0.4670630000000 1.0
C      1  0.5060570000000  0.3927330000000  0.4837900000000 1.0
C      1  0.4669790000000  0.5394440000000  0.6002050000000 1.0
C      1  0.4222550000000  0.4482230000000  0.5072650000000 1.0
C      1  0.4569040000000  0.3814740000000  0.4822560000000 1.0
C      1  0.5499460000000  0.4364490000000  0.4233350000000 1.0
C      1  0.4244950000000  0.5486210000000  0.5704540000000 1.0
C      1  0.5151510000000  0.5048150000000  0.4835320000000 1.0
C      1  0.4859420000000  0.6126230000000  0.4485480000000 1.0
C      1  0.4338690000000  0.4779520000000  0.4651770000000 1.0
C      1  0.4822500000000  0.4538090000000  0.5979920000000 1.0
C      1  0.3827900000000  0.4806210000000  0.4962530000000 1.0
C      1  0.5100830000000  0.5045230000000  0.3812320000000 1.0
C      1  0.4295110000000  0.4243070000000  0.4909070000000 1.0
C      1  0.5051190000000  0.4885470000000  0.5060580000000 1.0
C      1  0.5072690000000  0.4285360000000  0.4574300000000 1.0
C      1  0.4933040000000  0.5543140000000  0.5010900000000 1.0
C      1  0.5567850000000  0.5672420000000  0.5442510000000 1.0
C      1  0.5717740000000  0.4306630000000  0.5106170000000 1.0
C      1  0.4008540000000  0.4501100000000  0.4562310000000 1.0
C      1  0.4412090000000  0.5890260000000  0.5474990000000 1.0
C      1  0.5073820000000  0.5519800000000  0.4478930000000 1.0
C      1  0.4692780000000  0.5891460000000  0.5134280000000 1.0
C      1  0.4948680000000  0.5475190000000  0.5997970000000 1.0
C      1  0.4204150000000  0.4995010000000  0.4256040000000 1.0
C      1  0.5370170000000  0.3989320000000  0.5465730000000 1.0
C      1  0.5039570000000  0.4721430000000  0.6079880000000 1.0
C      1  0.5852150000000  0.5020390000000  0.5249000000000 1.0
C      1  0.4528030000000  0.5209810000000  0.3849230000000 1.0
C      1  0.5122820000000  0.5034310000000  0.4319020000000 1.0
C      1  0.5296340000000  0.5220210000000  0.5722070000000 1.0
C      1  0.4811370000000  0.4451510000000  0.5329990000000 1.0
C      1  0.5785270000000  0.4594940000000  0.5748630000000 1.0
C      1  0.5401480000000  0.5323010000000  0.6147280000000 1.0
C      1  0.4908600000000  0.5460600000000  0.5484240000000 1.0
C      1  0.4936600000000  0.4960460000000  0.5686860000000 1.0
C      1  0.4391140000000  0.5951460000000  0.4811450000000 1.0
C      1  0.5939170000000  0.4647660000000  0.5485920000000 1.0
C      1  0.4459930000000  0.4532960000000  0.5674810000000 1.0
C      1  0.5883030000000  0.5634240000000  0.4518680000000 1.0
C      1  0.5274720000000  0.5806080000000  0.4207740000000 1.0
C      1  0.4384010000000  0.5396870000000  0.4836920000000 1.0
C      1  0.5282890000000  0.5754280000000  0.4831400000000 1.0
END
