TITL C-951333-8791-588 -3.29328038577889e-06 125000 -1095.17589555342 0 0 176 (C1) n - 1
REM
REM in /home/bkarasulu/work/CARBON/AIRSS/Generating-Clusters/EDIP-Nigel-Params/with-SteepDescent/Only-C1/SD-CG/HFTN-CG
REM
REM
REM
REM
REM
REM ./C.cell (11c1c37f851c82e70ff6c80c92926a4b)
REM
REM compiler GCC version 9.2.1 20190827 (Red Hat 9.2.1-1)
REM options -cpp -mtune=generic -march=x86-64 -g -O0 -fpre-include=/usr/include/finclude/math-vector-fortran.h
REM seed 1111097141 893128482 1206471124 -122502113 -424819118 -1841802675 1331998796 -2129048007 855220818 1087685527 1742509758 408160375 -1133200345 -1349283826 807220919 1753330967 286899006 1294987518 192827696 -1273839866 1893280071 -863081647 1216225158 -619540800 -1343075141 1091170388 2001519686 1964049035 1544559386 -1076731133 1928468352 2027059232 2093095117
REM
CELL 1.54180   50.00000   50.00000   50.00000   90.00000   90.00000   90.00000
LATT -1
SFAC C  
C      1  0.5055200000000  0.4669470000000  0.5061490000000 1.0
C      1  0.4827180000000  0.5066740000000  0.5238450000000 1.0
C      1  0.5789740000000  0.4334230000000  0.5313010000000 1.0
C      1  0.4668940000000  0.3973290000000  0.5353420000000 1.0
C      1  0.5505710000000  0.4807230000000  0.5339690000000 1.0
C      1  0.5012680000000  0.4217780000000  0.4825000000000 1.0
C      1  0.4431670000000  0.4552600000000  0.5773560000000 1.0
C      1  0.4868050000000  0.5069880000000  0.4598070000000 1.0
C      1  0.5547790000000  0.4537270000000  0.4189600000000 1.0
C      1  0.4970110000000  0.4677040000000  0.5391830000000 1.0
C      1  0.6039610000000  0.4888880000000  0.4910890000000 1.0
C      1  0.4425620000000  0.5198990000000  0.4193020000000 1.0
C      1  0.4356660000000  0.4910030000000  0.4161210000000 1.0
C      1  0.4534980000000  0.4534210000000  0.5274940000000 1.0
C      1  0.4747200000000  0.4119060000000  0.4947070000000 1.0
C      1  0.3904820000000  0.4908140000000  0.5113740000000 1.0
C      1  0.5072120000000  0.6012020000000  0.4943690000000 1.0
C      1  0.4776200000000  0.6067690000000  0.4950200000000 1.0
C      1  0.3929120000000  0.5409120000000  0.5304040000000 1.0
C      1  0.5794600000000  0.4668850000000  0.4165790000000 1.0
C      1  0.5050070000000  0.5623630000000  0.4645600000000 1.0
C      1  0.4996960000000  0.4665490000000  0.5853220000000 1.0
C      1  0.4566640000000  0.4747930000000  0.5005730000000 1.0
C      1  0.5492580000000  0.5838970000000  0.5283750000000 1.0
C      1  0.5169550000000  0.4072880000000  0.5374880000000 1.0
C      1  0.5353620000000  0.5599690000000  0.5718160000000 1.0
C      1  0.3844270000000  0.5274000000000  0.5548780000000 1.0
C      1  0.5525530000000  0.6043410000000  0.5051390000000 1.0
C      1  0.5602280000000  0.4181020000000  0.4554230000000 1.0
C      1  0.5257950000000  0.6173360000000  0.5111980000000 1.0
C      1  0.4412270000000  0.5421490000000  0.5318260000000 1.0
C      1  0.5499110000000  0.5368200000000  0.5462830000000 1.0
C      1  0.4410770000000  0.4272020000000  0.5171060000000 1.0
C      1  0.6090450000000  0.5033580000000  0.5383690000000 1.0
C      1  0.5185980000000  0.5269840000000  0.5508620000000 1.0
C      1  0.5754900000000  0.5156140000000  0.4702560000000 1.0
C      1  0.5494580000000  0.5907320000000  0.4775650000000 1.0
C      1  0.5633600000000  0.4410390000000  0.4750500000000 1.0
C      1  0.5911760000000  0.4438200000000  0.4815040000000 1.0
C      1  0.5497430000000  0.4940740000000  0.6018840000000 1.0
C      1  0.5793470000000  0.5175940000000  0.5016940000000 1.0
C      1  0.4475560000000  0.5801150000000  0.5584300000000 1.0
C      1  0.5878660000000  0.4904260000000  0.4298050000000 1.0
C      1  0.5287610000000  0.4040140000000  0.5636160000000 1.0
C      1  0.4177780000000  0.4849540000000  0.4383680000000 1.0
C      1  0.4855900000000  0.5642750000000  0.5839380000000 1.0
C      1  0.4355460000000  0.4744140000000  0.4801970000000 1.0
C      1  0.4771380000000  0.4902290000000  0.5466020000000 1.0
C      1  0.5455290000000  0.4003760000000  0.4977900000000 1.0
C      1  0.5348030000000  0.5382720000000  0.4013450000000 1.0
C      1  0.5225110000000  0.3885330000000  0.5149940000000 1.0
C      1  0.4743240000000  0.5579680000000  0.4140080000000 1.0
C      1  0.5060510000000  0.5624990000000  0.5626520000000 1.0
C      1  0.5023520000000  0.5202500000000  0.4351070000000 1.0
C      1  0.5103620000000  0.5299340000000  0.3902280000000 1.0
C      1  0.4736290000000  0.4949070000000  0.6068820000000 1.0
C      1  0.5852630000000  0.4118960000000  0.5146810000000 1.0
C      1  0.5513840000000  0.5266410000000  0.5158150000000 1.0
C      1  0.4576400000000  0.5182050000000  0.4608840000000 1.0
C      1  0.4278250000000  0.4434840000000  0.4245630000000 1.0
C      1  0.5696480000000  0.5190770000000  0.5602620000000 1.0
C      1  0.4884770000000  0.4169980000000  0.5358850000000 1.0
C      1  0.5939690000000  0.5381880000000  0.4592060000000 1.0
C      1  0.5241450000000  0.5728250000000  0.5157040000000 1.0
C      1  0.5943410000000  0.5515700000000  0.5328490000000 1.0
C      1  0.5408250000000  0.4885420000000  0.4775760000000 1.0
C      1  0.4304130000000  0.4980370000000  0.4621700000000 1.0
C      1  0.4905780000000  0.6030830000000  0.5425670000000 1.0
C      1  0.5319040000000  0.5572480000000  0.4251820000000 1.0
C      1  0.5550280000000  0.4683060000000  0.4606060000000 1.0
C      1  0.4303410000000  0.4273330000000  0.4885620000000 1.0
C      1  0.5170520000000  0.6084470000000  0.4448230000000 1.0
C      1  0.5941290000000  0.4787230000000  0.5471600000000 1.0
C      1  0.5020980000000  0.5149470000000  0.4850170000000 1.0
C      1  0.4762640000000  0.5636440000000  0.4717220000000 1.0
C      1  0.4286890000000  0.5673170000000  0.4377680000000 1.0
C      1  0.5200000000000  0.5023970000000  0.5677370000000 1.0
C      1  0.5323220000000  0.5862740000000  0.4188050000000 1.0
C      1  0.5761260000000  0.5167390000000  0.4183430000000 1.0
C      1  0.4827050000000  0.4678020000000  0.4878230000000 1.0
C      1  0.5375440000000  0.5493220000000  0.4984690000000 1.0
C      1  0.5302680000000  0.5067210000000  0.4364740000000 1.0
C      1  0.4333290000000  0.5847010000000  0.4709910000000 1.0
C      1  0.4011890000000  0.5251250000000  0.4791450000000 1.0
C      1  0.6247040000000  0.5314870000000  0.5023780000000 1.0
C      1  0.3857490000000  0.5034120000000  0.4874540000000 1.0
C      1  0.5522650000000  0.4339860000000  0.5390200000000 1.0
C      1  0.4422330000000  0.4099270000000  0.5521470000000 1.0
C      1  0.5974220000000  0.5419670000000  0.5055650000000 1.0
C      1  0.5132210000000  0.4059140000000  0.4593020000000 1.0
C      1  0.4130400000000  0.4566670000000  0.4461940000000 1.0
C      1  0.4732950000000  0.5468630000000  0.4957050000000 1.0
C      1  0.4652480000000  0.5313760000000  0.4048610000000 1.0
C      1  0.4570810000000  0.5042330000000  0.5091720000000 1.0
C      1  0.5833870000000  0.4617180000000  0.5245570000000 1.0
C      1  0.5993900000000  0.4623550000000  0.5002720000000 1.0
C      1  0.5442000000000  0.5148020000000  0.4632920000000 1.0
C      1  0.5200980000000  0.4927000000000  0.4974770000000 1.0
C      1  0.4676800000000  0.6086050000000  0.5232420000000 1.0
C      1  0.5568990000000  0.4741070000000  0.5831150000000 1.0
C      1  0.4534630000000  0.4174030000000  0.4751250000000 1.0
C      1  0.4532490000000  0.4276120000000  0.5756090000000 1.0
C      1  0.5199800000000  0.5910450000000  0.4687980000000 1.0
C      1  0.5081320000000  0.4699180000000  0.4119070000000 1.0
C      1  0.4087210000000  0.4524230000000  0.5382510000000 1.0
C      1  0.5185250000000  0.4412000000000  0.4970720000000 1.0
C      1  0.5417320000000  0.3978490000000  0.4679700000000 1.0
C      1  0.5460540000000  0.4258830000000  0.5652220000000 1.0
C      1  0.5196960000000  0.4253870000000  0.4380530000000 1.0
C      1  0.5816370000000  0.4872890000000  0.4589920000000 1.0
C      1  0.4167320000000  0.4235690000000  0.5355580000000 1.0
C      1  0.4571590000000  0.4740900000000  0.5946290000000 1.0
C      1  0.4474260000000  0.5887670000000  0.5315490000000 1.0
C      1  0.4049910000000  0.5186160000000  0.5708230000000 1.0
C      1  0.4155410000000  0.5584420000000  0.5366380000000 1.0
C      1  0.4548330000000  0.4075700000000  0.4478970000000 1.0
C      1  0.4454280000000  0.4947840000000  0.5531380000000 1.0
C      1  0.4000050000000  0.4632930000000  0.5116810000000 1.0
C      1  0.5672250000000  0.4882150000000  0.5576380000000 1.0
C      1  0.5332510000000  0.4609610000000  0.4023990000000 1.0
C      1  0.5229010000000  0.4765400000000  0.4391380000000 1.0
C      1  0.5362240000000  0.5014610000000  0.5198700000000 1.0
C      1  0.4583300000000  0.5595360000000  0.5744410000000 1.0
C      1  0.4525580000000  0.5270410000000  0.4898020000000 1.0
C      1  0.4495820000000  0.5331430000000  0.5861420000000 1.0
C      1  0.4726970000000  0.4621830000000  0.4412850000000 1.0
C      1  0.4522050000000  0.5748020000000  0.4228090000000 1.0
C      1  0.5182670000000  0.4731850000000  0.5613080000000 1.0
C      1  0.4958050000000  0.4233730000000  0.4220450000000 1.0
C      1  0.5190760000000  0.6140520000000  0.5405700000000 1.0
C      1  0.4317680000000  0.5118640000000  0.5753540000000 1.0
C      1  0.4363600000000  0.4175630000000  0.4297330000000 1.0
C      1  0.4814410000000  0.4029680000000  0.4378340000000 1.0
C      1  0.4986710000000  0.5744170000000  0.5358140000000 1.0
C      1  0.4047990000000  0.5253470000000  0.4509270000000 1.0
C      1  0.5152140000000  0.5409200000000  0.4822270000000 1.0
C      1  0.4792170000000  0.4443410000000  0.5445880000000 1.0
C      1  0.4942820000000  0.5426110000000  0.6013600000000 1.0
C      1  0.4975800000000  0.3815820000000  0.5009720000000 1.0
C      1  0.4626740000000  0.5901130000000  0.4743460000000 1.0
C      1  0.4721850000000  0.3786200000000  0.5140720000000 1.0
C      1  0.5883100000000  0.5581340000000  0.4813120000000 1.0
C      1  0.5392680000000  0.4483520000000  0.5827120000000 1.0
C      1  0.4901800000000  0.4764340000000  0.4595170000000 1.0
C      1  0.4157580000000  0.4524250000000  0.4806790000000 1.0
C      1  0.4348540000000  0.4652530000000  0.5498370000000 1.0
C      1  0.5474910000000  0.4282510000000  0.4311170000000 1.0
C      1  0.4234060000000  0.5380660000000  0.4334770000000 1.0
C      1  0.4055040000000  0.5117480000000  0.5262510000000 1.0
C      1  0.6204620000000  0.5044540000000  0.5103870000000 1.0
C      1  0.5049790000000  0.5511520000000  0.4365150000000 1.0
C      1  0.5381640000000  0.5939280000000  0.5533650000000 1.0
C      1  0.5716430000000  0.3903450000000  0.5055050000000 1.0
C      1  0.5950830000000  0.5278290000000  0.5487470000000 1.0
C      1  0.4198010000000  0.5696370000000  0.4925220000000 1.0
C      1  0.5241500000000  0.5066000000000  0.5961670000000 1.0
C      1  0.4363820000000  0.5112890000000  0.5299690000000 1.0
C      1  0.4213300000000  0.5822830000000  0.5193010000000 1.0
C      1  0.5086720000000  0.6007280000000  0.4195530000000 1.0
C      1  0.5020360000000  0.4867750000000  0.6071970000000 1.0
C      1  0.4823830000000  0.4261830000000  0.5788270000000 1.0
C      1  0.4909680000000  0.5173440000000  0.4065520000000 1.0
C      1  0.5526180000000  0.5496900000000  0.4475580000000 1.0
C      1  0.5786390000000  0.5424190000000  0.4349150000000 1.0
C      1  0.4223130000000  0.5387420000000  0.4975610000000 1.0
C      1  0.5030560000000  0.4396060000000  0.5933580000000 1.0
C      1  0.4739270000000  0.5219100000000  0.5962190000000 1.0
C      1  0.4475350000000  0.4628780000000  0.4128490000000 1.0
C      1  0.5232960000000  0.5380290000000  0.5971250000000 1.0
C      1  0.4729880000000  0.5532430000000  0.5249720000000 1.0
C      1  0.4910260000000  0.5308060000000  0.5358220000000 1.0
C      1  0.4843120000000  0.4514370000000  0.4161300000000 1.0
C      1  0.4629550000000  0.5480560000000  0.4500070000000 1.0
C      1  0.5579620000000  0.5622200000000  0.4769390000000 1.0
C      1  0.5465980000000  0.4317440000000  0.5012460000000 1.0
C      1  0.5469480000000  0.5134830000000  0.4116630000000 1.0
END
