TITL C-950531-5884-683 9.45520719560852e-07 125000 -370.345605401071 0 0 62 (C1) n - 1
REM
REM in /home/bkarasulu/work/CARBON/AIRSS/Generating-Clusters/EDIP-Nigel-Params/with-SteepDescent/Only-C1/SD-CG/HFTN-CG
REM
REM
REM
REM
REM
REM ./C.cell (11c1c37f851c82e70ff6c80c92926a4b)
REM
REM compiler GCC version 9.2.1 20190827 (Red Hat 9.2.1-1)
REM options -cpp -mtune=generic -march=x86-64 -g -O0 -fpre-include=/usr/include/finclude/math-vector-fortran.h
REM seed -483691818 -1068131621 -173839919 1402185113 1376976204 -719595327 501216985 1580273946 -132725621 -410420980 -934371709 -1354628212 -411084341 641417402 -549753285 463199545 -143800432 613654970 1593712867 -1086278045 -1756344051 1099587445 1855535915 -750721639 -223890972 -144947091 -192943006 -294083736 2079178709 -1638550294 -1125790814 -365267475 1299115890
REM
CELL 1.54180   50.00000   50.00000   50.00000   90.00000   90.00000   90.00000
LATT -1
SFAC C  
C      1  0.4855140000000  0.5207710000000  0.4793580000000 1.0
C      1  0.4961630000000  0.4691930000000  0.5065550000000 1.0
C      1  0.4995690000000  0.4274020000000  0.4695490000000 1.0
C      1  0.4374510000000  0.5007680000000  0.4881500000000 1.0
C      1  0.4745900000000  0.4344840000000  0.4812380000000 1.0
C      1  0.5381620000000  0.4514120000000  0.5241780000000 1.0
C      1  0.4465460000000  0.4741480000000  0.4865200000000 1.0
C      1  0.5112630000000  0.5151170000000  0.4913780000000 1.0
C      1  0.4838840000000  0.4821620000000  0.4807900000000 1.0
C      1  0.4783130000000  0.5033260000000  0.5653400000000 1.0
C      1  0.4502660000000  0.4740690000000  0.5365480000000 1.0
C      1  0.4868970000000  0.5156920000000  0.4357800000000 1.0
C      1  0.5756840000000  0.4727950000000  0.4983110000000 1.0
C      1  0.5479150000000  0.5384380000000  0.4626760000000 1.0
C      1  0.5367290000000  0.4812040000000  0.4789780000000 1.0
C      1  0.4593870000000  0.4797760000000  0.5640070000000 1.0
C      1  0.4261980000000  0.4858190000000  0.5282110000000 1.0
C      1  0.4724060000000  0.5307710000000  0.5540290000000 1.0
C      1  0.5234720000000  0.4589940000000  0.4989100000000 1.0
C      1  0.5455820000000  0.4968360000000  0.5295160000000 1.0
C      1  0.4679260000000  0.4703900000000  0.4412250000000 1.0
C      1  0.5598590000000  0.4708790000000  0.5247530000000 1.0
C      1  0.4572840000000  0.4456910000000  0.5296560000000 1.0
C      1  0.4759630000000  0.4551530000000  0.5687360000000 1.0
C      1  0.4549150000000  0.5647930000000  0.5016190000000 1.0
C      1  0.5049580000000  0.4627390000000  0.5648220000000 1.0
C      1  0.5030670000000  0.5161370000000  0.5195940000000 1.0
C      1  0.5596150000000  0.4625670000000  0.4732100000000 1.0
C      1  0.5138990000000  0.5027050000000  0.4337150000000 1.0
C      1  0.5339680000000  0.5033460000000  0.4565940000000 1.0
C      1  0.5622770000000  0.5164930000000  0.4504140000000 1.0
C      1  0.5144800000000  0.4923770000000  0.5312320000000 1.0
C      1  0.5054530000000  0.5671440000000  0.4886340000000 1.0
C      1  0.4413640000000  0.5547560000000  0.5241760000000 1.0
C      1  0.4828100000000  0.5717090000000  0.5067610000000 1.0
C      1  0.5189410000000  0.5523500000000  0.5510390000000 1.0
C      1  0.4471240000000  0.5401920000000  0.5463650000000 1.0
C      1  0.5239760000000  0.4345060000000  0.4818680000000 1.0
C      1  0.4594840000000  0.5175890000000  0.4887130000000 1.0
C      1  0.5055320000000  0.4914540000000  0.5598970000000 1.0
C      1  0.5578510000000  0.5172070000000  0.5082650000000 1.0
C      1  0.5226190000000  0.4490330000000  0.5475690000000 1.0
C      1  0.4568560000000  0.5523940000000  0.4506930000000 1.0
C      1  0.5409570000000  0.5550550000000  0.5322420000000 1.0
C      1  0.5811720000000  0.5023900000000  0.4944250000000 1.0
C      1  0.5311700000000  0.5581530000000  0.5027610000000 1.0
C      1  0.4950740000000  0.4657610000000  0.4487660000000 1.0
C      1  0.5376130000000  0.5323400000000  0.4899760000000 1.0
C      1  0.4799640000000  0.4432940000000  0.5098760000000 1.0
C      1  0.4947050000000  0.5416760000000  0.5375030000000 1.0
C      1  0.4655090000000  0.4330780000000  0.5539790000000 1.0
C      1  0.5499480000000  0.4355410000000  0.4704620000000 1.0
C      1  0.5123700000000  0.4751920000000  0.4287410000000 1.0
C      1  0.5009380000000  0.5579310000000  0.4615840000000 1.0
C      1  0.5602090000000  0.5329470000000  0.5330920000000 1.0
C      1  0.4830280000000  0.5453210000000  0.4430290000000 1.0
C      1  0.4648130000000  0.4974720000000  0.4327480000000 1.0
C      1  0.4570290000000  0.4558530000000  0.4664060000000 1.0
C      1  0.5832240000000  0.5084150000000  0.4670330000000 1.0
C      1  0.4186170000000  0.5033570000000  0.5088210000000 1.0
C      1  0.4473640000000  0.5600400000000  0.4749820000000 1.0
C      1  0.4900830000000  0.5714030000000  0.5340020000000 1.0
END
