TITL C-950535-5962-523 -8.58633359952759e-06 125000 -1207.45747561575 0 0 191 (C1) n - 1
REM
REM in /home/bkarasulu/work/CARBON/AIRSS/Generating-Clusters/EDIP-Nigel-Params/with-SteepDescent/Only-C1/SD-CG/HFTN-CG
REM
REM
REM
REM
REM
REM ./C.cell (11c1c37f851c82e70ff6c80c92926a4b)
REM
REM compiler GCC version 9.2.1 20190827 (Red Hat 9.2.1-1)
REM options -cpp -mtune=generic -march=x86-64 -g -O0 -fpre-include=/usr/include/finclude/math-vector-fortran.h
REM seed -1942586530 996558320 1570261418 936011043 314196843 1947743297 -415997977 -1140359043 455032154 -1803272162 -138819712 1518498246 1803949689 622454683 217736614 -1367266210 -308529149 -1192465301 595967843 -533707739 1396458816 -799147305 -1893984688 -186436230 -2141396054 197639547 1737435785 1861267828 1714342447 583838877 281234140 -1749459636 981055192
REM
CELL 1.54180   50.00000   50.00000   50.00000   90.00000   90.00000   90.00000
LATT -1
SFAC C  
C      1  0.5283950000000  0.4444400000000  0.4274680000000 1.0
C      1  0.4974960000000  0.4366550000000  0.5349620000000 1.0
C      1  0.5828220000000  0.4281630000000  0.5393920000000 1.0
C      1  0.5673670000000  0.4768480000000  0.4912160000000 1.0
C      1  0.6203420000000  0.4908960000000  0.4671810000000 1.0
C      1  0.5636730000000  0.5896040000000  0.5178020000000 1.0
C      1  0.4218230000000  0.4857690000000  0.4152390000000 1.0
C      1  0.4672660000000  0.4645660000000  0.4617120000000 1.0
C      1  0.5426680000000  0.5423240000000  0.4948120000000 1.0
C      1  0.4582750000000  0.5687030000000  0.5687180000000 1.0
C      1  0.5017530000000  0.5900400000000  0.5641830000000 1.0
C      1  0.4639480000000  0.5039370000000  0.5543710000000 1.0
C      1  0.5735600000000  0.5487510000000  0.4911760000000 1.0
C      1  0.4052710000000  0.4745400000000  0.5013260000000 1.0
C      1  0.4979160000000  0.5537550000000  0.4624590000000 1.0
C      1  0.5497960000000  0.5125090000000  0.5322390000000 1.0
C      1  0.5230480000000  0.4707050000000  0.5103170000000 1.0
C      1  0.5017170000000  0.4707500000000  0.5618220000000 1.0
C      1  0.4120840000000  0.5675540000000  0.5014730000000 1.0
C      1  0.5723390000000  0.4112020000000  0.5189420000000 1.0
C      1  0.5280600000000  0.4602140000000  0.4008410000000 1.0
C      1  0.5268540000000  0.5608430000000  0.4715190000000 1.0
C      1  0.4796960000000  0.4726620000000  0.6093200000000 1.0
C      1  0.5057400000000  0.6198750000000  0.4974030000000 1.0
C      1  0.4593120000000  0.5824020000000  0.4493260000000 1.0
C      1  0.4789030000000  0.4911140000000  0.5303650000000 1.0
C      1  0.5339450000000  0.5639160000000  0.5850320000000 1.0
C      1  0.5661100000000  0.5419710000000  0.4203900000000 1.0
C      1  0.4406000000000  0.4159320000000  0.5080370000000 1.0
C      1  0.4922780000000  0.4018170000000  0.5604800000000 1.0
C      1  0.5132590000000  0.6122970000000  0.4539970000000 1.0
C      1  0.4709150000000  0.5029870000000  0.3839250000000 1.0
C      1  0.6006330000000  0.5631920000000  0.4545470000000 1.0
C      1  0.4534140000000  0.4034920000000  0.4775210000000 1.0
C      1  0.5202650000000  0.5365640000000  0.3977810000000 1.0
C      1  0.5375030000000  0.5143810000000  0.4861450000000 1.0
C      1  0.5460480000000  0.5872300000000  0.4329670000000 1.0
C      1  0.4283840000000  0.5108680000000  0.5320300000000 1.0
C      1  0.4817860000000  0.5475950000000  0.4890660000000 1.0
C      1  0.4547340000000  0.4430350000000  0.5059940000000 1.0
C      1  0.5512150000000  0.5630110000000  0.4487620000000 1.0
C      1  0.3746860000000  0.5032600000000  0.5099450000000 1.0
C      1  0.5763140000000  0.5515330000000  0.5676690000000 1.0
C      1  0.5521590000000  0.5111150000000  0.4612340000000 1.0
C      1  0.5568950000000  0.4868580000000  0.4212100000000 1.0
C      1  0.5577490000000  0.4003850000000  0.4782790000000 1.0
C      1  0.4033000000000  0.4762690000000  0.5446860000000 1.0
C      1  0.5808230000000  0.5669010000000  0.5135450000000 1.0
C      1  0.4682460000000  0.5977060000000  0.4726960000000 1.0
C      1  0.5463150000000  0.4815340000000  0.6009930000000 1.0
C      1  0.4842990000000  0.4250990000000  0.4365250000000 1.0
C      1  0.4870060000000  0.5441560000000  0.5358470000000 1.0
C      1  0.6237050000000  0.5202770000000  0.4636540000000 1.0
C      1  0.5135770000000  0.4396720000000  0.5908370000000 1.0
C      1  0.4468340000000  0.5121110000000  0.5978760000000 1.0
C      1  0.4849360000000  0.4436210000000  0.5075880000000 1.0
C      1  0.5792400000000  0.4157850000000  0.4911840000000 1.0
C      1  0.4274570000000  0.5752720000000  0.5266090000000 1.0
C      1  0.5752320000000  0.5677650000000  0.4675650000000 1.0
C      1  0.4428580000000  0.5067380000000  0.3924820000000 1.0
C      1  0.5105900000000  0.4604350000000  0.4442820000000 1.0
C      1  0.4140880000000  0.5492990000000  0.4460330000000 1.0
C      1  0.4486390000000  0.4724140000000  0.5714300000000 1.0
C      1  0.4857470000000  0.5256940000000  0.4313210000000 1.0
C      1  0.5455310000000  0.4936610000000  0.5077020000000 1.0
C      1  0.4731730000000  0.4552080000000  0.5547890000000 1.0
C      1  0.4865280000000  0.5112550000000  0.5780170000000 1.0
C      1  0.4976620000000  0.4850320000000  0.5893050000000 1.0
C      1  0.4508390000000  0.5024820000000  0.4866180000000 1.0
C      1  0.4654320000000  0.4285260000000  0.5982760000000 1.0
C      1  0.5224130000000  0.4023460000000  0.4500240000000 1.0
C      1  0.6075970000000  0.5101940000000  0.5107610000000 1.0
C      1  0.5116180000000  0.4181590000000  0.4276130000000 1.0
C      1  0.3953170000000  0.5347490000000  0.5429460000000 1.0
C      1  0.5540310000000  0.5708480000000  0.5642680000000 1.0
C      1  0.5696260000000  0.5025690000000  0.5800930000000 1.0
C      1  0.4737510000000  0.5904090000000  0.5566510000000 1.0
C      1  0.3988010000000  0.5341690000000  0.4660340000000 1.0
C      1  0.5381200000000  0.4145850000000  0.5521490000000 1.0
C      1  0.5058270000000  0.5058220000000  0.4436490000000 1.0
C      1  0.4379150000000  0.4160400000000  0.4444210000000 1.0
C      1  0.5522640000000  0.4731510000000  0.3971550000000 1.0
C      1  0.5273700000000  0.5827830000000  0.4122750000000 1.0
C      1  0.4615000000000  0.4579540000000  0.4008580000000 1.0
C      1  0.4734030000000  0.5280920000000  0.5989590000000 1.0
C      1  0.5692130000000  0.5316220000000  0.5882060000000 1.0
C      1  0.5509230000000  0.4107110000000  0.4522420000000 1.0
C      1  0.4143130000000  0.4880960000000  0.4459590000000 1.0
C      1  0.5844920000000  0.4954020000000  0.4275930000000 1.0
C      1  0.5943220000000  0.4627160000000  0.5012360000000 1.0
C      1  0.5185070000000  0.5734730000000  0.5171530000000 1.0
C      1  0.5409420000000  0.6070090000000  0.4538760000000 1.0
C      1  0.5401700000000  0.4526960000000  0.5983780000000 1.0
C      1  0.4578270000000  0.5108300000000  0.4357870000000 1.0
C      1  0.4521230000000  0.4813380000000  0.6002700000000 1.0
C      1  0.5242240000000  0.5865940000000  0.4892180000000 1.0
C      1  0.4320460000000  0.5636350000000  0.5549730000000 1.0
C      1  0.5050510000000  0.5672570000000  0.5809450000000 1.0
C      1  0.5621890000000  0.4278540000000  0.5603270000000 1.0
C      1  0.4446570000000  0.6009020000000  0.4896390000000 1.0
C      1  0.5349870000000  0.5386560000000  0.5252850000000 1.0
C      1  0.5224920000000  0.4972240000000  0.6003490000000 1.0
C      1  0.5271960000000  0.4510560000000  0.4893820000000 1.0
C      1  0.5934370000000  0.4542500000000  0.5307180000000 1.0
C      1  0.3981670000000  0.5433280000000  0.4941030000000 1.0
C      1  0.5259180000000  0.4537680000000  0.5354880000000 1.0
C      1  0.5394790000000  0.5324070000000  0.4197890000000 1.0
C      1  0.5916980000000  0.4955200000000  0.5597750000000 1.0
C      1  0.4092710000000  0.4560070000000  0.4504840000000 1.0
C      1  0.4639180000000  0.4055340000000  0.4409190000000 1.0
C      1  0.3908740000000  0.5062300000000  0.4591470000000 1.0
C      1  0.5103180000000  0.5644240000000  0.3986590000000 1.0
C      1  0.5151710000000  0.4174270000000  0.5708010000000 1.0
C      1  0.4121780000000  0.4955810000000  0.5642310000000 1.0
C      1  0.4931700000000  0.6133720000000  0.4732110000000 1.0
C      1  0.5029280000000  0.4348740000000  0.4832920000000 1.0
C      1  0.5452580000000  0.5009550000000  0.5599850000000 1.0
C      1  0.4769970000000  0.5571500000000  0.5895330000000 1.0
C      1  0.4423270000000  0.5247250000000  0.4144120000000 1.0
C      1  0.4884400000000  0.5661680000000  0.5159910000000 1.0
C      1  0.4971470000000  0.4813080000000  0.4297610000000 1.0
C      1  0.4139150000000  0.4285400000000  0.5206570000000 1.0
C      1  0.5767110000000  0.4978550000000  0.4719460000000 1.0
C      1  0.5055310000000  0.4813040000000  0.4008120000000 1.0
C      1  0.4389620000000  0.5019850000000  0.4585990000000 1.0
C      1  0.4854900000000  0.5594080000000  0.4128700000000 1.0
C      1  0.4235640000000  0.5830410000000  0.4798300000000 1.0
C      1  0.4950660000000  0.5187190000000  0.4015860000000 1.0
C      1  0.4798320000000  0.4746190000000  0.3855560000000 1.0
C      1  0.5440430000000  0.4682010000000  0.5578350000000 1.0
C      1  0.5443910000000  0.4037760000000  0.5243160000000 1.0
C      1  0.4319190000000  0.4464150000000  0.5691540000000 1.0
C      1  0.5380290000000  0.5074680000000  0.4353240000000 1.0
C      1  0.5629920000000  0.4449830000000  0.5826730000000 1.0
C      1  0.5976480000000  0.5157030000000  0.5391130000000 1.0
C      1  0.4210250000000  0.4512040000000  0.5412130000000 1.0
C      1  0.5053160000000  0.4974980000000  0.5408690000000 1.0
C      1  0.6155970000000  0.4841950000000  0.4968630000000 1.0
C      1  0.4969280000000  0.6145390000000  0.5235350000000 1.0
C      1  0.4553760000000  0.4008910000000  0.5288320000000 1.0
C      1  0.4794440000000  0.3896830000000  0.5163230000000 1.0
C      1  0.4767970000000  0.4861380000000  0.4816200000000 1.0
C      1  0.5957470000000  0.4394620000000  0.4810820000000 1.0
C      1  0.6035860000000  0.5633850000000  0.5291720000000 1.0
C      1  0.4273980000000  0.5174270000000  0.5751730000000 1.0
C      1  0.5807430000000  0.4712870000000  0.5496370000000 1.0
C      1  0.5338980000000  0.3963870000000  0.4966750000000 1.0
C      1  0.4259070000000  0.4404720000000  0.4311720000000 1.0
C      1  0.4597280000000  0.5334870000000  0.5432180000000 1.0
C      1  0.5882140000000  0.4497530000000  0.4535880000000 1.0
C      1  0.3792840000000  0.4814080000000  0.5291160000000 1.0
C      1  0.5930400000000  0.5217910000000  0.4861800000000 1.0
C      1  0.3787870000000  0.4927540000000  0.4821300000000 1.0
C      1  0.5014150000000  0.3990050000000  0.5327600000000 1.0
C      1  0.4020920000000  0.4440430000000  0.4983900000000 1.0
C      1  0.5072970000000  0.5248950000000  0.5256410000000 1.0
C      1  0.4902270000000  0.4451280000000  0.4577180000000 1.0
C      1  0.4459290000000  0.4535290000000  0.4804540000000 1.0
C      1  0.5090150000000  0.4047170000000  0.4793110000000 1.0
C      1  0.6066950000000  0.5368220000000  0.4470660000000 1.0
C      1  0.4809720000000  0.3927890000000  0.4870700000000 1.0
C      1  0.4842000000000  0.5688320000000  0.4402580000000 1.0
C      1  0.4875830000000  0.4441210000000  0.6053580000000 1.0
C      1  0.5844680000000  0.5243170000000  0.4337280000000 1.0
C      1  0.5188640000000  0.5967670000000  0.5395590000000 1.0
C      1  0.4155550000000  0.5408380000000  0.5620780000000 1.0
C      1  0.4663940000000  0.4794650000000  0.4325570000000 1.0
C      1  0.5527680000000  0.5967100000000  0.4817540000000 1.0
C      1  0.4333570000000  0.4875690000000  0.5112590000000 1.0
C      1  0.5006340000000  0.5236350000000  0.4942730000000 1.0
C      1  0.4197010000000  0.4425890000000  0.4748420000000 1.0
C      1  0.5966570000000  0.5437720000000  0.5478460000000 1.0
C      1  0.4402000000000  0.5389280000000  0.5190060000000 1.0
C      1  0.4888710000000  0.4744070000000  0.5068340000000 1.0
C      1  0.4977530000000  0.5029130000000  0.4724070000000 1.0
C      1  0.5570790000000  0.4415220000000  0.4490300000000 1.0
C      1  0.4551470000000  0.5322510000000  0.4934720000000 1.0
C      1  0.4745920000000  0.5930760000000  0.5271990000000 1.0
C      1  0.5409200000000  0.5376520000000  0.5952550000000 1.0
C      1  0.5947090000000  0.4808850000000  0.4520410000000 1.0
C      1  0.4496880000000  0.4238020000000  0.5756520000000 1.0
C      1  0.4330260000000  0.5691030000000  0.4564000000000 1.0
C      1  0.5251430000000  0.5181090000000  0.5789490000000 1.0
C      1  0.4342970000000  0.4596550000000  0.4103060000000 1.0
C      1  0.5501590000000  0.4572490000000  0.4746460000000 1.0
C      1  0.4187050000000  0.5372490000000  0.4215310000000 1.0
C      1  0.4466510000000  0.5967860000000  0.5182800000000 1.0
C      1  0.5491460000000  0.5916250000000  0.5433110000000 1.0
C      1  0.4459880000000  0.4623300000000  0.5277650000000 1.0
C      1  0.3907370000000  0.5266880000000  0.5161640000000 1.0
C      1  0.4654630000000  0.4133090000000  0.5537330000000 1.0
END
