TITL C-950529-3362-455 -8.93707474410611e-07 125000 -1051.02129025086 0 0 167 (C1) n - 1
REM
REM in /home/bkarasulu/work/CARBON/AIRSS/Generating-Clusters/EDIP-Nigel-Params/with-SteepDescent/Only-C1/SD-CG/HFTN-CG
REM
REM
REM
REM
REM
REM ./C.cell (11c1c37f851c82e70ff6c80c92926a4b)
REM
REM compiler GCC version 9.2.1 20190827 (Red Hat 9.2.1-1)
REM options -cpp -mtune=generic -march=x86-64 -g -O0 -fpre-include=/usr/include/finclude/math-vector-fortran.h
REM seed 1944627870 1344284646 882230340 -2105775921 809010801 -681239944 1026381458 -1453823308 -12562073 1195785227 220604304 594266845 -721749324 221133458 -1134990475 -1706900597 -1368906834 -1261871340 1816652952 334451285 1292393619 -507089293 -651968623 -214183731 -1773182537 -924679599 -513129159 579300464 -442680557 -1151524229 2021878633 912209145 781002116
REM
CELL 1.54180   50.00000   50.00000   50.00000   90.00000   90.00000   90.00000
LATT -1
SFAC C  
C      1  0.4570800000000  0.5405120000000  0.3958730000000 1.0
C      1  0.4601380000000  0.5376310000000  0.5826670000000 1.0
C      1  0.4945090000000  0.5706160000000  0.5948090000000 1.0
C      1  0.5987210000000  0.5256980000000  0.4787250000000 1.0
C      1  0.5283740000000  0.4791720000000  0.4943660000000 1.0
C      1  0.4903130000000  0.5070120000000  0.4587090000000 1.0
C      1  0.5109360000000  0.4572660000000  0.6183050000000 1.0
C      1  0.5652580000000  0.4162500000000  0.5429430000000 1.0
C      1  0.4860830000000  0.6033460000000  0.5115010000000 1.0
C      1  0.5037530000000  0.4500150000000  0.5280780000000 1.0
C      1  0.4228120000000  0.5601040000000  0.4759680000000 1.0
C      1  0.4581770000000  0.3867420000000  0.4686600000000 1.0
C      1  0.4554040000000  0.4862150000000  0.5245730000000 1.0
C      1  0.5180700000000  0.5873620000000  0.5505120000000 1.0
C      1  0.5758180000000  0.5606140000000  0.5043830000000 1.0
C      1  0.5832170000000  0.4307920000000  0.5009140000000 1.0
C      1  0.5533540000000  0.4680800000000  0.4121520000000 1.0
C      1  0.5267930000000  0.4120240000000  0.4305250000000 1.0
C      1  0.5938260000000  0.4654210000000  0.5403540000000 1.0
C      1  0.5693600000000  0.5117870000000  0.5826650000000 1.0
C      1  0.5017310000000  0.5464090000000  0.5500390000000 1.0
C      1  0.4425150000000  0.5094960000000  0.4721040000000 1.0
C      1  0.4042540000000  0.5167990000000  0.4619280000000 1.0
C      1  0.5364870000000  0.5926710000000  0.5069420000000 1.0
C      1  0.4334070000000  0.4261200000000  0.5068690000000 1.0
C      1  0.5248420000000  0.4609600000000  0.4100080000000 1.0
C      1  0.5548230000000  0.5744480000000  0.5203030000000 1.0
C      1  0.4320620000000  0.5344270000000  0.5344730000000 1.0
C      1  0.4887440000000  0.4375300000000  0.4275170000000 1.0
C      1  0.4800180000000  0.5309880000000  0.5391190000000 1.0
C      1  0.4722260000000  0.5651310000000  0.4066190000000 1.0
C      1  0.5919620000000  0.5162520000000  0.5293010000000 1.0
C      1  0.5396460000000  0.5354470000000  0.5055080000000 1.0
C      1  0.4827530000000  0.3936560000000  0.4570590000000 1.0
C      1  0.4834290000000  0.6055640000000  0.4824020000000 1.0
C      1  0.6045040000000  0.4870860000000  0.5225420000000 1.0
C      1  0.5945360000000  0.5367640000000  0.5066090000000 1.0
C      1  0.5188710000000  0.5098280000000  0.4106260000000 1.0
C      1  0.5185640000000  0.4244110000000  0.5067920000000 1.0
C      1  0.5337620000000  0.5012210000000  0.6188760000000 1.0
C      1  0.4380460000000  0.4470340000000  0.4847130000000 1.0
C      1  0.3954970000000  0.4650830000000  0.4700610000000 1.0
C      1  0.5743020000000  0.5416070000000  0.4276560000000 1.0
C      1  0.5017350000000  0.5291780000000  0.6050730000000 1.0
C      1  0.5675960000000  0.4779320000000  0.5471860000000 1.0
C      1  0.5530100000000  0.5612810000000  0.4212240000000 1.0
C      1  0.5377040000000  0.5992700000000  0.4799320000000 1.0
C      1  0.5255850000000  0.4232630000000  0.5722330000000 1.0
C      1  0.5148630000000  0.4667240000000  0.5759910000000 1.0
C      1  0.5662620000000  0.4600630000000  0.4629070000000 1.0
C      1  0.4317620000000  0.5267640000000  0.5818630000000 1.0
C      1  0.5342300000000  0.5531770000000  0.3995200000000 1.0
C      1  0.5670300000000  0.5177280000000  0.4111560000000 1.0
C      1  0.4371430000000  0.5304020000000  0.4153200000000 1.0
C      1  0.4577100000000  0.4141850000000  0.5160520000000 1.0
C      1  0.5442170000000  0.5715790000000  0.5475740000000 1.0
C      1  0.5065770000000  0.5294400000000  0.4704620000000 1.0
C      1  0.4721670000000  0.5172070000000  0.5657540000000 1.0
C      1  0.5519270000000  0.4991330000000  0.4989560000000 1.0
C      1  0.3896220000000  0.4900510000000  0.5189650000000 1.0
C      1  0.4624620000000  0.5913420000000  0.5237240000000 1.0
C      1  0.4146740000000  0.4967810000000  0.4411500000000 1.0
C      1  0.5680130000000  0.4838560000000  0.5759880000000 1.0
C      1  0.4781610000000  0.3971990000000  0.5122250000000 1.0
C      1  0.5319890000000  0.4625630000000  0.4699780000000 1.0
C      1  0.4901400000000  0.4221510000000  0.4524480000000 1.0
C      1  0.5560160000000  0.4033980000000  0.4690280000000 1.0
C      1  0.4235650000000  0.5477840000000  0.5603970000000 1.0
C      1  0.5156490000000  0.4989280000000  0.5376800000000 1.0
C      1  0.5057030000000  0.5077420000000  0.6264380000000 1.0
C      1  0.4364570000000  0.5929870000000  0.5081030000000 1.0
C      1  0.4365580000000  0.4522350000000  0.4513740000000 1.0
C      1  0.5506000000000  0.4663610000000  0.5906210000000 1.0
C      1  0.5412650000000  0.5243460000000  0.3957320000000 1.0
C      1  0.4648060000000  0.5822850000000  0.5518450000000 1.0
C      1  0.4113270000000  0.4682900000000  0.4469160000000 1.0
C      1  0.4261900000000  0.4960690000000  0.4931740000000 1.0
C      1  0.5754590000000  0.4866980000000  0.4528840000000 1.0
C      1  0.4426350000000  0.5069270000000  0.5421330000000 1.0
C      1  0.4086600000000  0.5344800000000  0.5153910000000 1.0
C      1  0.4583330000000  0.5473550000000  0.5256310000000 1.0
C      1  0.4011950000000  0.5101250000000  0.5001040000000 1.0
C      1  0.5150550000000  0.4331520000000  0.4147870000000 1.0
C      1  0.5295680000000  0.4015340000000  0.4573320000000 1.0
C      1  0.4662750000000  0.5475160000000  0.4503670000000 1.0
C      1  0.4362180000000  0.5884560000000  0.4783050000000 1.0
C      1  0.4482170000000  0.4752620000000  0.5777200000000 1.0
C      1  0.5476140000000  0.5201000000000  0.5998560000000 1.0
C      1  0.5211790000000  0.5626360000000  0.6039990000000 1.0
C      1  0.5598150000000  0.4143850000000  0.4958330000000 1.0
C      1  0.4163610000000  0.4672470000000  0.4909010000000 1.0
C      1  0.5476580000000  0.5290430000000  0.5359770000000 1.0
C      1  0.4988240000000  0.5131890000000  0.5795190000000 1.0
C      1  0.5089520000000  0.5681600000000  0.4399690000000 1.0
C      1  0.5982080000000  0.4790260000000  0.4948640000000 1.0
C      1  0.4748230000000  0.5213450000000  0.4369920000000 1.0
C      1  0.5228250000000  0.5229850000000  0.5554380000000 1.0
C      1  0.5736720000000  0.5663850000000  0.4759240000000 1.0
C      1  0.4628140000000  0.5909350000000  0.4657140000000 1.0
C      1  0.4958790000000  0.5130570000000  0.5194350000000 1.0
C      1  0.5460560000000  0.4584020000000  0.5430180000000 1.0
C      1  0.5817480000000  0.4563390000000  0.4881950000000 1.0
C      1  0.4074550000000  0.5456330000000  0.4539040000000 1.0
C      1  0.4470110000000  0.4450660000000  0.5779900000000 1.0
C      1  0.5132690000000  0.4372790000000  0.4768510000000 1.0
C      1  0.5366720000000  0.4717850000000  0.6148490000000 1.0
C      1  0.5109700000000  0.5303410000000  0.5000530000000 1.0
C      1  0.4934140000000  0.4814900000000  0.6161410000000 1.0
C      1  0.4738150000000  0.5185530000000  0.3845180000000 1.0
C      1  0.4765270000000  0.5472890000000  0.6053670000000 1.0
C      1  0.4658770000000  0.5471020000000  0.4974640000000 1.0
C      1  0.5592810000000  0.4936450000000  0.4281680000000 1.0
C      1  0.5048150000000  0.4391290000000  0.5846360000000 1.0
C      1  0.5635230000000  0.5038360000000  0.5285900000000 1.0
C      1  0.4772020000000  0.4344770000000  0.5702480000000 1.0
C      1  0.5891310000000  0.4985760000000  0.4761710000000 1.0
C      1  0.5317860000000  0.5034180000000  0.4369830000000 1.0
C      1  0.4133250000000  0.5812770000000  0.5191170000000 1.0
C      1  0.5745570000000  0.4398730000000  0.4428160000000 1.0
C      1  0.4772390000000  0.4908870000000  0.3955550000000 1.0
C      1  0.4404740000000  0.5709800000000  0.5618190000000 1.0
C      1  0.4931240000000  0.5547050000000  0.4614560000000 1.0
C      1  0.4779930000000  0.4435410000000  0.5419470000000 1.0
C      1  0.5490140000000  0.4342060000000  0.5600440000000 1.0
C      1  0.4408650000000  0.5038210000000  0.4282170000000 1.0
C      1  0.4875220000000  0.4521320000000  0.4841110000000 1.0
C      1  0.5543740000000  0.5260540000000  0.4762080000000 1.0
C      1  0.5070710000000  0.4838520000000  0.4013800000000 1.0
C      1  0.5879260000000  0.4324610000000  0.5299150000000 1.0
C      1  0.4474840000000  0.5406450000000  0.4752340000000 1.0
C      1  0.5032710000000  0.5575780000000  0.4123100000000 1.0
C      1  0.5765970000000  0.5320150000000  0.5612920000000 1.0
C      1  0.4265060000000  0.4373510000000  0.5576450000000 1.0
C      1  0.4599130000000  0.5712480000000  0.4327680000000 1.0
C      1  0.4994190000000  0.4694660000000  0.5046380000000 1.0
C      1  0.5328040000000  0.5291830000000  0.4559290000000 1.0
C      1  0.4193800000000  0.4412550000000  0.5298620000000 1.0
C      1  0.4935700000000  0.5728920000000  0.5630890000000 1.0
C      1  0.4786740000000  0.4920220000000  0.5065140000000 1.0
C      1  0.5076430000000  0.3879860000000  0.4734790000000 1.0
C      1  0.4853080000000  0.5675600000000  0.4867590000000 1.0
C      1  0.5487320000000  0.4058650000000  0.5208400000000 1.0
C      1  0.5040800000000  0.3979400000000  0.5022380000000 1.0
C      1  0.5364000000000  0.5601400000000  0.4457660000000 1.0
C      1  0.5129130000000  0.5972790000000  0.5230750000000 1.0
C      1  0.5705210000000  0.4466570000000  0.4164100000000 1.0
C      1  0.4073250000000  0.5597420000000  0.5017890000000 1.0
C      1  0.5164870000000  0.4794870000000  0.4490670000000 1.0
C      1  0.4039740000000  0.4645270000000  0.5181670000000 1.0
C      1  0.4541720000000  0.4545280000000  0.4254620000000 1.0
C      1  0.4883690000000  0.4679740000000  0.4379170000000 1.0
C      1  0.4696450000000  0.4950710000000  0.4761860000000 1.0
C      1  0.4948260000000  0.4854240000000  0.5865620000000 1.0
C      1  0.4177320000000  0.4044860000000  0.4955040000000 1.0
C      1  0.5741410000000  0.4133820000000  0.4504910000000 1.0
C      1  0.5394130000000  0.5459220000000  0.5898340000000 1.0
C      1  0.4546720000000  0.4817850000000  0.4131290000000 1.0
C      1  0.4707450000000  0.4669860000000  0.4640600000000 1.0
C      1  0.4323910000000  0.4983710000000  0.5686110000000 1.0
C      1  0.4950380000000  0.5278800000000  0.4145600000000 1.0
C      1  0.4554340000000  0.4628470000000  0.5422080000000 1.0
C      1  0.5574220000000  0.5557950000000  0.5688920000000 1.0
C      1  0.5795410000000  0.5412000000000  0.4616380000000 1.0
C      1  0.4198150000000  0.5478510000000  0.4288900000000 1.0
C      1  0.5485650000000  0.5769760000000  0.4671540000000 1.0
C      1  0.4337580000000  0.3898230000000  0.4793710000000 1.0
C      1  0.5193440000000  0.4694270000000  0.5461140000000 1.0
END
