TITL C-950524-1808-265 -1.66699311788947e-06 125000 -723.544975217615 0 0 117 (C1) n - 1
REM
REM in /home/bkarasulu/work/CARBON/AIRSS/Generating-Clusters/EDIP-Nigel-Params/with-SteepDescent/Only-C1/SD-CG/HFTN-CG
REM
REM
REM
REM
REM
REM ./C.cell (11c1c37f851c82e70ff6c80c92926a4b)
REM
REM compiler GCC version 9.2.1 20190827 (Red Hat 9.2.1-1)
REM options -cpp -mtune=generic -march=x86-64 -g -O0 -fpre-include=/usr/include/finclude/math-vector-fortran.h
REM seed -773162348 -1614646329 -1182958545 -478946926 262663725 906005847 48585366 -966644885 458712803 735950249 1966309765 -934153298 -918655778 1479136264 2043907574 -651402016 -579959901 -1017693224 -1131648993 390932372 -1947241038 -1098710013 646664146 -1037126202 -1578131096 1402729775 2003051973 534970956 167627900 -1711825030 -1541279228 -917749298 760398432
REM
CELL 1.54180   50.00000   50.00000   50.00000   90.00000   90.00000   90.00000
LATT -1
SFAC C  
C      1  0.5819240000000  0.5240410000000  0.4694960000000 1.0
C      1  0.4164730000000  0.4891770000000  0.5502630000000 1.0
C      1  0.5304610000000  0.5866220000000  0.4757780000000 1.0
C      1  0.4923750000000  0.4038310000000  0.4990320000000 1.0
C      1  0.5120740000000  0.5318640000000  0.5046910000000 1.0
C      1  0.4184460000000  0.5349860000000  0.4563460000000 1.0
C      1  0.4953760000000  0.4462630000000  0.5239200000000 1.0
C      1  0.4633560000000  0.5229860000000  0.4856900000000 1.0
C      1  0.5450960000000  0.4869550000000  0.5909610000000 1.0
C      1  0.5646700000000  0.4510690000000  0.5314940000000 1.0
C      1  0.5075060000000  0.5905330000000  0.5345100000000 1.0
C      1  0.4251160000000  0.4616120000000  0.5483300000000 1.0
C      1  0.4942080000000  0.4903880000000  0.5441290000000 1.0
C      1  0.4108350000000  0.4691520000000  0.4999550000000 1.0
C      1  0.4482750000000  0.5406570000000  0.5084570000000 1.0
C      1  0.4986770000000  0.4756090000000  0.5795610000000 1.0
C      1  0.5375210000000  0.5138630000000  0.5922990000000 1.0
C      1  0.5312160000000  0.4561020000000  0.4275190000000 1.0
C      1  0.5266360000000  0.4260870000000  0.5469060000000 1.0
C      1  0.4424900000000  0.5196950000000  0.5687190000000 1.0
C      1  0.4495010000000  0.4644220000000  0.5642150000000 1.0
C      1  0.5380790000000  0.5319220000000  0.5711310000000 1.0
C      1  0.5710540000000  0.4549220000000  0.4697160000000 1.0
C      1  0.5802290000000  0.4702070000000  0.5167010000000 1.0
C      1  0.5247780000000  0.4655740000000  0.5866520000000 1.0
C      1  0.4752260000000  0.5146810000000  0.5362150000000 1.0
C      1  0.4660450000000  0.5864030000000  0.5168860000000 1.0
C      1  0.4932580000000  0.4909900000000  0.4936000000000 1.0
C      1  0.4769000000000  0.4239020000000  0.4357580000000 1.0
C      1  0.5205160000000  0.4874880000000  0.5285370000000 1.0
C      1  0.4408400000000  0.4306250000000  0.5092370000000 1.0
C      1  0.4910350000000  0.4474670000000  0.4927630000000 1.0
C      1  0.4183020000000  0.4926420000000  0.4832860000000 1.0
C      1  0.4708480000000  0.5458740000000  0.4389310000000 1.0
C      1  0.5728810000000  0.4673200000000  0.4432620000000 1.0
C      1  0.4752700000000  0.4150340000000  0.4787890000000 1.0
C      1  0.5336080000000  0.5716220000000  0.4503860000000 1.0
C      1  0.5577810000000  0.5431790000000  0.5224050000000 1.0
C      1  0.5713540000000  0.5624310000000  0.5032020000000 1.0
C      1  0.5523330000000  0.5808320000000  0.4931770000000 1.0
C      1  0.4291470000000  0.5382110000000  0.5487000000000 1.0
C      1  0.5533760000000  0.5047270000000  0.4237760000000 1.0
C      1  0.4997670000000  0.4149540000000  0.5464010000000 1.0
C      1  0.4842770000000  0.4904130000000  0.4462490000000 1.0
C      1  0.5198960000000  0.4019690000000  0.4946370000000 1.0
C      1  0.5525640000000  0.5183280000000  0.4733240000000 1.0
C      1  0.5939960000000  0.5011380000000  0.4841930000000 1.0
C      1  0.4399260000000  0.5357290000000  0.4383720000000 1.0
C      1  0.4882660000000  0.4617330000000  0.4364660000000 1.0
C      1  0.4657480000000  0.5049090000000  0.4156490000000 1.0
C      1  0.5094660000000  0.5140210000000  0.4189800000000 1.0
C      1  0.5468200000000  0.4283310000000  0.5239900000000 1.0
C      1  0.4538170000000  0.5721930000000  0.4731970000000 1.0
C      1  0.5372110000000  0.4432800000000  0.5695000000000 1.0
C      1  0.5117530000000  0.5770060000000  0.4333820000000 1.0
C      1  0.4802570000000  0.5468270000000  0.5460930000000 1.0
C      1  0.4840710000000  0.5749380000000  0.4378030000000 1.0
C      1  0.5628610000000  0.4547560000000  0.5602410000000 1.0
C      1  0.5434010000000  0.4400280000000  0.4739260000000 1.0
C      1  0.5134700000000  0.5472100000000  0.5659710000000 1.0
C      1  0.5054410000000  0.4959030000000  0.4672960000000 1.0
C      1  0.4614020000000  0.5370510000000  0.5841340000000 1.0
C      1  0.4312410000000  0.4572630000000  0.5185980000000 1.0
C      1  0.5338620000000  0.5410330000000  0.4566000000000 1.0
C      1  0.4093100000000  0.5210210000000  0.4787870000000 1.0
C      1  0.4560610000000  0.4928270000000  0.5699730000000 1.0
C      1  0.4696140000000  0.5582500000000  0.5204540000000 1.0
C      1  0.4854030000000  0.5158220000000  0.5067580000000 1.0
C      1  0.5031410000000  0.4222530000000  0.4453780000000 1.0
C      1  0.5070980000000  0.4639610000000  0.4130080000000 1.0
C      1  0.4103000000000  0.5301060000000  0.5279490000000 1.0
C      1  0.4450440000000  0.5027960000000  0.5282760000000 1.0
C      1  0.5108420000000  0.4903230000000  0.4040730000000 1.0
C      1  0.4805160000000  0.4970080000000  0.5850630000000 1.0
C      1  0.5296450000000  0.5533700000000  0.5191370000000 1.0
C      1  0.5234900000000  0.4594480000000  0.5180190000000 1.0
C      1  0.5089500000000  0.5390870000000  0.4750080000000 1.0
C      1  0.5919400000000  0.4877270000000  0.4381540000000 1.0
C      1  0.4574540000000  0.4950250000000  0.4632000000000 1.0
C      1  0.4549020000000  0.4135080000000  0.5264230000000 1.0
C      1  0.4816950000000  0.4047930000000  0.5260930000000 1.0
C      1  0.4556220000000  0.4752940000000  0.5171540000000 1.0
C      1  0.4515150000000  0.4312380000000  0.4821490000000 1.0
C      1  0.5302770000000  0.5083300000000  0.5101300000000 1.0
C      1  0.4838410000000  0.5259480000000  0.4204560000000 1.0
C      1  0.5352000000000  0.4889270000000  0.4668580000000 1.0
C      1  0.4601150000000  0.4479740000000  0.4361910000000 1.0
C      1  0.4922140000000  0.5953080000000  0.5115490000000 1.0
C      1  0.5970000000000  0.5137460000000  0.5100150000000 1.0
C      1  0.4782330000000  0.5861790000000  0.4648000000000 1.0
C      1  0.5609640000000  0.5310120000000  0.5523670000000 1.0
C      1  0.5783370000000  0.4759230000000  0.4887550000000 1.0
C      1  0.5284480000000  0.4344150000000  0.4472450000000 1.0
C      1  0.4453390000000  0.5067810000000  0.4357340000000 1.0
C      1  0.5252580000000  0.4611710000000  0.4858780000000 1.0
C      1  0.5422300000000  0.4184770000000  0.4954790000000 1.0
C      1  0.4222270000000  0.4705300000000  0.4634840000000 1.0
C      1  0.4453190000000  0.4522400000000  0.4616670000000 1.0
C      1  0.4345610000000  0.5643240000000  0.4940070000000 1.0
C      1  0.5809940000000  0.5107300000000  0.4273340000000 1.0
C      1  0.5657680000000  0.4821020000000  0.5709660000000 1.0
C      1  0.4101490000000  0.5423080000000  0.5002070000000 1.0
C      1  0.4766110000000  0.4663630000000  0.5375850000000 1.0
C      1  0.5191000000000  0.5664650000000  0.5430060000000 1.0
C      1  0.4789040000000  0.5425650000000  0.4686200000000 1.0
C      1  0.4354950000000  0.5650860000000  0.5559720000000 1.0
C      1  0.5862660000000  0.5484240000000  0.4837770000000 1.0
C      1  0.5463640000000  0.4793490000000  0.4390950000000 1.0
C      1  0.4618100000000  0.5610550000000  0.5673370000000 1.0
C      1  0.4709290000000  0.4724220000000  0.4907930000000 1.0
C      1  0.5590450000000  0.5168740000000  0.5063580000000 1.0
C      1  0.5012520000000  0.5876370000000  0.4844580000000 1.0
C      1  0.4879390000000  0.5251730000000  0.5853570000000 1.0
C      1  0.4064530000000  0.5024100000000  0.5277790000000 1.0
C      1  0.5888640000000  0.4947740000000  0.5296090000000 1.0
C      1  0.5739330000000  0.5040300000000  0.5528250000000 1.0
C      1  0.5334140000000  0.5261130000000  0.4288730000000 1.0
END
