TITL C-951344-124-456 -1.50604417669604e-06 125000 -450.742563855508 0 0 74 (C1) n - 1
REM
REM in /home/bkarasulu/work/CARBON/AIRSS/Generating-Clusters/EDIP-Nigel-Params/with-SteepDescent/Only-C1/SD-CG/HFTN-CG
REM
REM
REM
REM
REM
REM ./C.cell (11c1c37f851c82e70ff6c80c92926a4b)
REM
REM compiler GCC version 9.2.1 20190827 (Red Hat 9.2.1-1)
REM options -cpp -mtune=generic -march=x86-64 -g -O0 -fpre-include=/usr/include/finclude/math-vector-fortran.h
REM seed 731783049 -495293081 -1307706497 2052249379 1733311455 1178029520 639981159 38220569 248228534 -620708304 1601057781 -812856950 637385054 1062824087 237927145 -239700942 -640016270 405248472 -374967437 -1634813253 1212071104 1988915225 1804390868 -2001510656 -1196208961 -1257509189 -445971790 1586376311 976611396 1256386106 287232003 -1635593911 2036514667
REM
CELL 1.54180   50.00000   50.00000   50.00000   90.00000   90.00000   90.00000
LATT -1
SFAC C  
C      1  0.5669650000000  0.5538710000000  0.4794060000000 1.0
C      1  0.5080400000000  0.4416040000000  0.4897500000000 1.0
C      1  0.4874730000000  0.5840490000000  0.5329180000000 1.0
C      1  0.4945520000000  0.5029100000000  0.4362280000000 1.0
C      1  0.4286700000000  0.4622070000000  0.5525050000000 1.0
C      1  0.5216030000000  0.4686230000000  0.4557020000000 1.0
C      1  0.5339410000000  0.5050090000000  0.4836850000000 1.0
C      1  0.4326930000000  0.4758320000000  0.4719950000000 1.0
C      1  0.5132540000000  0.5931450000000  0.5155490000000 1.0
C      1  0.5078580000000  0.5410530000000  0.5087860000000 1.0
C      1  0.4517650000000  0.5483030000000  0.4734920000000 1.0
C      1  0.4810760000000  0.4793720000000  0.5080530000000 1.0
C      1  0.5636380000000  0.4836710000000  0.4481590000000 1.0
C      1  0.4389940000000  0.4368160000000  0.5503740000000 1.0
C      1  0.5750460000000  0.5282890000000  0.5176120000000 1.0
C      1  0.5698780000000  0.4581620000000  0.4601010000000 1.0
C      1  0.4356760000000  0.5007270000000  0.4864350000000 1.0
C      1  0.5340320000000  0.4935500000000  0.5455890000000 1.0
C      1  0.4807350000000  0.4697070000000  0.5603420000000 1.0
C      1  0.4983120000000  0.4549530000000  0.4441670000000 1.0
C      1  0.5528490000000  0.4382960000000  0.5033470000000 1.0
C      1  0.4959510000000  0.5600980000000  0.5501630000000 1.0
C      1  0.5251710000000  0.5092230000000  0.4331150000000 1.0
C      1  0.5613510000000  0.5036470000000  0.4708480000000 1.0
C      1  0.5074330000000  0.4202360000000  0.5132840000000 1.0
C      1  0.4686970000000  0.4201440000000  0.4634990000000 1.0
C      1  0.4562720000000  0.4722160000000  0.4277960000000 1.0
C      1  0.5200490000000  0.5273220000000  0.5807720000000 1.0
C      1  0.5641710000000  0.5326260000000  0.4600660000000 1.0
C      1  0.5069740000000  0.4666980000000  0.5064280000000 1.0
C      1  0.5557470000000  0.5452990000000  0.5052080000000 1.0
C      1  0.4377530000000  0.5236410000000  0.4697270000000 1.0
C      1  0.4767140000000  0.5389070000000  0.5635470000000 1.0
C      1  0.4757920000000  0.5155100000000  0.4577520000000 1.0
C      1  0.5390380000000  0.5906980000000  0.5257120000000 1.0
C      1  0.5440300000000  0.5636250000000  0.5280100000000 1.0
C      1  0.5303820000000  0.5231330000000  0.5543650000000 1.0
C      1  0.4699580000000  0.4862660000000  0.5366070000000 1.0
C      1  0.4555140000000  0.4301250000000  0.5282350000000 1.0
C      1  0.4758970000000  0.5469550000000  0.4557560000000 1.0
C      1  0.5194350000000  0.4598520000000  0.5330510000000 1.0
C      1  0.4812820000000  0.5273440000000  0.5071570000000 1.0
C      1  0.4362690000000  0.4509780000000  0.4860170000000 1.0
C      1  0.4998590000000  0.5629430000000  0.4638240000000 1.0
C      1  0.4348090000000  0.5499010000000  0.5170470000000 1.0
C      1  0.4931690000000  0.5184610000000  0.5775340000000 1.0
C      1  0.5392690000000  0.5348280000000  0.4428430000000 1.0
C      1  0.5023380000000  0.5682040000000  0.4943360000000 1.0
C      1  0.4984740000000  0.4936580000000  0.5621820000000 1.0
C      1  0.5385580000000  0.4438210000000  0.4773010000000 1.0
C      1  0.4853160000000  0.4251770000000  0.5350670000000 1.0
C      1  0.5779350000000  0.4616210000000  0.4873850000000 1.0
C      1  0.5096050000000  0.4935480000000  0.4714120000000 1.0
C      1  0.5200550000000  0.5467390000000  0.5370460000000 1.0
C      1  0.5601570000000  0.4881930000000  0.5358430000000 1.0
C      1  0.4598870000000  0.5496480000000  0.5021290000000 1.0
C      1  0.4518640000000  0.5287920000000  0.5540420000000 1.0
C      1  0.5226090000000  0.5567350000000  0.4486280000000 1.0
C      1  0.4740350000000  0.5756550000000  0.5055260000000 1.0
C      1  0.4414740000000  0.4765890000000  0.5302290000000 1.0
C      1  0.5316600000000  0.5296190000000  0.4971320000000 1.0
C      1  0.5782680000000  0.5008570000000  0.5188860000000 1.0
C      1  0.5799650000000  0.4904560000000  0.4915530000000 1.0
C      1  0.4354480000000  0.4748790000000  0.4443880000000 1.0
C      1  0.4513200000000  0.4543680000000  0.5109700000000 1.0
C      1  0.4798500000000  0.5036380000000  0.4890720000000 1.0
C      1  0.4839450000000  0.4754220000000  0.4287790000000 1.0
C      1  0.4316830000000  0.5012690000000  0.5158510000000 1.0
C      1  0.5340010000000  0.4334520000000  0.5250960000000 1.0
C      1  0.4356600000000  0.5263330000000  0.5313310000000 1.0
C      1  0.5383190000000  0.4825710000000  0.4346330000000 1.0
C      1  0.4978590000000  0.4480740000000  0.5508170000000 1.0
C      1  0.4444300000000  0.4292210000000  0.4707360000000 1.0
C      1  0.4872450000000  0.4406360000000  0.4670730000000 1.0
END
