TITL C-951335-1172-647 -5.41961896105394e-07 125000 -1226.62844203245 0 0 194 (C1) n - 1
REM
REM in /home/bkarasulu/work/CARBON/AIRSS/Generating-Clusters/EDIP-Nigel-Params/with-SteepDescent/Only-C1/SD-CG/HFTN-CG
REM
REM
REM
REM
REM
REM ./C.cell (11c1c37f851c82e70ff6c80c92926a4b)
REM
REM compiler GCC version 9.2.1 20190827 (Red Hat 9.2.1-1)
REM options -cpp -mtune=generic -march=x86-64 -g -O0 -fpre-include=/usr/include/finclude/math-vector-fortran.h
REM seed -1198756608 515174277 -1841373650 428237402 1713622966 2006403793 1785319998 -1466545699 1208215745 -1089735869 -1086566545 -1080539578 -1270904942 -204589532 -967918013 -1687481794 -813019834 1030546081 1483333954 -279576566 1922269341 -1880259969 -520302490 -681402244 197802838 1048971739 1165107879 1855387203 -1017025734 679169431 1949336345 1112283026 -1323490573
REM
CELL 1.54180   50.00000   50.00000   50.00000   90.00000   90.00000   90.00000
LATT -1
SFAC C  
C      1  0.4741270000000  0.4971360000000  0.4558020000000 1.0
C      1  0.4989510000000  0.5410460000000  0.5555020000000 1.0
C      1  0.4823780000000  0.5639570000000  0.4679180000000 1.0
C      1  0.4554040000000  0.4699380000000  0.5766180000000 1.0
C      1  0.5162810000000  0.5610510000000  0.4003740000000 1.0
C      1  0.4866800000000  0.4718730000000  0.6247200000000 1.0
C      1  0.3914180000000  0.4914540000000  0.4746170000000 1.0
C      1  0.5037690000000  0.4261340000000  0.5093240000000 1.0
C      1  0.5280960000000  0.5541940000000  0.4876500000000 1.0
C      1  0.4695320000000  0.4918780000000  0.6153770000000 1.0
C      1  0.5166740000000  0.5854830000000  0.4460920000000 1.0
C      1  0.5869530000000  0.4364930000000  0.4736980000000 1.0
C      1  0.4544700000000  0.5965720000000  0.5374950000000 1.0
C      1  0.4608620000000  0.3911760000000  0.5135390000000 1.0
C      1  0.5473340000000  0.4805050000000  0.4906450000000 1.0
C      1  0.4138480000000  0.4971280000000  0.5566690000000 1.0
C      1  0.4891930000000  0.4650750000000  0.5769790000000 1.0
C      1  0.4874740000000  0.4180490000000  0.5736540000000 1.0
C      1  0.5906990000000  0.4896930000000  0.5643430000000 1.0
C      1  0.5070710000000  0.4913010000000  0.5732790000000 1.0
C      1  0.3915030000000  0.5179180000000  0.4919700000000 1.0
C      1  0.5614000000000  0.4926870000000  0.6023710000000 1.0
C      1  0.5259770000000  0.4043540000000  0.5412880000000 1.0
C      1  0.4069940000000  0.4939860000000  0.4501620000000 1.0
C      1  0.6123120000000  0.5415730000000  0.5461230000000 1.0
C      1  0.5594980000000  0.5196490000000  0.4187720000000 1.0
C      1  0.4437300000000  0.4899050000000  0.5569060000000 1.0
C      1  0.5382610000000  0.4509870000000  0.4030710000000 1.0
C      1  0.5052710000000  0.5817520000000  0.5799450000000 1.0
C      1  0.5425220000000  0.4421140000000  0.5847320000000 1.0
C      1  0.5481360000000  0.5893130000000  0.5352220000000 1.0
C      1  0.5188920000000  0.6084010000000  0.4672160000000 1.0
C      1  0.5677470000000  0.5816780000000  0.4540850000000 1.0
C      1  0.5138950000000  0.5201980000000  0.4747260000000 1.0
C      1  0.4311920000000  0.5528190000000  0.4159080000000 1.0
C      1  0.5802530000000  0.5787850000000  0.5000860000000 1.0
C      1  0.5419860000000  0.5656330000000  0.5518330000000 1.0
C      1  0.4756350000000  0.4327880000000  0.5018780000000 1.0
C      1  0.4204530000000  0.5287830000000  0.4964070000000 1.0
C      1  0.5121000000000  0.5656410000000  0.5117350000000 1.0
C      1  0.4920720000000  0.5199340000000  0.4516450000000 1.0
C      1  0.6047740000000  0.4889890000000  0.5107100000000 1.0
C      1  0.4496990000000  0.4298490000000  0.4458780000000 1.0
C      1  0.3845090000000  0.5441450000000  0.4758800000000 1.0
C      1  0.5763640000000  0.4257850000000  0.5446030000000 1.0
C      1  0.4603140000000  0.5140020000000  0.5531430000000 1.0
C      1  0.5075200000000  0.4753860000000  0.4216000000000 1.0
C      1  0.5361320000000  0.4936860000000  0.3806030000000 1.0
C      1  0.5643910000000  0.5217150000000  0.4667960000000 1.0
C      1  0.4659260000000  0.4475000000000  0.5270560000000 1.0
C      1  0.5278970000000  0.5306360000000  0.5869060000000 1.0
C      1  0.5378790000000  0.4509860000000  0.5295580000000 1.0
C      1  0.5692200000000  0.5215450000000  0.5975070000000 1.0
C      1  0.5734520000000  0.5904230000000  0.5242570000000 1.0
C      1  0.4451140000000  0.5870350000000  0.4652100000000 1.0
C      1  0.4359670000000  0.5562480000000  0.5607390000000 1.0
C      1  0.4376120000000  0.5344870000000  0.4693790000000 1.0
C      1  0.5472050000000  0.5195910000000  0.5659770000000 1.0
C      1  0.5148440000000  0.4327420000000  0.5369140000000 1.0
C      1  0.5711540000000  0.4126010000000  0.5178160000000 1.0
C      1  0.3818930000000  0.5137570000000  0.5219330000000 1.0
C      1  0.4483690000000  0.5330950000000  0.5745420000000 1.0
C      1  0.4156960000000  0.5490130000000  0.5401420000000 1.0
C      1  0.5386170000000  0.4794030000000  0.5357220000000 1.0
C      1  0.5016910000000  0.3853780000000  0.5414600000000 1.0
C      1  0.5518770000000  0.4765750000000  0.3962830000000 1.0
C      1  0.4801870000000  0.3926210000000  0.4590710000000 1.0
C      1  0.4768910000000  0.5201900000000  0.4987830000000 1.0
C      1  0.4661860000000  0.5466500000000  0.4187720000000 1.0
C      1  0.4602120000000  0.5540520000000  0.5215280000000 1.0
C      1  0.4838810000000  0.4703000000000  0.4600870000000 1.0
C      1  0.5293500000000  0.4211340000000  0.4941650000000 1.0
C      1  0.4118670000000  0.5639040000000  0.4364080000000 1.0
C      1  0.4982110000000  0.4199660000000  0.4296990000000 1.0
C      1  0.6116880000000  0.5349270000000  0.5730960000000 1.0
C      1  0.6038870000000  0.4587920000000  0.4651810000000 1.0
C      1  0.5043870000000  0.6094950000000  0.5348980000000 1.0
C      1  0.5560230000000  0.4922960000000  0.5159700000000 1.0
C      1  0.4952110000000  0.4408740000000  0.5594160000000 1.0
C      1  0.4776020000000  0.6106920000000  0.5239570000000 1.0
C      1  0.4528570000000  0.4129890000000  0.4931130000000 1.0
C      1  0.5353200000000  0.5622430000000  0.4257700000000 1.0
C      1  0.4432970000000  0.5057560000000  0.4079020000000 1.0
C      1  0.5196060000000  0.5503360000000  0.5370870000000 1.0
C      1  0.5660910000000  0.5634640000000  0.4334510000000 1.0
C      1  0.4686950000000  0.5191780000000  0.4029250000000 1.0
C      1  0.4946640000000  0.6185640000000  0.4771800000000 1.0
C      1  0.3946090000000  0.4306360000000  0.5382460000000 1.0
C      1  0.4247870000000  0.5650390000000  0.4636130000000 1.0
C      1  0.5062300000000  0.5194280000000  0.4261940000000 1.0
C      1  0.5267060000000  0.4086980000000  0.4661740000000 1.0
C      1  0.4574340000000  0.4079370000000  0.4639720000000 1.0
C      1  0.3906590000000  0.5427690000000  0.4454020000000 1.0
C      1  0.6146000000000  0.5167290000000  0.5097150000000 1.0
C      1  0.5280720000000  0.5251360000000  0.5263070000000 1.0
C      1  0.4904200000000  0.3841840000000  0.5140650000000 1.0
C      1  0.3994040000000  0.4195780000000  0.4866220000000 1.0
C      1  0.5249010000000  0.5946810000000  0.5169120000000 1.0
C      1  0.6304370000000  0.5279340000000  0.5301580000000 1.0
C      1  0.4743490000000  0.6123740000000  0.4954130000000 1.0
C      1  0.4659070000000  0.5917050000000  0.4459230000000 1.0
C      1  0.5599930000000  0.5381490000000  0.4926800000000 1.0
C      1  0.5898060000000  0.5174290000000  0.5755100000000 1.0
C      1  0.5550870000000  0.4290800000000  0.5637990000000 1.0
C      1  0.5141170000000  0.5107470000000  0.3826490000000 1.0
C      1  0.5374640000000  0.5240270000000  0.4572690000000 1.0
C      1  0.6118360000000  0.5079230000000  0.4660540000000 1.0
C      1  0.5458730000000  0.4358000000000  0.4275360000000 1.0
C      1  0.5595590000000  0.5839260000000  0.4805010000000 1.0
C      1  0.5560760000000  0.4776750000000  0.4452240000000 1.0
C      1  0.5974780000000  0.4848270000000  0.4790670000000 1.0
C      1  0.5347670000000  0.5737030000000  0.5807250000000 1.0
C      1  0.5102870000000  0.4488110000000  0.3946680000000 1.0
C      1  0.3729490000000  0.4883500000000  0.5304310000000 1.0
C      1  0.4414540000000  0.4437060000000  0.5706760000000 1.0
C      1  0.4030620000000  0.5179770000000  0.4348700000000 1.0
C      1  0.4143470000000  0.4465240000000  0.5763780000000 1.0
C      1  0.5376580000000  0.6021220000000  0.4889430000000 1.0
C      1  0.5335860000000  0.4866830000000  0.6083520000000 1.0
C      1  0.5333680000000  0.5306840000000  0.4294480000000 1.0
C      1  0.4020940000000  0.5221540000000  0.5426180000000 1.0
C      1  0.5113650000000  0.5623840000000  0.4628750000000 1.0
C      1  0.6022860000000  0.4627300000000  0.4363640000000 1.0
C      1  0.4205210000000  0.4317380000000  0.5270970000000 1.0
C      1  0.3968810000000  0.4650930000000  0.4874860000000 1.0
C      1  0.4880900000000  0.5682120000000  0.4092910000000 1.0
C      1  0.4936170000000  0.4963230000000  0.5054980000000 1.0
C      1  0.4904740000000  0.5886250000000  0.4305810000000 1.0
C      1  0.4246060000000  0.4293460000000  0.4981080000000 1.0
C      1  0.4228930000000  0.5248710000000  0.4150180000000 1.0
C      1  0.4180640000000  0.5644130000000  0.5128000000000 1.0
C      1  0.5467130000000  0.4474730000000  0.5000450000000 1.0
C      1  0.4227570000000  0.4725710000000  0.4382980000000 1.0
C      1  0.4434340000000  0.4868880000000  0.4961430000000 1.0
C      1  0.5781020000000  0.5334820000000  0.4388830000000 1.0
C      1  0.5703990000000  0.4760490000000  0.5801320000000 1.0
C      1  0.4601420000000  0.5687520000000  0.5483160000000 1.0
C      1  0.5101340000000  0.3744310000000  0.4939720000000 1.0
C      1  0.5657350000000  0.4906570000000  0.4192400000000 1.0
C      1  0.4573130000000  0.5086030000000  0.4771950000000 1.0
C      1  0.4928020000000  0.4271970000000  0.4027470000000 1.0
C      1  0.5420880000000  0.4011010000000  0.5145520000000 1.0
C      1  0.5678360000000  0.4910200000000  0.4707810000000 1.0
C      1  0.4327500000000  0.5087310000000  0.5140140000000 1.0
C      1  0.5256140000000  0.4791810000000  0.4478020000000 1.0
C      1  0.4475290000000  0.4803550000000  0.6026340000000 1.0
C      1  0.4555890000000  0.4014630000000  0.5415270000000 1.0
C      1  0.5039570000000  0.6033000000000  0.5621380000000 1.0
C      1  0.5628750000000  0.5446600000000  0.5534310000000 1.0
C      1  0.4919340000000  0.5119110000000  0.5547260000000 1.0
C      1  0.4710050000000  0.5396800000000  0.5927210000000 1.0
C      1  0.5552820000000  0.5211600000000  0.5176400000000 1.0
C      1  0.4843780000000  0.5597270000000  0.5714640000000 1.0
C      1  0.6134790000000  0.5302760000000  0.4843290000000 1.0
C      1  0.4839420000000  0.5139920000000  0.6026540000000 1.0
C      1  0.4589960000000  0.4581010000000  0.4080720000000 1.0
C      1  0.5916270000000  0.4490170000000  0.5391910000000 1.0
C      1  0.5389220000000  0.4887860000000  0.5644840000000 1.0
C      1  0.4957650000000  0.5033260000000  0.4047310000000 1.0
C      1  0.5081860000000  0.5031340000000  0.5304730000000 1.0
C      1  0.3945030000000  0.4511880000000  0.5572430000000 1.0
C      1  0.5185270000000  0.5383330000000  0.3837730000000 1.0
C      1  0.4311130000000  0.4510590000000  0.4553120000000 1.0
C      1  0.3825620000000  0.4410600000000  0.4826520000000 1.0
C      1  0.4492180000000  0.5996450000000  0.4902570000000 1.0
C      1  0.4564060000000  0.5239920000000  0.5239720000000 1.0
C      1  0.4357340000000  0.5902630000000  0.5144920000000 1.0
C      1  0.5435520000000  0.5511250000000  0.5990350000000 1.0
C      1  0.4707780000000  0.5416330000000  0.4505900000000 1.0
C      1  0.5145040000000  0.5115990000000  0.6055340000000 1.0
C      1  0.3942760000000  0.4781550000000  0.5460600000000 1.0
C      1  0.4457970000000  0.4311940000000  0.5428130000000 1.0
C      1  0.5966130000000  0.4766950000000  0.5376350000000 1.0
C      1  0.4871550000000  0.4568350000000  0.4339500000000 1.0
C      1  0.5667980000000  0.4492450000000  0.4439210000000 1.0
C      1  0.5272200000000  0.4580190000000  0.6033800000000 1.0
C      1  0.4828330000000  0.5585490000000  0.5003140000000 1.0
C      1  0.4578250000000  0.4307940000000  0.4174320000000 1.0
C      1  0.4026540000000  0.5669420000000  0.4850410000000 1.0
C      1  0.5747410000000  0.4371200000000  0.5000350000000 1.0
C      1  0.4749330000000  0.4575600000000  0.4846690000000 1.0
C      1  0.5958960000000  0.4883070000000  0.4231550000000 1.0
C      1  0.5066620000000  0.3867290000000  0.4673320000000 1.0
C      1  0.5854820000000  0.5406440000000  0.5331720000000 1.0
C      1  0.4256160000000  0.4578310000000  0.4842690000000 1.0
C      1  0.5193460000000  0.4889370000000  0.4780040000000 1.0
C      1  0.5373720000000  0.3744910000000  0.5031460000000 1.0
C      1  0.5861940000000  0.5498900000000  0.5024290000000 1.0
C      1  0.4397490000000  0.4777870000000  0.4154570000000 1.0
C      1  0.6033850000000  0.5137410000000  0.4383800000000 1.0
C      1  0.4794900000000  0.3959270000000  0.5585660000000 1.0
C      1  0.4978520000000  0.4558790000000  0.6044140000000 1.0
C      1  0.5231450000000  0.4248460000000  0.4424150000000 1.0
C      1  0.4693450000000  0.4760700000000  0.5081360000000 1.0
END
