TITL C-950521-2237-118 -1.68870972920273e-06 125000 -1046.12270580777 0 0 166 (C1) n - 1
REM
REM in /home/bkarasulu/work/CARBON/AIRSS/Generating-Clusters/EDIP-Nigel-Params/with-SteepDescent/Only-C1/SD-CG/HFTN-CG
REM
REM
REM
REM
REM
REM ./C.cell (11c1c37f851c82e70ff6c80c92926a4b)
REM
REM compiler GCC version 9.2.1 20190827 (Red Hat 9.2.1-1)
REM options -cpp -mtune=generic -march=x86-64 -g -O0 -fpre-include=/usr/include/finclude/math-vector-fortran.h
REM seed 914580409 -1653422857 -1781149171 1771269568 380219877 232575288 1407708769 -1893475520 -1321315836 -1313163771 -277038075 -2084532058 961592107 -340760078 34577604 44777626 -1791925055 437970484 1589610614 1522501172 -862707812 1581925710 -1621943807 -1880265933 732516677 -548564649 -827688393 1655093652 -764883802 1484464296 1475860143 -1861663345 1823205411
REM
CELL 1.54180   50.00000   50.00000   50.00000   90.00000   90.00000   90.00000
LATT -1
SFAC C  
C      1  0.4647590000000  0.5064160000000  0.5410010000000 1.0
C      1  0.4468230000000  0.5314130000000  0.5368950000000 1.0
C      1  0.4911360000000  0.5856880000000  0.4421790000000 1.0
C      1  0.5732520000000  0.4811190000000  0.5494600000000 1.0
C      1  0.4385130000000  0.4079680000000  0.4916920000000 1.0
C      1  0.4839060000000  0.4276810000000  0.5683100000000 1.0
C      1  0.4882340000000  0.4381110000000  0.4932620000000 1.0
C      1  0.5051540000000  0.4518620000000  0.4177480000000 1.0
C      1  0.4163880000000  0.5280870000000  0.4509640000000 1.0
C      1  0.5998220000000  0.4989660000000  0.5125250000000 1.0
C      1  0.5174050000000  0.4898070000000  0.6126420000000 1.0
C      1  0.5588560000000  0.4349970000000  0.5564760000000 1.0
C      1  0.4227190000000  0.4490060000000  0.4343920000000 1.0
C      1  0.5641030000000  0.4679550000000  0.4886630000000 1.0
C      1  0.4856330000000  0.5225700000000  0.4527490000000 1.0
C      1  0.5000730000000  0.5764770000000  0.5774790000000 1.0
C      1  0.5267090000000  0.6119130000000  0.4894260000000 1.0
C      1  0.5185950000000  0.5151240000000  0.3922480000000 1.0
C      1  0.4893170000000  0.4054530000000  0.4905020000000 1.0
C      1  0.4862310000000  0.5106300000000  0.5918720000000 1.0
C      1  0.5422790000000  0.4744480000000  0.3967270000000 1.0
C      1  0.4622500000000  0.4666830000000  0.4564100000000 1.0
C      1  0.5296860000000  0.5048850000000  0.5505380000000 1.0
C      1  0.4763730000000  0.5711130000000  0.5922420000000 1.0
C      1  0.4866120000000  0.5070620000000  0.5616290000000 1.0
C      1  0.4638330000000  0.4244420000000  0.4388020000000 1.0
C      1  0.5346800000000  0.4761230000000  0.4490250000000 1.0
C      1  0.5927290000000  0.5023990000000  0.5411180000000 1.0
C      1  0.6082480000000  0.4732780000000  0.4728170000000 1.0
C      1  0.5042680000000  0.4663690000000  0.6053290000000 1.0
C      1  0.3936630000000  0.4930810000000  0.4870000000000 1.0
C      1  0.4044260000000  0.5238650000000  0.5291190000000 1.0
C      1  0.5438260000000  0.5464830000000  0.5282820000000 1.0
C      1  0.5184260000000  0.5745070000000  0.4508870000000 1.0
C      1  0.5336110000000  0.5647830000000  0.5062930000000 1.0
C      1  0.4429460000000  0.4282540000000  0.4700590000000 1.0
C      1  0.5223060000000  0.4462880000000  0.5931600000000 1.0
C      1  0.4530300000000  0.5786850000000  0.5439920000000 1.0
C      1  0.4998910000000  0.4976470000000  0.4983830000000 1.0
C      1  0.5290340000000  0.4221910000000  0.4682560000000 1.0
C      1  0.4905080000000  0.4993240000000  0.4707680000000 1.0
C      1  0.5862800000000  0.5479500000000  0.5271760000000 1.0
C      1  0.4475130000000  0.4743070000000  0.5916470000000 1.0
C      1  0.4158050000000  0.4428250000000  0.4637010000000 1.0
C      1  0.4357220000000  0.4967120000000  0.4994580000000 1.0
C      1  0.4661360000000  0.5478310000000  0.5796510000000 1.0
C      1  0.5769430000000  0.5754540000000  0.5314200000000 1.0
C      1  0.5416430000000  0.4687580000000  0.5115210000000 1.0
C      1  0.4910530000000  0.5550240000000  0.5095920000000 1.0
C      1  0.4157120000000  0.4771260000000  0.5477980000000 1.0
C      1  0.5479280000000  0.6129720000000  0.5126320000000 1.0
C      1  0.5602760000000  0.4805130000000  0.5769100000000 1.0
C      1  0.4637530000000  0.3964330000000  0.5032560000000 1.0
C      1  0.5219800000000  0.5577430000000  0.5841270000000 1.0
C      1  0.5617930000000  0.5207680000000  0.5142600000000 1.0
C      1  0.5465560000000  0.5150940000000  0.4831670000000 1.0
C      1  0.5638170000000  0.5313940000000  0.5706860000000 1.0
C      1  0.5487190000000  0.5566610000000  0.5709780000000 1.0
C      1  0.5504900000000  0.4548800000000  0.4359820000000 1.0
C      1  0.4279480000000  0.5227760000000  0.4257660000000 1.0
C      1  0.4547150000000  0.5154450000000  0.4910750000000 1.0
C      1  0.5180780000000  0.4747890000000  0.4951610000000 1.0
C      1  0.5164720000000  0.4011950000000  0.5355660000000 1.0
C      1  0.4704630000000  0.4956360000000  0.3854250000000 1.0
C      1  0.5535360000000  0.5759570000000  0.4873440000000 1.0
C      1  0.4913150000000  0.4735640000000  0.4580480000000 1.0
C      1  0.4183230000000  0.4515710000000  0.5029060000000 1.0
C      1  0.5926980000000  0.5549130000000  0.4668690000000 1.0
C      1  0.5698330000000  0.5926220000000  0.5073040000000 1.0
C      1  0.5417680000000  0.5018740000000  0.4031400000000 1.0
C      1  0.5525220000000  0.4313520000000  0.4545630000000 1.0
C      1  0.5080210000000  0.4539140000000  0.4767690000000 1.0
C      1  0.4678780000000  0.5576840000000  0.4951880000000 1.0
C      1  0.4576290000000  0.5075550000000  0.6031380000000 1.0
C      1  0.5732870000000  0.4409600000000  0.4734270000000 1.0
C      1  0.4489200000000  0.5430840000000  0.4243430000000 1.0
C      1  0.5653980000000  0.5540760000000  0.4726120000000 1.0
C      1  0.6059410000000  0.5435450000000  0.4877190000000 1.0
C      1  0.4764390000000  0.4561550000000  0.5633130000000 1.0
C      1  0.5133480000000  0.3945830000000  0.5061150000000 1.0
C      1  0.4995290000000  0.5937470000000  0.5525950000000 1.0
C      1  0.5135330000000  0.5465570000000  0.4938060000000 1.0
C      1  0.4982230000000  0.4989490000000  0.3816060000000 1.0
C      1  0.5950470000000  0.4531160000000  0.4555460000000 1.0
C      1  0.4127880000000  0.5510790000000  0.5358590000000 1.0
C      1  0.5545040000000  0.4891510000000  0.4681020000000 1.0
C      1  0.5812610000000  0.4253460000000  0.4988000000000 1.0
C      1  0.5975790000000  0.5167440000000  0.4889430000000 1.0
C      1  0.5856590000000  0.5295290000000  0.5499780000000 1.0
C      1  0.5216750000000  0.5967850000000  0.5333980000000 1.0
C      1  0.4596940000000  0.5855260000000  0.4898510000000 1.0
C      1  0.5793080000000  0.4522060000000  0.5428330000000 1.0
C      1  0.5145380000000  0.5427770000000  0.3948190000000 1.0
C      1  0.4711210000000  0.5343240000000  0.4066380000000 1.0
C      1  0.5065000000000  0.4245140000000  0.5859380000000 1.0
C      1  0.4237530000000  0.5524780000000  0.4622920000000 1.0
C      1  0.5087700000000  0.4109060000000  0.4499570000000 1.0
C      1  0.4390610000000  0.4325390000000  0.5628150000000 1.0
C      1  0.5072890000000  0.4785920000000  0.4330980000000 1.0
C      1  0.5559130000000  0.5759160000000  0.5510920000000 1.0
C      1  0.5351010000000  0.5642930000000  0.4285910000000 1.0
C      1  0.4583480000000  0.4188210000000  0.5792600000000 1.0
C      1  0.5579460000000  0.5148820000000  0.4245760000000 1.0
C      1  0.3831750000000  0.4797410000000  0.5093240000000 1.0
C      1  0.5461220000000  0.5072190000000  0.5769140000000 1.0
C      1  0.4271480000000  0.5760800000000  0.5286810000000 1.0
C      1  0.4885530000000  0.5782910000000  0.4154170000000 1.0
C      1  0.4906910000000  0.4169790000000  0.5402390000000 1.0
C      1  0.4103760000000  0.5159400000000  0.4999440000000 1.0
C      1  0.4250030000000  0.4238240000000  0.5128850000000 1.0
C      1  0.4988780000000  0.4423580000000  0.5235040000000 1.0
C      1  0.5367720000000  0.5928560000000  0.4686060000000 1.0
C      1  0.5944560000000  0.4722220000000  0.5001640000000 1.0
C      1  0.5788560000000  0.4674540000000  0.4345210000000 1.0
C      1  0.4883080000000  0.5089710000000  0.4236790000000 1.0
C      1  0.4250630000000  0.5204700000000  0.5722190000000 1.0
C      1  0.4361860000000  0.4939360000000  0.4265160000000 1.0
C      1  0.5755890000000  0.4958610000000  0.4459250000000 1.0
C      1  0.5369500000000  0.4027900000000  0.4906520000000 1.0
C      1  0.4126550000000  0.4749010000000  0.4280170000000 1.0
C      1  0.5549460000000  0.5441540000000  0.4242480000000 1.0
C      1  0.5198300000000  0.5330060000000  0.5423020000000 1.0
C      1  0.4212730000000  0.5516090000000  0.4919030000000 1.0
C      1  0.5347340000000  0.4507390000000  0.4102720000000 1.0
C      1  0.4300810000000  0.5811490000000  0.4993360000000 1.0
C      1  0.4328660000000  0.4616930000000  0.5677410000000 1.0
C      1  0.4594210000000  0.5216510000000  0.3826000000000 1.0
C      1  0.4475780000000  0.5610450000000  0.4477600000000 1.0
C      1  0.4428380000000  0.4903010000000  0.4562240000000 1.0
C      1  0.4909510000000  0.3945170000000  0.4635700000000 1.0
C      1  0.4925540000000  0.4303620000000  0.4361310000000 1.0
C      1  0.4646430000000  0.4047890000000  0.5311200000000 1.0
C      1  0.5291680000000  0.5120170000000  0.6011630000000 1.0
C      1  0.4655320000000  0.5820880000000  0.4583090000000 1.0
C      1  0.5065640000000  0.4871030000000  0.5537820000000 1.0
C      1  0.4529280000000  0.5199830000000  0.4620220000000 1.0
C      1  0.4132230000000  0.5063410000000  0.5508970000000 1.0
C      1  0.4737020000000  0.4870290000000  0.5194290000000 1.0
C      1  0.4013450000000  0.4645510000000  0.5242430000000 1.0
C      1  0.4434410000000  0.4239860000000  0.5352090000000 1.0
C      1  0.5083150000000  0.5954980000000  0.5067060000000 1.0
C      1  0.4784890000000  0.6030240000000  0.5079050000000 1.0
C      1  0.5447960000000  0.4545880000000  0.5750670000000 1.0
C      1  0.4890030000000  0.4674160000000  0.5383120000000 1.0
C      1  0.4599190000000  0.4504890000000  0.4827490000000 1.0
C      1  0.4132630000000  0.4756640000000  0.4681970000000 1.0
C      1  0.4737370000000  0.5992340000000  0.5375960000000 1.0
C      1  0.5423490000000  0.4200480000000  0.5345450000000 1.0
C      1  0.5506070000000  0.4931560000000  0.5306020000000 1.0
C      1  0.5447800000000  0.5360490000000  0.4605040000000 1.0
C      1  0.4787360000000  0.4728690000000  0.5882570000000 1.0
C      1  0.4644140000000  0.4881090000000  0.4138850000000 1.0
C      1  0.4478030000000  0.5394640000000  0.5051640000000 1.0
C      1  0.4648510000000  0.5513850000000  0.5503730000000 1.0
C      1  0.5288470000000  0.4443430000000  0.5251310000000 1.0
C      1  0.5136370000000  0.5463330000000  0.4632330000000 1.0
C      1  0.5582880000000  0.4100870000000  0.5103250000000 1.0
C      1  0.4525740000000  0.4498490000000  0.4327040000000 1.0
C      1  0.4907590000000  0.5417510000000  0.5348310000000 1.0
C      1  0.4902160000000  0.5555420000000  0.3996640000000 1.0
C      1  0.5208980000000  0.5187300000000  0.5005770000000 1.0
C      1  0.4445430000000  0.5300920000000  0.5904680000000 1.0
C      1  0.4453120000000  0.4675640000000  0.5045630000000 1.0
C      1  0.5931930000000  0.4462520000000  0.5170860000000 1.0
C      1  0.5135810000000  0.5357580000000  0.6009750000000 1.0
C      1  0.6006440000000  0.5010750000000  0.4636480000000 1.0
END
