TITL C-951333-8791-437 -3.52004607506323e-08 125000 -89.0217611073188 0 0 16 (C1) n - 1
REM
REM in /home/bkarasulu/work/CARBON/AIRSS/Generating-Clusters/EDIP-Nigel-Params/with-SteepDescent/Only-C1/SD-CG/HFTN-CG
REM
REM
REM
REM
REM
REM ./C.cell (11c1c37f851c82e70ff6c80c92926a4b)
REM
REM compiler GCC version 9.2.1 20190827 (Red Hat 9.2.1-1)
REM options -cpp -mtune=generic -march=x86-64 -g -O0 -fpre-include=/usr/include/finclude/math-vector-fortran.h
REM seed -404573858 1077408053 -1624929124 1797723062 -1520584275 -607269203 869710694 -1225849576 -1988968939 -1457269742 770522456 -56421899 -1235453378 1556241515 236496815 1511901088 1689056287 393828051 -1998660452 -551516038 -1974679545 -815440920 -459276839 -1658650981 788314610 177050694 167973086 -1170275180 -329786687 2073491066 -633385713 1685142768 -1670957182
REM
CELL 1.54180   50.00000   50.00000   50.00000   90.00000   90.00000   90.00000
LATT -1
SFAC C  
C      1  0.4616760000000  0.5395580000000  0.4613030000000 1.0
C      1  0.5146270000000  0.4837560000000  0.5578780000000 1.0
C      1  0.4893190000000  0.5010310000000  0.4449100000000 1.0
C      1  0.5132810000000  0.4880760000000  0.4399280000000 1.0
C      1  0.5033720000000  0.5158570000000  0.5184240000000 1.0
C      1  0.4714270000000  0.5470790000000  0.5360900000000 1.0
C      1  0.5121210000000  0.4691210000000  0.5136300000000 1.0
C      1  0.5088600000000  0.4732070000000  0.4627520000000 1.0
C      1  0.4820750000000  0.5205380000000  0.4650490000000 1.0
C      1  0.5188470000000  0.4817150000000  0.4880830000000 1.0
C      1  0.5276570000000  0.4597980000000  0.5540180000000 1.0
C      1  0.5140230000000  0.5087330000000  0.4934310000000 1.0
C      1  0.5276810000000  0.4503610000000  0.5281620000000 1.0
C      1  0.5034980000000  0.4899550000000  0.5324820000000 1.0
C      1  0.4716360000000  0.5386700000000  0.4882510000000 1.0
C      1  0.4799000000000  0.5325420000000  0.5156100000000 1.0
END
