TITL C-951336-9012-250 -8.388346410971e-07 125000 -306.205328065572 0 0 50 (C1) n - 1
REM
REM in /home/bkarasulu/work/CARBON/AIRSS/Generating-Clusters/EDIP-Nigel-Params/with-SteepDescent/Only-C1/SD-CG/HFTN-CG
REM
REM
REM
REM
REM
REM ./C.cell (11c1c37f851c82e70ff6c80c92926a4b)
REM
REM compiler GCC version 9.2.1 20190827 (Red Hat 9.2.1-1)
REM options -cpp -mtune=generic -march=x86-64 -g -O0 -fpre-include=/usr/include/finclude/math-vector-fortran.h
REM seed 1188857455 -656344813 -206134543 2049458564 1622276933 437043833 1193451296 -2057985032 1651206862 -152025441 -68793644 -1793103315 834888608 -1178890392 1681837606 -131089660 -849115271 1407874563 1079965873 1829824365 384668341 704286486 1036739208 -350614816 526143742 -491371942 -722787890 1600327002 -1874712891 -1671457361 1750631878 -823155651 1337109962
REM
CELL 1.54180   50.00000   50.00000   50.00000   90.00000   90.00000   90.00000
LATT -1
SFAC C  
C      1  0.5019520000000  0.5412750000000  0.5502190000000 1.0
C      1  0.5099830000000  0.5045620000000  0.4788050000000 1.0
C      1  0.5551900000000  0.4959620000000  0.5187280000000 1.0
C      1  0.4539470000000  0.5356720000000  0.5314320000000 1.0
C      1  0.5008210000000  0.4329720000000  0.5093280000000 1.0
C      1  0.5390480000000  0.4581410000000  0.4886600000000 1.0
C      1  0.4725450000000  0.4918670000000  0.4476590000000 1.0
C      1  0.4989390000000  0.4815260000000  0.5033850000000 1.0
C      1  0.5178800000000  0.4700900000000  0.5562930000000 1.0
C      1  0.4676980000000  0.5096750000000  0.5375330000000 1.0
C      1  0.5269630000000  0.4951990000000  0.4547940000000 1.0
C      1  0.5504450000000  0.4851740000000  0.4906100000000 1.0
C      1  0.4961860000000  0.4347970000000  0.4800380000000 1.0
C      1  0.4916330000000  0.4752880000000  0.4352630000000 1.0
C      1  0.4439620000000  0.5162440000000  0.4890190000000 1.0
C      1  0.5203030000000  0.4564420000000  0.5120540000000 1.0
C      1  0.4360000000000  0.4598840000000  0.5387850000000 1.0
C      1  0.5358590000000  0.4583950000000  0.5380830000000 1.0
C      1  0.5407790000000  0.5568930000000  0.5202720000000 1.0
C      1  0.5534300000000  0.5264410000000  0.4681000000000 1.0
C      1  0.4621300000000  0.4739700000000  0.4686130000000 1.0
C      1  0.4188690000000  0.4762110000000  0.5236350000000 1.0
C      1  0.5175020000000  0.4694170000000  0.4442160000000 1.0
C      1  0.5271780000000  0.5737230000000  0.5016840000000 1.0
C      1  0.4898350000000  0.4651430000000  0.4776600000000 1.0
C      1  0.5354100000000  0.5323820000000  0.4450120000000 1.0
C      1  0.5299790000000  0.5271260000000  0.4901890000000 1.0
C      1  0.5750890000000  0.5173070000000  0.5190360000000 1.0
C      1  0.4860830000000  0.5154650000000  0.4614620000000 1.0
C      1  0.5613020000000  0.5397940000000  0.5087110000000 1.0
C      1  0.5624140000000  0.4985240000000  0.4679540000000 1.0
C      1  0.5315970000000  0.5096100000000  0.5306700000000 1.0
C      1  0.4704750000000  0.5555520000000  0.5189480000000 1.0
C      1  0.4686440000000  0.5298310000000  0.4799110000000 1.0
C      1  0.4315810000000  0.5258030000000  0.5147590000000 1.0
C      1  0.5604580000000  0.4726630000000  0.5357290000000 1.0
C      1  0.5155200000000  0.5536720000000  0.4551770000000 1.0
C      1  0.4829930000000  0.5500900000000  0.4944550000000 1.0
C      1  0.5223250000000  0.4475910000000  0.4654760000000 1.0
C      1  0.4776080000000  0.4374370000000  0.5243260000000 1.0
C      1  0.4186550000000  0.5039660000000  0.5277870000000 1.0
C      1  0.5114780000000  0.4947030000000  0.5438700000000 1.0
C      1  0.4484460000000  0.4866820000000  0.4920960000000 1.0
C      1  0.5239540000000  0.5370160000000  0.5327520000000 1.0
C      1  0.5127730000000  0.5532060000000  0.4859120000000 1.0
C      1  0.4919010000000  0.5141690000000  0.5529870000000 1.0
C      1  0.4630580000000  0.4599730000000  0.5318300000000 1.0
C      1  0.4967070000000  0.5353760000000  0.4426200000000 1.0
C      1  0.4231230000000  0.4722530000000  0.4963730000000 1.0
C      1  0.4693530000000  0.4848450000000  0.5170880000000 1.0
END
