TITL C-951336-9012-201 -2.8392033048877e-07 125000 -814.609354405296 0 0 130 (C1) n - 1
REM
REM in /home/bkarasulu/work/CARBON/AIRSS/Generating-Clusters/EDIP-Nigel-Params/with-SteepDescent/Only-C1/SD-CG/HFTN-CG
REM
REM
REM
REM
REM
REM ./C.cell (11c1c37f851c82e70ff6c80c92926a4b)
REM
REM compiler GCC version 9.2.1 20190827 (Red Hat 9.2.1-1)
REM options -cpp -mtune=generic -march=x86-64 -g -O0 -fpre-include=/usr/include/finclude/math-vector-fortran.h
REM seed -333756042 1939211066 2106836610 1833753983 -2007785190 -1801617496 -2023278458 -1753083755 -351657221 -1824670226 1057512475 -394786594 -463170482 -265230133 280609293 -2057269653 1237360111 600268008 -770989867 1066376702 -563226326 -762142008 207058968 -1784119921 -953994992 980718637 503564965 866052813 -1247767514 -828153557 -226124528 1520447838 1485653328
REM
CELL 1.54180   50.00000   50.00000   50.00000   90.00000   90.00000   90.00000
LATT -1
SFAC C  
C      1  0.4950070000000  0.4759550000000  0.4278530000000 1.0
C      1  0.4248690000000  0.5445270000000  0.4597790000000 1.0
C      1  0.4891090000000  0.4964710000000  0.6025420000000 1.0
C      1  0.5676960000000  0.4377440000000  0.5133650000000 1.0
C      1  0.4228590000000  0.5456260000000  0.4899760000000 1.0
C      1  0.5003480000000  0.4444010000000  0.4744250000000 1.0
C      1  0.4352090000000  0.5580310000000  0.5495560000000 1.0
C      1  0.5015790000000  0.5323130000000  0.5370460000000 1.0
C      1  0.4906650000000  0.5741640000000  0.4556530000000 1.0
C      1  0.4643350000000  0.5594030000000  0.5504960000000 1.0
C      1  0.4990500000000  0.5286290000000  0.5065250000000 1.0
C      1  0.5276170000000  0.4534530000000  0.4806980000000 1.0
C      1  0.4683950000000  0.4908740000000  0.5838070000000 1.0
C      1  0.5891240000000  0.5530090000000  0.5188740000000 1.0
C      1  0.4518930000000  0.4122890000000  0.4990130000000 1.0
C      1  0.4741540000000  0.4030790000000  0.5493270000000 1.0
C      1  0.6005200000000  0.4977560000000  0.4392270000000 1.0
C      1  0.4201590000000  0.4451650000000  0.5240880000000 1.0
C      1  0.5297450000000  0.5463890000000  0.4685350000000 1.0
C      1  0.4513780000000  0.5861020000000  0.4884720000000 1.0
C      1  0.5534090000000  0.5000270000000  0.4196720000000 1.0
C      1  0.3965390000000  0.5293760000000  0.4947430000000 1.0
C      1  0.5996080000000  0.5210770000000  0.4553230000000 1.0
C      1  0.5679380000000  0.4548200000000  0.5546640000000 1.0
C      1  0.4429330000000  0.4608210000000  0.5583740000000 1.0
C      1  0.3859040000000  0.5243440000000  0.4685820000000 1.0
C      1  0.5912520000000  0.4679260000000  0.4726100000000 1.0
C      1  0.4437060000000  0.4849240000000  0.4167320000000 1.0
C      1  0.5254690000000  0.4727140000000  0.5742580000000 1.0
C      1  0.5100000000000  0.5950570000000  0.4597040000000 1.0
C      1  0.4846440000000  0.4430360000000  0.5803330000000 1.0
C      1  0.4887810000000  0.4515460000000  0.4467910000000 1.0
C      1  0.4670760000000  0.5645430000000  0.4712840000000 1.0
C      1  0.3874500000000  0.4805330000000  0.4952510000000 1.0
C      1  0.4775630000000  0.4170620000000  0.5724600000000 1.0
C      1  0.4763710000000  0.5009980000000  0.4768870000000 1.0
C      1  0.5395240000000  0.4034710000000  0.4943090000000 1.0
C      1  0.5325310000000  0.4677900000000  0.5223590000000 1.0
C      1  0.5366990000000  0.5183800000000  0.4565220000000 1.0
C      1  0.4291720000000  0.5270240000000  0.5720700000000 1.0
C      1  0.5552610000000  0.5279140000000  0.4330010000000 1.0
C      1  0.5427740000000  0.5486870000000  0.4172260000000 1.0
C      1  0.4289140000000  0.4758480000000  0.5318890000000 1.0
C      1  0.4761150000000  0.4894250000000  0.5220290000000 1.0
C      1  0.4634860000000  0.4346770000000  0.4512480000000 1.0
C      1  0.4386440000000  0.4506590000000  0.4508830000000 1.0
C      1  0.4461240000000  0.5078640000000  0.5825450000000 1.0
C      1  0.5941850000000  0.5156770000000  0.4841290000000 1.0
C      1  0.4793580000000  0.5705260000000  0.5271370000000 1.0
C      1  0.4905580000000  0.5292630000000  0.5821900000000 1.0
C      1  0.5852510000000  0.4753620000000  0.4461700000000 1.0
C      1  0.5950870000000  0.5065920000000  0.5304310000000 1.0
C      1  0.4610560000000  0.5360750000000  0.4256900000000 1.0
C      1  0.5665140000000  0.5713110000000  0.5272380000000 1.0
C      1  0.5166010000000  0.4320060000000  0.5221010000000 1.0
C      1  0.5170310000000  0.4947020000000  0.5936940000000 1.0
C      1  0.5728900000000  0.5381420000000  0.5609720000000 1.0
C      1  0.4947340000000  0.4987390000000  0.5000770000000 1.0
C      1  0.4175130000000  0.5236120000000  0.5468570000000 1.0
C      1  0.4988570000000  0.4144530000000  0.4762600000000 1.0
C      1  0.4679720000000  0.4112880000000  0.4732460000000 1.0
C      1  0.5071370000000  0.5189870000000  0.4160110000000 1.0
C      1  0.5767850000000  0.5371040000000  0.4965450000000 1.0
C      1  0.4784560000000  0.5346750000000  0.5559960000000 1.0
C      1  0.5558000000000  0.4747350000000  0.5713370000000 1.0
C      1  0.5177770000000  0.5191690000000  0.5779050000000 1.0
C      1  0.4732780000000  0.5463500000000  0.4977730000000 1.0
C      1  0.4641030000000  0.4228550000000  0.5305730000000 1.0
C      1  0.4479820000000  0.5040760000000  0.4871430000000 1.0
C      1  0.5024050000000  0.6170490000000  0.4760580000000 1.0
C      1  0.5084980000000  0.5059540000000  0.4444550000000 1.0
C      1  0.4857270000000  0.5192700000000  0.4575680000000 1.0
C      1  0.5499640000000  0.5251750000000  0.5081270000000 1.0
C      1  0.4821270000000  0.4534070000000  0.4966720000000 1.0
C      1  0.4706630000000  0.4664050000000  0.5668520000000 1.0
C      1  0.4251060000000  0.5743760000000  0.5284770000000 1.0
C      1  0.5363290000000  0.5833990000000  0.4578420000000 1.0
C      1  0.5204460000000  0.5917010000000  0.5150650000000 1.0
C      1  0.4875250000000  0.4440460000000  0.5246360000000 1.0
C      1  0.5129600000000  0.4090690000000  0.5022370000000 1.0
C      1  0.5254220000000  0.5592570000000  0.5512500000000 1.0
C      1  0.4199140000000  0.4479400000000  0.4735010000000 1.0
C      1  0.5156190000000  0.5469590000000  0.4211740000000 1.0
C      1  0.4519720000000  0.5471060000000  0.4506600000000 1.0
C      1  0.5601520000000  0.4185050000000  0.4653710000000 1.0
C      1  0.5137360000000  0.4460170000000  0.5816910000000 1.0
C      1  0.5262120000000  0.4799720000000  0.4943710000000 1.0
C      1  0.5272300000000  0.4968670000000  0.4053630000000 1.0
C      1  0.5161220000000  0.4708740000000  0.4083870000000 1.0
C      1  0.5794790000000  0.5411960000000  0.4474010000000 1.0
C      1  0.4262310000000  0.5739660000000  0.5004160000000 1.0
C      1  0.5492240000000  0.4944370000000  0.4766320000000 1.0
C      1  0.4497660000000  0.4830130000000  0.5098240000000 1.0
C      1  0.5478590000000  0.5824860000000  0.5065390000000 1.0
C      1  0.5052890000000  0.5499760000000  0.4495880000000 1.0
C      1  0.4709820000000  0.4896100000000  0.4135710000000 1.0
C      1  0.4772930000000  0.5179540000000  0.4104560000000 1.0
C      1  0.5336200000000  0.4197430000000  0.5440970000000 1.0
C      1  0.5158390000000  0.4806120000000  0.5459470000000 1.0
C      1  0.5628060000000  0.4639880000000  0.5270000000000 1.0
C      1  0.5202000000000  0.5119960000000  0.5487670000000 1.0
C      1  0.4398830000000  0.4788300000000  0.4433820000000 1.0
C      1  0.4977650000000  0.6046410000000  0.5010330000000 1.0
C      1  0.3972790000000  0.5032270000000  0.5086360000000 1.0
C      1  0.5946530000000  0.5334340000000  0.5407220000000 1.0
C      1  0.5560010000000  0.5795910000000  0.4779820000000 1.0
C      1  0.5617980000000  0.4208170000000  0.5373040000000 1.0
C      1  0.5813230000000  0.4856390000000  0.5166420000000 1.0
C      1  0.5143320000000  0.4033340000000  0.4544960000000 1.0
C      1  0.4533260000000  0.4595190000000  0.4912900000000 1.0
C      1  0.5724310000000  0.5552690000000  0.4731860000000 1.0
C      1  0.4706550000000  0.5947280000000  0.5103010000000 1.0
C      1  0.4096260000000  0.4992630000000  0.5344170000000 1.0
C      1  0.4069540000000  0.4746980000000  0.4761160000000 1.0
C      1  0.4394700000000  0.4347550000000  0.5444360000000 1.0
C      1  0.4469420000000  0.5308730000000  0.4999820000000 1.0
C      1  0.5490840000000  0.4318820000000  0.4895640000000 1.0
C      1  0.4098710000000  0.5199380000000  0.4536410000000 1.0
C      1  0.4338190000000  0.4369850000000  0.4988450000000 1.0
C      1  0.5269560000000  0.4243970000000  0.5706570000000 1.0
C      1  0.5574140000000  0.4812140000000  0.4420120000000 1.0
C      1  0.5256570000000  0.5369630000000  0.4963010000000 1.0
C      1  0.5639890000000  0.5005420000000  0.5598630000000 1.0
C      1  0.5480730000000  0.5176470000000  0.5390630000000 1.0
C      1  0.5794070000000  0.4902250000000  0.4876540000000 1.0
C      1  0.5543530000000  0.5596630000000  0.5510740000000 1.0
C      1  0.4254060000000  0.4955430000000  0.4643370000000 1.0
C      1  0.5408650000000  0.4059650000000  0.4500220000000 1.0
C      1  0.4872290000000  0.4705280000000  0.5410610000000 1.0
C      1  0.5081980000000  0.5759460000000  0.5355090000000 1.0
END
