TITL C-950533-5798-17 -4.99209167342193e-07 125000 -162.232201326693 0 0 28 (C1) n - 1
REM
REM in /home/bkarasulu/work/CARBON/AIRSS/Generating-Clusters/EDIP-Nigel-Params/with-SteepDescent/Only-C1/SD-CG/HFTN-CG
REM
REM
REM
REM
REM
REM ./C.cell (11c1c37f851c82e70ff6c80c92926a4b)
REM
REM compiler GCC version 9.2.1 20190827 (Red Hat 9.2.1-1)
REM options -cpp -mtune=generic -march=x86-64 -g -O0 -fpre-include=/usr/include/finclude/math-vector-fortran.h
REM seed -166573874 -57876734 -1730476018 32677127 -761922070 -539369234 -1150716369 1484149017 -1996843812 1953161456 779566820 -1588728999 923477701 -521652526 1288264443 -502611227 -1650386465 -102065209 -1499559628 -323156765 -1921947312 -490464579 -1348542277 214136373 1086950994 -1931051226 545610858 -1152848101 -1689875717 -1048545789 -933793895 -1022463393 1160364611
REM
CELL 1.54180   50.00000   50.00000   50.00000   90.00000   90.00000   90.00000
LATT -1
SFAC C  
C      1  0.4555190000000  0.4731740000000  0.4712690000000 1.0
C      1  0.5050620000000  0.5013660000000  0.4722510000000 1.0
C      1  0.5494830000000  0.4977280000000  0.4925740000000 1.0
C      1  0.4493890000000  0.4755100000000  0.4989550000000 1.0
C      1  0.5034740000000  0.4759340000000  0.4554510000000 1.0
C      1  0.4843380000000  0.4907370000000  0.5253380000000 1.0
C      1  0.5318840000000  0.4772490000000  0.5057010000000 1.0
C      1  0.4838960000000  0.5445690000000  0.4818120000000 1.0
C      1  0.4414430000000  0.5008800000000  0.5085850000000 1.0
C      1  0.5072530000000  0.5115420000000  0.5649120000000 1.0
C      1  0.5323510000000  0.5021490000000  0.5577340000000 1.0
C      1  0.4711150000000  0.5387080000000  0.5178090000000 1.0
C      1  0.5075430000000  0.5520730000000  0.4972360000000 1.0
C      1  0.4929160000000  0.4548720000000  0.4927750000000 1.0
C      1  0.4846780000000  0.5217270000000  0.4652600000000 1.0
C      1  0.5048830000000  0.4909510000000  0.5015970000000 1.0
C      1  0.5272970000000  0.4608340000000  0.4600860000000 1.0
C      1  0.4970560000000  0.5490350000000  0.5237930000000 1.0
C      1  0.5325210000000  0.5139910000000  0.4736640000000 1.0
C      1  0.5326190000000  0.5386360000000  0.4898020000000 1.0
C      1  0.4801230000000  0.4602310000000  0.4660950000000 1.0
C      1  0.5558050000000  0.5185640000000  0.5122190000000 1.0
C      1  0.4633150000000  0.5115250000000  0.5223480000000 1.0
C      1  0.4973090000000  0.4890520000000  0.5520450000000 1.0
C      1  0.5244480000000  0.4542470000000  0.4878660000000 1.0
C      1  0.4723830000000  0.4650300000000  0.5148740000000 1.0
C      1  0.5478420000000  0.5137960000000  0.5381820000000 1.0
C      1  0.4640560000000  0.5158900000000  0.4497660000000 1.0
END
