TITL C-950524-1808-214 5.77173596022469e-07 125000 -509.937676741482 0 0 85 (C1) n - 1
REM
REM in /home/bkarasulu/work/CARBON/AIRSS/Generating-Clusters/EDIP-Nigel-Params/with-SteepDescent/Only-C1/SD-CG/HFTN-CG
REM
REM
REM
REM
REM
REM ./C.cell (11c1c37f851c82e70ff6c80c92926a4b)
REM
REM compiler GCC version 9.2.1 20190827 (Red Hat 9.2.1-1)
REM options -cpp -mtune=generic -march=x86-64 -g -O0 -fpre-include=/usr/include/finclude/math-vector-fortran.h
REM seed -1982068119 466133872 1841367030 -2014745140 -171302549 -413590434 1387452561 443801639 -1426829257 -1320424124 306986120 1779125213 -1441694477 971299934 -1825250933 -849085467 1765492562 765180240 1716211859 -1598809938 -367098774 1232709039 727676524 1365623459 1923558441 -1110438492 -2003183209 -1281286953 1479408571 1371244597 -782359692 3286383 -1799223803
REM
CELL 1.54180   50.00000   50.00000   50.00000   90.00000   90.00000   90.00000
LATT -1
SFAC C  
C      1  0.4701170000000  0.4655020000000  0.5773610000000 1.0
C      1  0.5429980000000  0.4447820000000  0.4464240000000 1.0
C      1  0.5015540000000  0.5174550000000  0.5046830000000 1.0
C      1  0.5938130000000  0.5106270000000  0.4955760000000 1.0
C      1  0.4647710000000  0.5906440000000  0.5217750000000 1.0
C      1  0.4151940000000  0.5094730000000  0.4816650000000 1.0
C      1  0.4724860000000  0.4743350000000  0.5050330000000 1.0
C      1  0.4969850000000  0.4434760000000  0.4690500000000 1.0
C      1  0.5582960000000  0.5263030000000  0.5617340000000 1.0
C      1  0.5387290000000  0.5075290000000  0.4821440000000 1.0
C      1  0.5162150000000  0.4501520000000  0.4914340000000 1.0
C      1  0.4523710000000  0.5084640000000  0.5472410000000 1.0
C      1  0.5379030000000  0.4771740000000  0.4800920000000 1.0
C      1  0.4185080000000  0.4953170000000  0.4589610000000 1.0
C      1  0.5530740000000  0.4292020000000  0.5123400000000 1.0
C      1  0.4320180000000  0.4912850000000  0.5621720000000 1.0
C      1  0.4547170000000  0.5574100000000  0.4402470000000 1.0
C      1  0.5426050000000  0.5047970000000  0.5142410000000 1.0
C      1  0.4347850000000  0.4439540000000  0.5534930000000 1.0
C      1  0.4547080000000  0.5694370000000  0.5060290000000 1.0
C      1  0.4281780000000  0.4475210000000  0.5263690000000 1.0
C      1  0.5412110000000  0.4782750000000  0.5689710000000 1.0
C      1  0.4485680000000  0.4926440000000  0.5159460000000 1.0
C      1  0.5131340000000  0.5144930000000  0.4614630000000 1.0
C      1  0.4594480000000  0.5420930000000  0.5188930000000 1.0
C      1  0.4607460000000  0.5254070000000  0.4778160000000 1.0
C      1  0.5347520000000  0.4740660000000  0.4500090000000 1.0
C      1  0.5214140000000  0.5402040000000  0.4467510000000 1.0
C      1  0.4538110000000  0.4347930000000  0.4814420000000 1.0
C      1  0.5682020000000  0.4802810000000  0.5278180000000 1.0
C      1  0.5805250000000  0.5072090000000  0.5232370000000 1.0
C      1  0.4999820000000  0.4883730000000  0.5080310000000 1.0
C      1  0.4793730000000  0.5085760000000  0.5616260000000 1.0
C      1  0.4823930000000  0.5696740000000  0.5610060000000 1.0
C      1  0.5379590000000  0.4446270000000  0.5318800000000 1.0
C      1  0.4395090000000  0.4780880000000  0.4541000000000 1.0
C      1  0.4902010000000  0.4837460000000  0.5718430000000 1.0
C      1  0.4966120000000  0.4451360000000  0.5159780000000 1.0
C      1  0.4739490000000  0.5090520000000  0.4319360000000 1.0
C      1  0.4431450000000  0.4648640000000  0.5705160000000 1.0
C      1  0.5050870000000  0.4807830000000  0.4450640000000 1.0
C      1  0.4751640000000  0.4583560000000  0.4333170000000 1.0
C      1  0.4865540000000  0.4186520000000  0.5110400000000 1.0
C      1  0.5145480000000  0.4752150000000  0.5593080000000 1.0
C      1  0.5020570000000  0.4547400000000  0.4266400000000 1.0
C      1  0.5662120000000  0.5118620000000  0.4678130000000 1.0
C      1  0.5509120000000  0.5038700000000  0.5742060000000 1.0
C      1  0.5366020000000  0.4280170000000  0.4902680000000 1.0
C      1  0.4996980000000  0.5144420000000  0.4174700000000 1.0
C      1  0.5246020000000  0.4799000000000  0.5226020000000 1.0
C      1  0.4101510000000  0.4869380000000  0.5445690000000 1.0
C      1  0.4617630000000  0.4827400000000  0.4368770000000 1.0
C      1  0.5685410000000  0.5314290000000  0.5364750000000 1.0
C      1  0.4908740000000  0.5375060000000  0.5246410000000 1.0
C      1  0.4902070000000  0.5234410000000  0.4789850000000 1.0
C      1  0.5286660000000  0.5066720000000  0.4184790000000 1.0
C      1  0.5000850000000  0.5660150000000  0.4870650000000 1.0
C      1  0.5820880000000  0.5362100000000  0.4796430000000 1.0
C      1  0.4397360000000  0.4333410000000  0.5053870000000 1.0
C      1  0.4613220000000  0.5770260000000  0.4573500000000 1.0
C      1  0.4576180000000  0.5315050000000  0.4340500000000 1.0
C      1  0.5046580000000  0.5642550000000  0.5182080000000 1.0
C      1  0.5585620000000  0.4382840000000  0.4729560000000 1.0
C      1  0.5484590000000  0.4925550000000  0.4325590000000 1.0
C      1  0.5104030000000  0.5413710000000  0.4200690000000 1.0
C      1  0.4984040000000  0.5290710000000  0.5525590000000 1.0
C      1  0.5562450000000  0.4633060000000  0.5485410000000 1.0
C      1  0.5321850000000  0.5634000000000  0.5265800000000 1.0
C      1  0.4884400000000  0.5834800000000  0.5351410000000 1.0
C      1  0.4564980000000  0.5579550000000  0.5608930000000 1.0
C      1  0.4798260000000  0.4210380000000  0.4825960000000 1.0
C      1  0.5530030000000  0.5472880000000  0.5180510000000 1.0
C      1  0.4406050000000  0.5116770000000  0.4935960000000 1.0
C      1  0.5471890000000  0.5694110000000  0.4758610000000 1.0
C      1  0.5655630000000  0.4665180000000  0.4859270000000 1.0
C      1  0.4232460000000  0.4760250000000  0.5216090000000 1.0
C      1  0.5149750000000  0.4345910000000  0.4436930000000 1.0
C      1  0.4443010000000  0.5384130000000  0.5445450000000 1.0
C      1  0.4658190000000  0.4622480000000  0.4758200000000 1.0
C      1  0.5841410000000  0.4870880000000  0.4760330000000 1.0
C      1  0.5110660000000  0.4329260000000  0.5380240000000 1.0
C      1  0.5643630000000  0.5553880000000  0.4928610000000 1.0
C      1  0.5215960000000  0.5643030000000  0.4654950000000 1.0
C      1  0.4703770000000  0.5626730000000  0.4807130000000 1.0
C      1  0.5026320000000  0.5516400000000  0.5690990000000 1.0
END
