TITL C-951333-8791-686 -1.41656313145747e-06 125000 -880.629448864496 0 0 141 (C1) n - 1
REM
REM in /home/bkarasulu/work/CARBON/AIRSS/Generating-Clusters/EDIP-Nigel-Params/with-SteepDescent/Only-C1/SD-CG/HFTN-CG
REM
REM
REM
REM
REM
REM ./C.cell (11c1c37f851c82e70ff6c80c92926a4b)
REM
REM compiler GCC version 9.2.1 20190827 (Red Hat 9.2.1-1)
REM options -cpp -mtune=generic -march=x86-64 -g -O0 -fpre-include=/usr/include/finclude/math-vector-fortran.h
REM seed -458751248 -820507769 1648249690 -869286740 1893516825 668568261 -1960985977 -852194382 -1797718283 -1617813365 2013927314 195655949 -764573432 617407726 2134059590 -543535957 -1452386898 705702022 1630745494 1052142813 -1848731863 -1973511515 -306077576 1598661409 -1419544693 -997237112 -1956434794 1492196584 -704430149 385029458 1242142179 -119316936 832364939
REM
CELL 1.54180   50.00000   50.00000   50.00000   90.00000   90.00000   90.00000
LATT -1
SFAC C  
C      1  0.4195400000000  0.4844050000000  0.5882490000000 1.0
C      1  0.4673250000000  0.5832310000000  0.4966570000000 1.0
C      1  0.4777400000000  0.4707390000000  0.4505730000000 1.0
C      1  0.5162340000000  0.4888200000000  0.5766830000000 1.0
C      1  0.5288660000000  0.4015830000000  0.4863350000000 1.0
C      1  0.5956060000000  0.5056360000000  0.4974660000000 1.0
C      1  0.4931940000000  0.5164240000000  0.5372790000000 1.0
C      1  0.5106560000000  0.4958850000000  0.4807520000000 1.0
C      1  0.5934770000000  0.4771300000000  0.4868970000000 1.0
C      1  0.4623500000000  0.5145590000000  0.5038220000000 1.0
C      1  0.5572070000000  0.5008170000000  0.4089880000000 1.0
C      1  0.5646380000000  0.5182930000000  0.4294230000000 1.0
C      1  0.5794640000000  0.5521600000000  0.4830900000000 1.0
C      1  0.4665030000000  0.4674990000000  0.5837460000000 1.0
C      1  0.4824920000000  0.5367780000000  0.3995670000000 1.0
C      1  0.5629620000000  0.5713580000000  0.4675740000000 1.0
C      1  0.5336020000000  0.4877020000000  0.4201010000000 1.0
C      1  0.5103290000000  0.4455700000000  0.5364890000000 1.0
C      1  0.3966130000000  0.5349220000000  0.4796920000000 1.0
C      1  0.5797000000000  0.4494610000000  0.5571870000000 1.0
C      1  0.5400440000000  0.5279950000000  0.5500730000000 1.0
C      1  0.5721890000000  0.4935230000000  0.5716600000000 1.0
C      1  0.3980160000000  0.4729190000000  0.5152550000000 1.0
C      1  0.5704460000000  0.4554710000000  0.4459530000000 1.0
C      1  0.5220270000000  0.6132720000000  0.5337720000000 1.0
C      1  0.4785220000000  0.4751370000000  0.5175860000000 1.0
C      1  0.5316880000000  0.4900490000000  0.5290710000000 1.0
C      1  0.5648900000000  0.4314350000000  0.4645660000000 1.0
C      1  0.5152200000000  0.5293420000000  0.4430100000000 1.0
C      1  0.4879570000000  0.5827340000000  0.5170420000000 1.0
C      1  0.4427490000000  0.5569290000000  0.5302460000000 1.0
C      1  0.4922860000000  0.4357840000000  0.4827660000000 1.0
C      1  0.4498240000000  0.4217280000000  0.5221750000000 1.0
C      1  0.5647610000000  0.4655750000000  0.5748330000000 1.0
C      1  0.4658920000000  0.4522330000000  0.5574270000000 1.0
C      1  0.5732480000000  0.4616370000000  0.5060380000000 1.0
C      1  0.5774630000000  0.5082370000000  0.4533770000000 1.0
C      1  0.4271670000000  0.5279320000000  0.5635620000000 1.0
C      1  0.5529460000000  0.5948120000000  0.4814620000000 1.0
C      1  0.5229780000000  0.5949270000000  0.4879890000000 1.0
C      1  0.5793170000000  0.4965930000000  0.5224850000000 1.0
C      1  0.4232170000000  0.5529530000000  0.4421320000000 1.0
C      1  0.4987590000000  0.3933060000000  0.4901290000000 1.0
C      1  0.5075470000000  0.6034510000000  0.5122560000000 1.0
C      1  0.4969790000000  0.5678740000000  0.4279690000000 1.0
C      1  0.4731250000000  0.5075080000000  0.5574790000000 1.0
C      1  0.4825310000000  0.5610130000000  0.5865370000000 1.0
C      1  0.5054270000000  0.5926400000000  0.4638730000000 1.0
C      1  0.4238390000000  0.4497240000000  0.4822500000000 1.0
C      1  0.5204290000000  0.5805470000000  0.4414910000000 1.0
C      1  0.5867250000000  0.5601540000000  0.5086720000000 1.0
C      1  0.5100120000000  0.4393180000000  0.5077010000000 1.0
C      1  0.4269530000000  0.5331760000000  0.5350720000000 1.0
C      1  0.4380890000000  0.4082960000000  0.5008840000000 1.0
C      1  0.5056760000000  0.5540420000000  0.4034080000000 1.0
C      1  0.4544160000000  0.4363820000000  0.4339190000000 1.0
C      1  0.5322110000000  0.5665820000000  0.4983530000000 1.0
C      1  0.4142130000000  0.5051090000000  0.5724160000000 1.0
C      1  0.3968020000000  0.5071430000000  0.4810890000000 1.0
C      1  0.4839260000000  0.5145670000000  0.6040030000000 1.0
C      1  0.5388760000000  0.5949180000000  0.5456310000000 1.0
C      1  0.5231670000000  0.5536030000000  0.5476620000000 1.0
C      1  0.5307660000000  0.5063490000000  0.5965580000000 1.0
C      1  0.4869200000000  0.5497590000000  0.4747110000000 1.0
C      1  0.4401320000000  0.5223310000000  0.4148530000000 1.0
C      1  0.5800860000000  0.5459180000000  0.5558260000000 1.0
C      1  0.4468690000000  0.4695630000000  0.4867080000000 1.0
C      1  0.5284420000000  0.4437420000000  0.4182660000000 1.0
C      1  0.4171470000000  0.5233940000000  0.4331110000000 1.0
C      1  0.4734650000000  0.4589020000000  0.4767320000000 1.0
C      1  0.5438360000000  0.5625800000000  0.4473840000000 1.0
C      1  0.5423730000000  0.4639450000000  0.4396240000000 1.0
C      1  0.4577870000000  0.4209920000000  0.4599670000000 1.0
C      1  0.5530290000000  0.5100030000000  0.5227350000000 1.0
C      1  0.4415910000000  0.4711700000000  0.5950350000000 1.0
C      1  0.4728720000000  0.4099280000000  0.5349370000000 1.0
C      1  0.5297750000000  0.4641740000000  0.4687010000000 1.0
C      1  0.4885930000000  0.5433100000000  0.4449180000000 1.0
C      1  0.5113050000000  0.5273540000000  0.6050030000000 1.0
C      1  0.4941620000000  0.5500260000000  0.5361690000000 1.0
C      1  0.5083800000000  0.5029020000000  0.4308560000000 1.0
C      1  0.5100570000000  0.5528910000000  0.5902770000000 1.0
C      1  0.4397710000000  0.4982250000000  0.4662540000000 1.0
C      1  0.4120030000000  0.4630880000000  0.4561920000000 1.0
C      1  0.4493190000000  0.4742270000000  0.5167540000000 1.0
C      1  0.5298930000000  0.5394260000000  0.4083170000000 1.0
C      1  0.5128760000000  0.5442160000000  0.4902430000000 1.0
C      1  0.4576920000000  0.5459700000000  0.4135220000000 1.0
C      1  0.4978140000000  0.4902860000000  0.4545020000000 1.0
C      1  0.5425910000000  0.5687520000000  0.5282180000000 1.0
C      1  0.5258730000000  0.4316860000000  0.5745000000000 1.0
C      1  0.5357730000000  0.4263820000000  0.5033080000000 1.0
C      1  0.5385810000000  0.4144090000000  0.4606690000000 1.0
C      1  0.4125660000000  0.4499810000000  0.5111870000000 1.0
C      1  0.5184610000000  0.5055200000000  0.5500150000000 1.0
C      1  0.4907230000000  0.4704530000000  0.4024140000000 1.0
C      1  0.4194420000000  0.5485170000000  0.4717590000000 1.0
C      1  0.4889080000000  0.3939920000000  0.5174620000000 1.0
C      1  0.5315590000000  0.4163430000000  0.5505480000000 1.0
C      1  0.4571980000000  0.5300050000000  0.5674950000000 1.0
C      1  0.4339560000000  0.4600070000000  0.4350730000000 1.0
C      1  0.4857950000000  0.5013110000000  0.4083030000000 1.0
C      1  0.4706870000000  0.5568970000000  0.5560100000000 1.0
C      1  0.5707130000000  0.5590600000000  0.5313480000000 1.0
C      1  0.4345850000000  0.4221820000000  0.4771580000000 1.0
C      1  0.4784590000000  0.4253720000000  0.5600870000000 1.0
C      1  0.5834900000000  0.4796990000000  0.4589340000000 1.0
C      1  0.5349430000000  0.4616200000000  0.5714950000000 1.0
C      1  0.5053390000000  0.4345000000000  0.4331670000000 1.0
C      1  0.4823270000000  0.4513480000000  0.4265800000000 1.0
C      1  0.4882900000000  0.5014260000000  0.5093410000000 1.0
C      1  0.5922050000000  0.5007000000000  0.5503900000000 1.0
C      1  0.4108370000000  0.4960540000000  0.4570930000000 1.0
C      1  0.6009890000000  0.5272930000000  0.5536630000000 1.0
C      1  0.4841530000000  0.4927940000000  0.5813340000000 1.0
C      1  0.4798910000000  0.4020980000000  0.4681160000000 1.0
C      1  0.5623650000000  0.4487250000000  0.5337560000000 1.0
C      1  0.4082990000000  0.4972410000000  0.5063490000000 1.0
C      1  0.4576440000000  0.4998710000000  0.4186390000000 1.0
C      1  0.5226410000000  0.5224310000000  0.4730500000000 1.0
C      1  0.4658290000000  0.5369030000000  0.5956530000000 1.0
C      1  0.5270380000000  0.5785270000000  0.5685330000000 1.0
C      1  0.4521250000000  0.4834590000000  0.4419600000000 1.0
C      1  0.4879360000000  0.4646740000000  0.5420190000000 1.0
C      1  0.4619510000000  0.5385920000000  0.4881510000000 1.0
C      1  0.4781080000000  0.5786750000000  0.4678890000000 1.0
C      1  0.4991240000000  0.4248180000000  0.5795180000000 1.0
C      1  0.5517950000000  0.5444710000000  0.4259340000000 1.0
C      1  0.4485900000000  0.5614980000000  0.5023800000000 1.0
C      1  0.4373510000000  0.4478360000000  0.5311550000000 1.0
C      1  0.5835080000000  0.5236940000000  0.4771050000000 1.0
C      1  0.5503020000000  0.4217380000000  0.5294100000000 1.0
C      1  0.4452520000000  0.5300590000000  0.4662930000000 1.0
C      1  0.4353920000000  0.5078360000000  0.5191330000000 1.0
C      1  0.5201900000000  0.4670720000000  0.4004630000000 1.0
C      1  0.5582110000000  0.5144340000000  0.5874530000000 1.0
C      1  0.5623970000000  0.5415230000000  0.5783610000000 1.0
C      1  0.4549200000000  0.5625490000000  0.4399660000000 1.0
C      1  0.5358110000000  0.4629070000000  0.5409490000000 1.0
C      1  0.5517350000000  0.4479420000000  0.4869300000000 1.0
C      1  0.5151460000000  0.4359110000000  0.4612860000000 1.0
END
