TITL C-950526-5686-276 2.87889593049425e-07 125000 -202.84533978001 0 0 34 (C1) n - 1
REM
REM in /home/bkarasulu/work/CARBON/AIRSS/Generating-Clusters/EDIP-Nigel-Params/with-SteepDescent/Only-C1/SD-CG/HFTN-CG
REM
REM
REM
REM
REM
REM ./C.cell (11c1c37f851c82e70ff6c80c92926a4b)
REM
REM compiler GCC version 9.2.1 20190827 (Red Hat 9.2.1-1)
REM options -cpp -mtune=generic -march=x86-64 -g -O0 -fpre-include=/usr/include/finclude/math-vector-fortran.h
REM seed 1418929940 2096857005 639430691 2143124730 -1709193168 -79194960 -1105826061 -707671241 -1952457135 1104418179 2142764853 1701292490 440740748 -862981886 -450760111 -373753141 5083601 -508580835 728785619 1119945528 742057307 -1236335090 562570256 353436113 1846453043 491250673 1541680411 52769827 -1753125481 986450073 772355367 -1340182007 -1169784165
REM
CELL 1.54180   50.00000   50.00000   50.00000   90.00000   90.00000   90.00000
LATT -1
SFAC C  
C      1  0.5483210000000  0.5005660000000  0.4757660000000 1.0
C      1  0.5149040000000  0.5300180000000  0.4753980000000 1.0
C      1  0.4721290000000  0.4551270000000  0.4841530000000 1.0
C      1  0.5456310000000  0.5344820000000  0.5115620000000 1.0
C      1  0.4961340000000  0.4436730000000  0.5534040000000 1.0
C      1  0.5105670000000  0.5107830000000  0.5539910000000 1.0
C      1  0.5002360000000  0.5240660000000  0.5302440000000 1.0
C      1  0.4468090000000  0.4561400000000  0.4950680000000 1.0
C      1  0.4831290000000  0.5465790000000  0.4430560000000 1.0
C      1  0.4966290000000  0.4684340000000  0.4864060000000 1.0
C      1  0.4875440000000  0.4976850000000  0.4341750000000 1.0
C      1  0.5379200000000  0.5062020000000  0.5503810000000 1.0
C      1  0.4755890000000  0.4679110000000  0.5306440000000 1.0
C      1  0.5097070000000  0.5364880000000  0.4464910000000 1.0
C      1  0.4474160000000  0.4667800000000  0.5219280000000 1.0
C      1  0.4742990000000  0.5457090000000  0.4934510000000 1.0
C      1  0.5443970000000  0.5288600000000  0.4817050000000 1.0
C      1  0.4816660000000  0.4682720000000  0.5599140000000 1.0
C      1  0.4724610000000  0.5278110000000  0.5214270000000 1.0
C      1  0.5444720000000  0.4894900000000  0.5027100000000 1.0
C      1  0.5136280000000  0.5086640000000  0.4364740000000 1.0
C      1  0.4957550000000  0.4910910000000  0.5667790000000 1.0
C      1  0.4690620000000  0.5330470000000  0.4640380000000 1.0
C      1  0.5173550000000  0.5445750000000  0.5180950000000 1.0
C      1  0.4758050000000  0.5039990000000  0.4594360000000 1.0
C      1  0.5410080000000  0.4620230000000  0.5073140000000 1.0
C      1  0.5330020000000  0.4947950000000  0.4524150000000 1.0
C      1  0.4941260000000  0.4980600000000  0.4820440000000 1.0
C      1  0.4400610000000  0.4916170000000  0.5088400000000 1.0
C      1  0.5129140000000  0.4591210000000  0.5087620000000 1.0
C      1  0.5501690000000  0.5080640000000  0.5247540000000 1.0
C      1  0.5037990000000  0.5516630000000  0.4926530000000 1.0
C      1  0.5012520000000  0.4389870000000  0.5256890000000 1.0
C      1  0.4621050000000  0.5092190000000  0.5008340000000 1.0
END
