TITL C-951336-9012-410 -3.52776816433654e-06 125000 -740.639672820805 0 0 121 (C1) n - 1
REM
REM in /home/bkarasulu/work/CARBON/AIRSS/Generating-Clusters/EDIP-Nigel-Params/with-SteepDescent/Only-C1/SD-CG/HFTN-CG
REM
REM
REM
REM
REM
REM ./C.cell (11c1c37f851c82e70ff6c80c92926a4b)
REM
REM compiler GCC version 9.2.1 20190827 (Red Hat 9.2.1-1)
REM options -cpp -mtune=generic -march=x86-64 -g -O0 -fpre-include=/usr/include/finclude/math-vector-fortran.h
REM seed -2123909738 2138721502 1030278239 -1461260078 1052216372 454850355 121652343 -365208845 145468643 -502639593 -1523453781 -1511830899 1134525356 -1878242043 -181411643 1311787845 -1916075428 1629849457 -1588308749 -357290619 -838046514 1048790316 728937892 -1175043239 1622384437 957343391 -1073411078 503713767 1608161155 324002730 1755679335 563448068 -1778235720
REM
CELL 1.54180   50.00000   50.00000   50.00000   90.00000   90.00000   90.00000
LATT -1
SFAC C  
C      1  0.5697340000000  0.4373950000000  0.5315190000000 1.0
C      1  0.4201250000000  0.5486930000000  0.5253800000000 1.0
C      1  0.4673510000000  0.4812530000000  0.5113980000000 1.0
C      1  0.5606780000000  0.4415760000000  0.4645810000000 1.0
C      1  0.5889380000000  0.4857910000000  0.4559760000000 1.0
C      1  0.4230870000000  0.4539340000000  0.5219440000000 1.0
C      1  0.5482890000000  0.5953670000000  0.4815460000000 1.0
C      1  0.5185320000000  0.4077890000000  0.4815620000000 1.0
C      1  0.5238760000000  0.4799490000000  0.6048250000000 1.0
C      1  0.4594520000000  0.4765490000000  0.5926290000000 1.0
C      1  0.4562350000000  0.4727970000000  0.4638160000000 1.0
C      1  0.5143710000000  0.5927040000000  0.5186120000000 1.0
C      1  0.5485610000000  0.4742640000000  0.4969420000000 1.0
C      1  0.5340150000000  0.4108840000000  0.5308580000000 1.0
C      1  0.5492190000000  0.5002820000000  0.5259120000000 1.0
C      1  0.4875050000000  0.5676610000000  0.5546900000000 1.0
C      1  0.4256030000000  0.5277610000000  0.4519340000000 1.0
C      1  0.4371770000000  0.4779040000000  0.5753560000000 1.0
C      1  0.5108110000000  0.5066850000000  0.5014000000000 1.0
C      1  0.4978330000000  0.5542460000000  0.5064190000000 1.0
C      1  0.4359240000000  0.4952030000000  0.5503590000000 1.0
C      1  0.5474760000000  0.5672410000000  0.4749960000000 1.0
C      1  0.4973810000000  0.4852600000000  0.5952730000000 1.0
C      1  0.5754910000000  0.5332470000000  0.4604670000000 1.0
C      1  0.5353370000000  0.4667980000000  0.5580700000000 1.0
C      1  0.5126770000000  0.4513420000000  0.5456000000000 1.0
C      1  0.5725710000000  0.5428110000000  0.5114700000000 1.0
C      1  0.4871900000000  0.5544540000000  0.4461260000000 1.0
C      1  0.4313640000000  0.5663710000000  0.4815480000000 1.0
C      1  0.5356090000000  0.5602480000000  0.5563080000000 1.0
C      1  0.5424640000000  0.4293070000000  0.4437090000000 1.0
C      1  0.4429870000000  0.5463190000000  0.5464500000000 1.0
C      1  0.4899990000000  0.5920050000000  0.5001700000000 1.0
C      1  0.5941380000000  0.4877010000000  0.5149910000000 1.0
C      1  0.4141360000000  0.4802390000000  0.4532330000000 1.0
C      1  0.5373880000000  0.4616670000000  0.5870740000000 1.0
C      1  0.5450370000000  0.4674510000000  0.4670430000000 1.0
C      1  0.4925310000000  0.3986620000000  0.4894140000000 1.0
C      1  0.4950350000000  0.4950470000000  0.4021260000000 1.0
C      1  0.5252990000000  0.5347590000000  0.4160120000000 1.0
C      1  0.4895130000000  0.4517230000000  0.4205730000000 1.0
C      1  0.5137760000000  0.4646720000000  0.4637800000000 1.0
C      1  0.4775050000000  0.5086690000000  0.5538700000000 1.0
C      1  0.4126290000000  0.4982630000000  0.5037540000000 1.0
C      1  0.5801330000000  0.4657960000000  0.4997300000000 1.0
C      1  0.6016130000000  0.5077210000000  0.4969010000000 1.0
C      1  0.5503600000000  0.5252350000000  0.5109010000000 1.0
C      1  0.4723000000000  0.5689850000000  0.4660380000000 1.0
C      1  0.4859970000000  0.4159730000000  0.5348210000000 1.0
C      1  0.5611630000000  0.5469680000000  0.5478790000000 1.0
C      1  0.4523390000000  0.5853490000000  0.5219980000000 1.0
C      1  0.4188460000000  0.4508040000000  0.4923530000000 1.0
C      1  0.5964000000000  0.5117760000000  0.4693270000000 1.0
C      1  0.4291860000000  0.5727950000000  0.5095230000000 1.0
C      1  0.4410970000000  0.4998630000000  0.4164720000000 1.0
C      1  0.5601860000000  0.4327080000000  0.5021750000000 1.0
C      1  0.5133140000000  0.5741380000000  0.5416360000000 1.0
C      1  0.4828990000000  0.4637310000000  0.5835130000000 1.0
C      1  0.4171720000000  0.4786320000000  0.4821940000000 1.0
C      1  0.5228200000000  0.5173480000000  0.4504490000000 1.0
C      1  0.4233220000000  0.5272040000000  0.5021270000000 1.0
C      1  0.5383140000000  0.5986160000000  0.5061930000000 1.0
C      1  0.4233090000000  0.5130200000000  0.5717550000000 1.0
C      1  0.5036450000000  0.4543920000000  0.4918840000000 1.0
C      1  0.4668060000000  0.4355760000000  0.5448270000000 1.0
C      1  0.5296100000000  0.4976320000000  0.5505970000000 1.0
C      1  0.4919940000000  0.5067920000000  0.4807180000000 1.0
C      1  0.4912410000000  0.5914500000000  0.4699420000000 1.0
C      1  0.4996280000000  0.5219450000000  0.4133020000000 1.0
C      1  0.4402310000000  0.5365450000000  0.5748440000000 1.0
C      1  0.4739140000000  0.4890210000000  0.4443360000000 1.0
C      1  0.4603550000000  0.5702280000000  0.5448250000000 1.0
C      1  0.5187750000000  0.4751640000000  0.5087650000000 1.0
C      1  0.5155370000000  0.4561500000000  0.4084100000000 1.0
C      1  0.4184570000000  0.5411010000000  0.4760260000000 1.0
C      1  0.5636940000000  0.4634930000000  0.5462660000000 1.0
C      1  0.5166540000000  0.4214900000000  0.4551430000000 1.0
C      1  0.5726890000000  0.5537350000000  0.4848180000000 1.0
C      1  0.4178040000000  0.4831360000000  0.5289420000000 1.0
C      1  0.4398500000000  0.4306150000000  0.4843290000000 1.0
C      1  0.4737140000000  0.4783790000000  0.4158420000000 1.0
C      1  0.4588100000000  0.4296820000000  0.4615000000000 1.0
C      1  0.5524750000000  0.5139940000000  0.4513450000000 1.0
C      1  0.5173530000000  0.4800170000000  0.3937770000000 1.0
C      1  0.5587010000000  0.4149160000000  0.5443020000000 1.0
C      1  0.5758560000000  0.4923190000000  0.5387510000000 1.0
C      1  0.5199400000000  0.5431350000000  0.5750620000000 1.0
C      1  0.4781590000000  0.5346260000000  0.4274110000000 1.0
C      1  0.5435830000000  0.5129290000000  0.5723270000000 1.0
C      1  0.4998940000000  0.5263680000000  0.5203230000000 1.0
C      1  0.5532450000000  0.5615070000000  0.4459140000000 1.0
C      1  0.5021090000000  0.4933310000000  0.4567720000000 1.0
C      1  0.4579750000000  0.5232940000000  0.5340260000000 1.0
C      1  0.4594800000000  0.5148680000000  0.4376040000000 1.0
C      1  0.4240010000000  0.4574530000000  0.4409540000000 1.0
C      1  0.4908920000000  0.4373860000000  0.4475480000000 1.0
C      1  0.4723080000000  0.4589150000000  0.4919030000000 1.0
C      1  0.4845270000000  0.4585070000000  0.5538380000000 1.0
C      1  0.5693490000000  0.5208280000000  0.5594120000000 1.0
C      1  0.4679570000000  0.5307560000000  0.5833450000000 1.0
C      1  0.5322590000000  0.4229420000000  0.5037240000000 1.0
C      1  0.5055970000000  0.5188470000000  0.5484960000000 1.0
C      1  0.5319970000000  0.5243940000000  0.4877310000000 1.0
C      1  0.4672140000000  0.6063270000000  0.5108980000000 1.0
C      1  0.4539990000000  0.5261970000000  0.5031210000000 1.0
C      1  0.4768040000000  0.4828270000000  0.5392460000000 1.0
C      1  0.5602290000000  0.4868450000000  0.4498190000000 1.0
C      1  0.4516120000000  0.4408730000000  0.5198240000000 1.0
C      1  0.4646560000000  0.5015760000000  0.4889230000000 1.0
C      1  0.5456410000000  0.4980340000000  0.5975010000000 1.0
C      1  0.4176820000000  0.5042320000000  0.4362940000000 1.0
C      1  0.5308370000000  0.5609960000000  0.4278340000000 1.0
C      1  0.5217340000000  0.5520960000000  0.4856760000000 1.0
C      1  0.5921340000000  0.4623360000000  0.4727990000000 1.0
C      1  0.5122670000000  0.4220500000000  0.5470790000000 1.0
C      1  0.5376020000000  0.4439450000000  0.4203500000000 1.0
C      1  0.4480820000000  0.4444580000000  0.4393930000000 1.0
C      1  0.4665700000000  0.5556830000000  0.4934100000000 1.0
C      1  0.4902970000000  0.5489890000000  0.5764440000000 1.0
C      1  0.4882880000000  0.4216890000000  0.5057770000000 1.0
C      1  0.5076670000000  0.5733780000000  0.4400320000000 1.0
END
