TITL C-951345-2650-680 -1.500083263093e-06 125000 -1168.5716263791 0 0 186 (C1) n - 1
REM
REM in /home/bkarasulu/work/CARBON/AIRSS/Generating-Clusters/EDIP-Nigel-Params/with-SteepDescent/Only-C1/SD-CG/HFTN-CG
REM
REM
REM
REM
REM
REM ./C.cell (11c1c37f851c82e70ff6c80c92926a4b)
REM
REM compiler GCC version 9.2.1 20190827 (Red Hat 9.2.1-1)
REM options -cpp -mtune=generic -march=x86-64 -g -O0 -fpre-include=/usr/include/finclude/math-vector-fortran.h
REM seed 46200592 35341045 -1214493549 665385796 1015280301 -1272625554 578423280 -385657741 1371735533 617041893 672349028 1203393752 -1712192822 300387374 -318728830 2039467042 -845011188 -924888179 -1248116335 596829957 -1649730369 -1996417203 -1793720873 1984478818 -1369826409 471486646 1848432736 -940193767 -1450696731 2038668793 1131149773 1436390574 510452583
REM
CELL 1.54180   50.00000   50.00000   50.00000   90.00000   90.00000   90.00000
LATT -1
SFAC C  
C      1  0.4343680000000  0.6034740000000  0.5462120000000 1.0
C      1  0.5251790000000  0.5955350000000  0.5414190000000 1.0
C      1  0.5665050000000  0.4422340000000  0.5201260000000 1.0
C      1  0.4503000000000  0.5524820000000  0.4140740000000 1.0
C      1  0.4537750000000  0.4624380000000  0.4633870000000 1.0
C      1  0.4414240000000  0.5037820000000  0.4903180000000 1.0
C      1  0.4476590000000  0.5491350000000  0.4598660000000 1.0
C      1  0.4632290000000  0.5769730000000  0.4261220000000 1.0
C      1  0.5371480000000  0.4786400000000  0.5911000000000 1.0
C      1  0.4317480000000  0.6032230000000  0.5177680000000 1.0
C      1  0.3994280000000  0.5435140000000  0.4912820000000 1.0
C      1  0.4956970000000  0.6045010000000  0.4662780000000 1.0
C      1  0.6121290000000  0.5167020000000  0.5171470000000 1.0
C      1  0.5370100000000  0.4751460000000  0.3937430000000 1.0
C      1  0.4801990000000  0.5515340000000  0.4569780000000 1.0
C      1  0.4111190000000  0.4919940000000  0.4834560000000 1.0
C      1  0.4361960000000  0.5069320000000  0.5206410000000 1.0
C      1  0.5068610000000  0.4393600000000  0.5648520000000 1.0
C      1  0.4494020000000  0.5911070000000  0.4503220000000 1.0
C      1  0.4343120000000  0.5377440000000  0.4355510000000 1.0
C      1  0.4460660000000  0.4489860000000  0.5155600000000 1.0
C      1  0.4059810000000  0.5141880000000  0.5237710000000 1.0
C      1  0.4432410000000  0.5098490000000  0.4392680000000 1.0
C      1  0.4832130000000  0.5169000000000  0.5127730000000 1.0
C      1  0.5970670000000  0.5433160000000  0.5537210000000 1.0
C      1  0.3939480000000  0.5140520000000  0.4968210000000 1.0
C      1  0.5616430000000  0.5967930000000  0.5101090000000 1.0
C      1  0.4593300000000  0.4322490000000  0.5636500000000 1.0
C      1  0.6043610000000  0.5449100000000  0.5102080000000 1.0
C      1  0.4958410000000  0.4757920000000  0.4288690000000 1.0
C      1  0.4614330000000  0.5050150000000  0.3952010000000 1.0
C      1  0.4680450000000  0.5331960000000  0.3995140000000 1.0
C      1  0.5338950000000  0.6075650000000  0.5152550000000 1.0
C      1  0.4898730000000  0.5351390000000  0.6009170000000 1.0
C      1  0.5500070000000  0.4463310000000  0.4939200000000 1.0
C      1  0.4641780000000  0.4514550000000  0.4898030000000 1.0
C      1  0.4853720000000  0.5887780000000  0.5749170000000 1.0
C      1  0.4404950000000  0.4810730000000  0.5352520000000 1.0
C      1  0.4896610000000  0.5575040000000  0.4851980000000 1.0
C      1  0.4385830000000  0.4975480000000  0.4123370000000 1.0
C      1  0.4853860000000  0.6163780000000  0.5371890000000 1.0
C      1  0.5942370000000  0.5191480000000  0.4704870000000 1.0
C      1  0.4760580000000  0.5461600000000  0.5456640000000 1.0
C      1  0.5406610000000  0.5521300000000  0.4099970000000 1.0
C      1  0.4742110000000  0.4052940000000  0.5583320000000 1.0
C      1  0.4782300000000  0.5940800000000  0.5194830000000 1.0
C      1  0.5802790000000  0.4500030000000  0.4620250000000 1.0
C      1  0.5233910000000  0.4223240000000  0.4501020000000 1.0
C      1  0.5069720000000  0.5964140000000  0.4401670000000 1.0
C      1  0.5414720000000  0.5619140000000  0.5726320000000 1.0
C      1  0.4569930000000  0.6023940000000  0.5007980000000 1.0
C      1  0.5117660000000  0.5171140000000  0.6008560000000 1.0
C      1  0.5511840000000  0.4334400000000  0.5451380000000 1.0
C      1  0.4826710000000  0.4703130000000  0.5024550000000 1.0
C      1  0.5202320000000  0.6100660000000  0.4852860000000 1.0
C      1  0.4827060000000  0.3898950000000  0.4587830000000 1.0
C      1  0.4875590000000  0.3978460000000  0.4321110000000 1.0
C      1  0.5765740000000  0.5588050000000  0.4449010000000 1.0
C      1  0.4289700000000  0.4470840000000  0.5676700000000 1.0
C      1  0.5190990000000  0.4657730000000  0.4495820000000 1.0
C      1  0.4737280000000  0.4968990000000  0.4938480000000 1.0
C      1  0.4452370000000  0.5505130000000  0.5090330000000 1.0
C      1  0.4371790000000  0.4288860000000  0.4344380000000 1.0
C      1  0.5731490000000  0.5256540000000  0.5551030000000 1.0
C      1  0.4060390000000  0.4641000000000  0.5267590000000 1.0
C      1  0.5822140000000  0.4674770000000  0.5278710000000 1.0
C      1  0.5531830000000  0.3820730000000  0.5156990000000 1.0
C      1  0.6115220000000  0.4297950000000  0.5261070000000 1.0
C      1  0.5330350000000  0.3889140000000  0.4660530000000 1.0
C      1  0.4605040000000  0.4047860000000  0.4740760000000 1.0
C      1  0.4704740000000  0.4603540000000  0.4380880000000 1.0
C      1  0.5010900000000  0.6037700000000  0.5563310000000 1.0
C      1  0.5492890000000  0.4767680000000  0.4908930000000 1.0
C      1  0.4514220000000  0.4485920000000  0.4176000000000 1.0
C      1  0.4985910000000  0.4874830000000  0.5614090000000 1.0
C      1  0.5536830000000  0.4053730000000  0.4779770000000 1.0
C      1  0.5082380000000  0.4890310000000  0.5925270000000 1.0
C      1  0.4666480000000  0.3843750000000  0.5417050000000 1.0
C      1  0.5891170000000  0.5008110000000  0.5627400000000 1.0
C      1  0.4041410000000  0.5573280000000  0.4634060000000 1.0
C      1  0.5603310000000  0.5143770000000  0.5235440000000 1.0
C      1  0.4159570000000  0.5570030000000  0.5172970000000 1.0
C      1  0.5705790000000  0.3978380000000  0.5000440000000 1.0
C      1  0.4087820000000  0.4640750000000  0.4967040000000 1.0
C      1  0.5408300000000  0.4499840000000  0.4338920000000 1.0
C      1  0.4419970000000  0.5338570000000  0.4843170000000 1.0
C      1  0.6116850000000  0.4587580000000  0.5247050000000 1.0
C      1  0.5439500000000  0.6038350000000  0.4671620000000 1.0
C      1  0.3975460000000  0.4907270000000  0.5401350000000 1.0
C      1  0.4899520000000  0.4758100000000  0.6129090000000 1.0
C      1  0.5030410000000  0.5354680000000  0.4998430000000 1.0
C      1  0.4643640000000  0.4863330000000  0.6117300000000 1.0
C      1  0.5491940000000  0.5232240000000  0.4082530000000 1.0
C      1  0.4116110000000  0.4676030000000  0.4395760000000 1.0
C      1  0.4281440000000  0.4152940000000  0.4936100000000 1.0
C      1  0.4787700000000  0.4273540000000  0.4826120000000 1.0
C      1  0.5478180000000  0.5642190000000  0.4370080000000 1.0
C      1  0.5276160000000  0.4836230000000  0.5098810000000 1.0
C      1  0.5855480000000  0.5429790000000  0.4876980000000 1.0
C      1  0.5062610000000  0.3840530000000  0.4764330000000 1.0
C      1  0.5738780000000  0.4901050000000  0.5084530000000 1.0
C      1  0.5338960000000  0.5032380000000  0.3928610000000 1.0
C      1  0.5214730000000  0.4402400000000  0.4985390000000 1.0
C      1  0.5117780000000  0.4319070000000  0.4030660000000 1.0
C      1  0.5462550000000  0.5555610000000  0.5158320000000 1.0
C      1  0.5172490000000  0.5081910000000  0.4763350000000 1.0
C      1  0.5339180000000  0.4859470000000  0.4661110000000 1.0
C      1  0.5417660000000  0.4502870000000  0.5988110000000 1.0
C      1  0.5155520000000  0.4636940000000  0.5492900000000 1.0
C      1  0.5066110000000  0.4371180000000  0.4728780000000 1.0
C      1  0.5068180000000  0.5101380000000  0.3850440000000 1.0
C      1  0.5304240000000  0.5475440000000  0.4545970000000 1.0
C      1  0.4206810000000  0.5534910000000  0.5496340000000 1.0
C      1  0.5764490000000  0.4863120000000  0.4259630000000 1.0
C      1  0.5096860000000  0.5556060000000  0.4109850000000 1.0
C      1  0.4117190000000  0.5851010000000  0.5114910000000 1.0
C      1  0.4477450000000  0.4952940000000  0.5915350000000 1.0
C      1  0.5628320000000  0.5882370000000  0.4823030000000 1.0
C      1  0.4157640000000  0.4398000000000  0.4809560000000 1.0
C      1  0.5385050000000  0.5231580000000  0.5946090000000 1.0
C      1  0.5833140000000  0.5298930000000  0.4446150000000 1.0
C      1  0.4926420000000  0.5800900000000  0.4206150000000 1.0
C      1  0.5332170000000  0.4500150000000  0.4057380000000 1.0
C      1  0.5941370000000  0.5618680000000  0.5323100000000 1.0
C      1  0.5021710000000  0.3831080000000  0.5054660000000 1.0
C      1  0.5052850000000  0.5426570000000  0.5470490000000 1.0
C      1  0.4743070000000  0.3811090000000  0.5149920000000 1.0
C      1  0.5167030000000  0.5553580000000  0.5203960000000 1.0
C      1  0.5078300000000  0.4156670000000  0.4259210000000 1.0
C      1  0.4283170000000  0.4689610000000  0.4137490000000 1.0
C      1  0.5176330000000  0.4382600000000  0.6077880000000 1.0
C      1  0.5575000000000  0.5350300000000  0.4991330000000 1.0
C      1  0.4866310000000  0.4889600000000  0.3936020000000 1.0
C      1  0.5061550000000  0.5417980000000  0.4383520000000 1.0
C      1  0.4240410000000  0.5798730000000  0.4612260000000 1.0
C      1  0.4631290000000  0.5710930000000  0.5341530000000 1.0
C      1  0.4929030000000  0.5084680000000  0.4261570000000 1.0
C      1  0.4250420000000  0.5265000000000  0.5634970000000 1.0
C      1  0.4957370000000  0.5371510000000  0.3924510000000 1.0
C      1  0.3924810000000  0.5146070000000  0.4426410000000 1.0
C      1  0.5448860000000  0.4736560000000  0.5618600000000 1.0
C      1  0.5257550000000  0.3815710000000  0.5234610000000 1.0
C      1  0.4447660000000  0.5237860000000  0.5846690000000 1.0
C      1  0.4679670000000  0.4778410000000  0.5566850000000 1.0
C      1  0.4042460000000  0.5399000000000  0.4393100000000 1.0
C      1  0.4731800000000  0.5151150000000  0.4480270000000 1.0
C      1  0.4309030000000  0.4224680000000  0.5234250000000 1.0
C      1  0.4908500000000  0.4471670000000  0.6079950000000 1.0
C      1  0.5012150000000  0.5812200000000  0.5031700000000 1.0
C      1  0.5686220000000  0.4625030000000  0.4379450000000 1.0
C      1  0.4128870000000  0.4390990000000  0.5429250000000 1.0
C      1  0.5588350000000  0.4396260000000  0.5746170000000 1.0
C      1  0.5227940000000  0.3948480000000  0.5493050000000 1.0
C      1  0.5365850000000  0.5929680000000  0.4409980000000 1.0
C      1  0.4664880000000  0.6027760000000  0.4717430000000 1.0
C      1  0.5650460000000  0.5740760000000  0.5290830000000 1.0
C      1  0.4601260000000  0.5275440000000  0.5274500000000 1.0
C      1  0.4283500000000  0.4484790000000  0.4554590000000 1.0
C      1  0.5383940000000  0.5292460000000  0.4752720000000 1.0
C      1  0.4825270000000  0.4485330000000  0.5790320000000 1.0
C      1  0.5824430000000  0.5687390000000  0.4718370000000 1.0
C      1  0.4621150000000  0.5723490000000  0.5784990000000 1.0
C      1  0.4877290000000  0.5015560000000  0.4695320000000 1.0
C      1  0.6005760000000  0.4979120000000  0.4951780000000 1.0
C      1  0.5642620000000  0.4266630000000  0.4633870000000 1.0
C      1  0.5755030000000  0.4755390000000  0.5555540000000 1.0
C      1  0.5338290000000  0.5023060000000  0.5304350000000 1.0
C      1  0.4418210000000  0.5765480000000  0.5549990000000 1.0
C      1  0.5479630000000  0.4071440000000  0.5559920000000 1.0
C      1  0.5093450000000  0.4620600000000  0.5152550000000 1.0
C      1  0.5886230000000  0.4246430000000  0.5079230000000 1.0
C      1  0.6132060000000  0.5092340000000  0.5459950000000 1.0
C      1  0.4124350000000  0.4983920000000  0.5644840000000 1.0
C      1  0.5982070000000  0.4454670000000  0.4847870000000 1.0
C      1  0.4675200000000  0.4498240000000  0.5384140000000 1.0
C      1  0.4054320000000  0.4923530000000  0.4540740000000 1.0
C      1  0.5490320000000  0.5824350000000  0.5531290000000 1.0
C      1  0.6136500000000  0.4688650000000  0.4961870000000 1.0
C      1  0.5559250000000  0.5371300000000  0.5776250000000 1.0
C      1  0.4288770000000  0.4771870000000  0.5773420000000 1.0
C      1  0.4658850000000  0.5439750000000  0.5885330000000 1.0
C      1  0.4534960000000  0.3865370000000  0.4961150000000 1.0
C      1  0.5141680000000  0.5563900000000  0.5712560000000 1.0
C      1  0.5111030000000  0.5120510000000  0.5466740000000 1.0
C      1  0.5009020000000  0.4142060000000  0.5515200000000 1.0
C      1  0.5723280000000  0.5135720000000  0.4233260000000 1.0
END
