TITL C-951334-9093-744 -2.91343551565476e-06 125000 -752.222456945569 0 0 122 (C1) n - 1
REM
REM in /home/bkarasulu/work/CARBON/AIRSS/Generating-Clusters/EDIP-Nigel-Params/with-SteepDescent/Only-C1/SD-CG/HFTN-CG
REM
REM
REM
REM
REM
REM ./C.cell (11c1c37f851c82e70ff6c80c92926a4b)
REM
REM compiler GCC version 9.2.1 20190827 (Red Hat 9.2.1-1)
REM options -cpp -mtune=generic -march=x86-64 -g -O0 -fpre-include=/usr/include/finclude/math-vector-fortran.h
REM seed -1474105007 -754615772 -572076879 1388333365 -623824046 309429699 -22010264 -1431851951 -1117721256 1233776575 -303806463 1639019358 -1290847233 1732889255 -207125353 450689294 -2083842181 1974942642 -1509511195 984606561 -1433841183 743821482 887662795 -1594330873 -2024273782 -864471531 1621340605 -1201427531 -1115894127 147649461 -93685876 -1097839418 247509609
REM
CELL 1.54180   50.00000   50.00000   50.00000   90.00000   90.00000   90.00000
LATT -1
SFAC C  
C      1  0.4879130000000  0.6048910000000  0.4968810000000 1.0
C      1  0.5441320000000  0.5061170000000  0.4584210000000 1.0
C      1  0.5356570000000  0.4201610000000  0.4577710000000 1.0
C      1  0.4896640000000  0.4409150000000  0.4813190000000 1.0
C      1  0.4315650000000  0.4770550000000  0.5664880000000 1.0
C      1  0.4967240000000  0.4367090000000  0.4379060000000 1.0
C      1  0.4188490000000  0.4738410000000  0.4694860000000 1.0
C      1  0.4834210000000  0.4718290000000  0.5209080000000 1.0
C      1  0.4110980000000  0.4809720000000  0.5233200000000 1.0
C      1  0.4569260000000  0.5919560000000  0.5311180000000 1.0
C      1  0.5616540000000  0.5040210000000  0.5679730000000 1.0
C      1  0.5775210000000  0.4573700000000  0.5342880000000 1.0
C      1  0.5614600000000  0.4645740000000  0.4399320000000 1.0
C      1  0.4292740000000  0.4442830000000  0.4651460000000 1.0
C      1  0.5450170000000  0.4546350000000  0.5742150000000 1.0
C      1  0.4962960000000  0.5018810000000  0.5243010000000 1.0
C      1  0.4332450000000  0.4627710000000  0.5222950000000 1.0
C      1  0.4476130000000  0.4879970000000  0.4291120000000 1.0
C      1  0.4058130000000  0.5288420000000  0.5254310000000 1.0
C      1  0.5096690000000  0.5735580000000  0.4355030000000 1.0
C      1  0.5292040000000  0.5541190000000  0.5685480000000 1.0
C      1  0.4119940000000  0.5165790000000  0.4969140000000 1.0
C      1  0.4559060000000  0.4872560000000  0.5784130000000 1.0
C      1  0.5382660000000  0.4238780000000  0.5377560000000 1.0
C      1  0.5019180000000  0.4621690000000  0.4987660000000 1.0
C      1  0.5503620000000  0.5631440000000  0.5500060000000 1.0
C      1  0.4685040000000  0.5037140000000  0.5584400000000 1.0
C      1  0.5448140000000  0.5177780000000  0.4851720000000 1.0
C      1  0.5572110000000  0.4429800000000  0.5498250000000 1.0
C      1  0.4626800000000  0.4634030000000  0.4296200000000 1.0
C      1  0.4570090000000  0.4720130000000  0.5047030000000 1.0
C      1  0.4875680000000  0.4051660000000  0.4697320000000 1.0
C      1  0.4754440000000  0.4192500000000  0.4459630000000 1.0
C      1  0.5371020000000  0.4272020000000  0.5074950000000 1.0
C      1  0.5476630000000  0.5721380000000  0.4999850000000 1.0
C      1  0.4964790000000  0.4798080000000  0.4311530000000 1.0
C      1  0.5649940000000  0.4297110000000  0.4953210000000 1.0
C      1  0.5887180000000  0.4967320000000  0.5636790000000 1.0
C      1  0.5759680000000  0.5437020000000  0.4673760000000 1.0
C      1  0.5257080000000  0.4978440000000  0.5288860000000 1.0
C      1  0.5174780000000  0.4446510000000  0.5787260000000 1.0
C      1  0.4511640000000  0.5395190000000  0.4454000000000 1.0
C      1  0.5733810000000  0.5007550000000  0.5282640000000 1.0
C      1  0.4888190000000  0.5461760000000  0.4746400000000 1.0
C      1  0.5502170000000  0.4713490000000  0.4903720000000 1.0
C      1  0.5953430000000  0.4747620000000  0.5475830000000 1.0
C      1  0.5306620000000  0.5121880000000  0.4164490000000 1.0
C      1  0.4399230000000  0.5695720000000  0.5412750000000 1.0
C      1  0.4166460000000  0.5565430000000  0.5286560000000 1.0
C      1  0.4600590000000  0.4467520000000  0.4880340000000 1.0
C      1  0.5558210000000  0.5236460000000  0.4268260000000 1.0
C      1  0.4463200000000  0.5440260000000  0.5065550000000 1.0
C      1  0.4848620000000  0.4486700000000  0.5391470000000 1.0
C      1  0.5298380000000  0.4554020000000  0.5046770000000 1.0
C      1  0.4427110000000  0.4558760000000  0.5500500000000 1.0
C      1  0.5621170000000  0.4287230000000  0.4661220000000 1.0
C      1  0.4044280000000  0.4870110000000  0.4937360000000 1.0
C      1  0.5329100000000  0.5663000000000  0.4527190000000 1.0
C      1  0.5841750000000  0.4503220000000  0.5064750000000 1.0
C      1  0.5127180000000  0.4264610000000  0.5543220000000 1.0
C      1  0.5196010000000  0.5316990000000  0.4918690000000 1.0
C      1  0.4992740000000  0.4840660000000  0.4794390000000 1.0
C      1  0.4897770000000  0.4060300000000  0.5463310000000 1.0
C      1  0.5015520000000  0.4691250000000  0.5833000000000 1.0
C      1  0.4794900000000  0.4233870000000  0.5260870000000 1.0
C      1  0.4178750000000  0.5048960000000  0.5428750000000 1.0
C      1  0.5970430000000  0.5018340000000  0.4875480000000 1.0
C      1  0.4833590000000  0.5474110000000  0.5535940000000 1.0
C      1  0.4226290000000  0.4341500000000  0.5173710000000 1.0
C      1  0.4654260000000  0.5088160000000  0.4155690000000 1.0
C      1  0.5399300000000  0.4568730000000  0.4208450000000 1.0
C      1  0.5841280000000  0.5425280000000  0.5168790000000 1.0
C      1  0.4541620000000  0.5464940000000  0.5500510000000 1.0
C      1  0.4428780000000  0.5137150000000  0.5031050000000 1.0
C      1  0.4555380000000  0.5695510000000  0.4486380000000 1.0
C      1  0.4583120000000  0.5008960000000  0.4791510000000 1.0
C      1  0.5886810000000  0.4730720000000  0.4874730000000 1.0
C      1  0.5480300000000  0.4968200000000  0.5072610000000 1.0
C      1  0.4428140000000  0.5804370000000  0.4724420000000 1.0
C      1  0.4529690000000  0.4405930000000  0.4450390000000 1.0
C      1  0.4873690000000  0.5080880000000  0.4365570000000 1.0
C      1  0.5724320000000  0.5480690000000  0.5418860000000 1.0
C      1  0.4923800000000  0.5403970000000  0.5258420000000 1.0
C      1  0.5329310000000  0.5818410000000  0.4776430000000 1.0
C      1  0.4610610000000  0.5384550000000  0.4173110000000 1.0
C      1  0.4853070000000  0.5696900000000  0.4544850000000 1.0
C      1  0.5218700000000  0.4817710000000  0.4146460000000 1.0
C      1  0.5077940000000  0.5812340000000  0.5355870000000 1.0
C      1  0.4731510000000  0.5228330000000  0.4614620000000 1.0
C      1  0.5080150000000  0.5263370000000  0.4285120000000 1.0
C      1  0.4864020000000  0.6005300000000  0.5275120000000 1.0
C      1  0.5233200000000  0.5428580000000  0.5218300000000 1.0
C      1  0.4105350000000  0.5364100000000  0.4730900000000 1.0
C      1  0.5461190000000  0.4835120000000  0.5815520000000 1.0
C      1  0.4924330000000  0.5509020000000  0.4211400000000 1.0
C      1  0.5929230000000  0.5208770000000  0.4668470000000 1.0
C      1  0.4477160000000  0.5178000000000  0.5416990000000 1.0
C      1  0.5039820000000  0.5680870000000  0.5614340000000 1.0
C      1  0.4247880000000  0.5245250000000  0.4505510000000 1.0
C      1  0.4986750000000  0.5087960000000  0.4953360000000 1.0
C      1  0.5781650000000  0.4432780000000  0.4482500000000 1.0
C      1  0.5692310000000  0.5533260000000  0.4943710000000 1.0
C      1  0.5193680000000  0.4922150000000  0.5876940000000 1.0
C      1  0.4360050000000  0.4959770000000  0.4564300000000 1.0
C      1  0.4271540000000  0.5585660000000  0.4859610000000 1.0
C      1  0.4407840000000  0.4238460000000  0.4963960000000 1.0
C      1  0.5160880000000  0.4121820000000  0.4791660000000 1.0
C      1  0.5154820000000  0.5191270000000  0.5749670000000 1.0
C      1  0.4751960000000  0.5540300000000  0.5013700000000 1.0
C      1  0.5375550000000  0.5213060000000  0.5433360000000 1.0
C      1  0.5246840000000  0.4329220000000  0.4337900000000 1.0
C      1  0.5121290000000  0.5988630000000  0.4844690000000 1.0
C      1  0.4741790000000  0.4692370000000  0.5900700000000 1.0
C      1  0.5556470000000  0.5470040000000  0.4458860000000 1.0
C      1  0.4873670000000  0.5233570000000  0.5689530000000 1.0
C      1  0.4540590000000  0.4091000000000  0.5302380000000 1.0
C      1  0.5375730000000  0.5788400000000  0.5280830000000 1.0
C      1  0.4341780000000  0.4259390000000  0.5468180000000 1.0
C      1  0.4651210000000  0.5833960000000  0.4943670000000 1.0
C      1  0.5419340000000  0.4769620000000  0.4604600000000 1.0
C      1  0.5942880000000  0.5149400000000  0.5138810000000 1.0
C      1  0.5105280000000  0.4685140000000  0.4556590000000 1.0
END
