TITL C-950527-2551-371 -2.23051735249186e-06 125000 -905.783948396631 0 0 147 (C1) n - 1
REM
REM in /home/bkarasulu/work/CARBON/AIRSS/Generating-Clusters/EDIP-Nigel-Params/with-SteepDescent/Only-C1/SD-CG/HFTN-CG
REM
REM
REM
REM
REM
REM ./C.cell (11c1c37f851c82e70ff6c80c92926a4b)
REM
REM compiler GCC version 9.2.1 20190827 (Red Hat 9.2.1-1)
REM options -cpp -mtune=generic -march=x86-64 -g -O0 -fpre-include=/usr/include/finclude/math-vector-fortran.h
REM seed 281871438 -797827874 -1002446437 1769619134 364089433 338775517 174346763 127511078 -2144286375 -1561933499 992597822 1975067243 -2030256803 -2126514985 1874964679 -2028525324 -1642010606 1286645763 -1118474442 -1673224141 -619986209 1862980058 986035381 1088342897 717314391 -1293070013 -741978619 -1888192262 1317754905 959350540 -1376804239 -400935910 -333023092
REM
CELL 1.54180   50.00000   50.00000   50.00000   90.00000   90.00000   90.00000
LATT -1
SFAC C  
C      1  0.5080720000000  0.3945090000000  0.4860150000000 1.0
C      1  0.5755290000000  0.4525160000000  0.5671680000000 1.0
C      1  0.5336810000000  0.4175240000000  0.4492880000000 1.0
C      1  0.5040390000000  0.4799420000000  0.5184160000000 1.0
C      1  0.5050950000000  0.5849710000000  0.4921640000000 1.0
C      1  0.5072540000000  0.5112360000000  0.5559550000000 1.0
C      1  0.5563020000000  0.5818710000000  0.4701230000000 1.0
C      1  0.5185450000000  0.5913080000000  0.5483500000000 1.0
C      1  0.4449590000000  0.5700960000000  0.5284820000000 1.0
C      1  0.5523090000000  0.4111530000000  0.5239040000000 1.0
C      1  0.4848310000000  0.5280670000000  0.4147860000000 1.0
C      1  0.4730390000000  0.4738830000000  0.5126990000000 1.0
C      1  0.4783460000000  0.5453040000000  0.4791660000000 1.0
C      1  0.5117800000000  0.5218730000000  0.4489180000000 1.0
C      1  0.4706590000000  0.4311570000000  0.4114460000000 1.0
C      1  0.5096010000000  0.4329030000000  0.4399940000000 1.0
C      1  0.5971890000000  0.4722180000000  0.5044460000000 1.0
C      1  0.4110420000000  0.4606710000000  0.4426980000000 1.0
C      1  0.5799220000000  0.4966440000000  0.4412820000000 1.0
C      1  0.4383860000000  0.5585200000000  0.5548240000000 1.0
C      1  0.5258180000000  0.4606240000000  0.5059220000000 1.0
C      1  0.4998220000000  0.5648170000000  0.4698970000000 1.0
C      1  0.4671180000000  0.5898420000000  0.5239880000000 1.0
C      1  0.4529590000000  0.4426610000000  0.4314070000000 1.0
C      1  0.4153930000000  0.4586090000000  0.4737800000000 1.0
C      1  0.5504380000000  0.4949270000000  0.5752580000000 1.0
C      1  0.5359140000000  0.4761580000000  0.4835290000000 1.0
C      1  0.4884390000000  0.5061780000000  0.4622080000000 1.0
C      1  0.5505220000000  0.4983940000000  0.4742960000000 1.0
C      1  0.4144960000000  0.4318910000000  0.5151980000000 1.0
C      1  0.4220160000000  0.4868440000000  0.4295070000000 1.0
C      1  0.4565390000000  0.5825100000000  0.4700010000000 1.0
C      1  0.4982150000000  0.5809920000000  0.4448710000000 1.0
C      1  0.4380870000000  0.5436740000000  0.4192360000000 1.0
C      1  0.4631960000000  0.4534820000000  0.4926510000000 1.0
C      1  0.5400380000000  0.5274020000000  0.4158050000000 1.0
C      1  0.5555710000000  0.4378430000000  0.5518060000000 1.0
C      1  0.3990060000000  0.4764280000000  0.4898820000000 1.0
C      1  0.5291140000000  0.5693430000000  0.5678960000000 1.0
C      1  0.5725760000000  0.5456720000000  0.5417790000000 1.0
C      1  0.5507810000000  0.5093840000000  0.5289020000000 1.0
C      1  0.5616600000000  0.5372750000000  0.4902650000000 1.0
C      1  0.4831300000000  0.4104110000000  0.4768970000000 1.0
C      1  0.4377370000000  0.5072620000000  0.5355000000000 1.0
C      1  0.5949470000000  0.4546410000000  0.4804540000000 1.0
C      1  0.4445630000000  0.4680500000000  0.4742560000000 1.0
C      1  0.5141180000000  0.4383840000000  0.4894420000000 1.0
C      1  0.4605450000000  0.4207350000000  0.5288060000000 1.0
C      1  0.5806240000000  0.4762930000000  0.4634450000000 1.0
C      1  0.4041210000000  0.5447220000000  0.5147220000000 1.0
C      1  0.5912510000000  0.5225690000000  0.5410090000000 1.0
C      1  0.4334180000000  0.4312760000000  0.5361140000000 1.0
C      1  0.5292400000000  0.4378170000000  0.5638910000000 1.0
C      1  0.5526400000000  0.4502390000000  0.5220990000000 1.0
C      1  0.4646410000000  0.5453720000000  0.4310690000000 1.0
C      1  0.4076890000000  0.5106600000000  0.4336060000000 1.0
C      1  0.5758490000000  0.5255820000000  0.4504720000000 1.0
C      1  0.5105110000000  0.4224800000000  0.5478810000000 1.0
C      1  0.5390600000000  0.6013520000000  0.5297830000000 1.0
C      1  0.4947290000000  0.4622880000000  0.5857970000000 1.0
C      1  0.5549380000000  0.5792020000000  0.5030140000000 1.0
C      1  0.5038350000000  0.4815450000000  0.4291280000000 1.0
C      1  0.5700960000000  0.4359550000000  0.4754290000000 1.0
C      1  0.5586230000000  0.4309820000000  0.4386170000000 1.0
C      1  0.4747390000000  0.5918140000000  0.4952940000000 1.0
C      1  0.4756850000000  0.4454480000000  0.5716780000000 1.0
C      1  0.4083780000000  0.5023750000000  0.5424630000000 1.0
C      1  0.4488510000000  0.4550660000000  0.5768040000000 1.0
C      1  0.5474180000000  0.4559820000000  0.4660990000000 1.0
C      1  0.4613690000000  0.4235800000000  0.4965260000000 1.0
C      1  0.5093560000000  0.3877450000000  0.5127840000000 1.0
C      1  0.4876310000000  0.4158380000000  0.4280570000000 1.0
C      1  0.5577340000000  0.5421140000000  0.4340170000000 1.0
C      1  0.4812810000000  0.5588350000000  0.5817120000000 1.0
C      1  0.4898390000000  0.5135970000000  0.5925990000000 1.0
C      1  0.5943130000000  0.5400290000000  0.4694500000000 1.0
C      1  0.5944880000000  0.5009470000000  0.4972830000000 1.0
C      1  0.4401610000000  0.5329310000000  0.5708560000000 1.0
C      1  0.4194370000000  0.5355400000000  0.4384770000000 1.0
C      1  0.4335380000000  0.5385940000000  0.4647650000000 1.0
C      1  0.4349260000000  0.4572390000000  0.5505170000000 1.0
C      1  0.5908160000000  0.4992390000000  0.5577320000000 1.0
C      1  0.5239940000000  0.4038500000000  0.5302130000000 1.0
C      1  0.4823090000000  0.5283770000000  0.5045710000000 1.0
C      1  0.5227670000000  0.5781760000000  0.4298730000000 1.0
C      1  0.5169800000000  0.5289430000000  0.5946900000000 1.0
C      1  0.5125870000000  0.5367470000000  0.4129720000000 1.0
C      1  0.4821030000000  0.4848600000000  0.6003560000000 1.0
C      1  0.4881510000000  0.4750250000000  0.4547650000000 1.0
C      1  0.4521930000000  0.4912180000000  0.4306580000000 1.0
C      1  0.5101690000000  0.5574730000000  0.5884710000000 1.0
C      1  0.5422720000000  0.5238460000000  0.5792390000000 1.0
C      1  0.4653340000000  0.5337800000000  0.5912240000000 1.0
C      1  0.4794440000000  0.4984600000000  0.4168930000000 1.0
C      1  0.4664390000000  0.4995380000000  0.4996570000000 1.0
C      1  0.5406660000000  0.4763410000000  0.5941960000000 1.0
C      1  0.4633610000000  0.5304800000000  0.4583170000000 1.0
C      1  0.5782270000000  0.5611390000000  0.5159430000000 1.0
C      1  0.4421920000000  0.4110030000000  0.4519400000000 1.0
C      1  0.5330250000000  0.5412990000000  0.4892780000000 1.0
C      1  0.5197650000000  0.6105710000000  0.4852040000000 1.0
C      1  0.4242310000000  0.5658760000000  0.5069620000000 1.0
C      1  0.5225390000000  0.4576870000000  0.5836750000000 1.0
C      1  0.4326720000000  0.5662540000000  0.4773270000000 1.0
C      1  0.5414320000000  0.5636230000000  0.4482610000000 1.0
C      1  0.4240810000000  0.4372630000000  0.4306990000000 1.0
C      1  0.5184570000000  0.4561460000000  0.4219940000000 1.0
C      1  0.5603670000000  0.4841480000000  0.4225830000000 1.0
C      1  0.5485190000000  0.4565710000000  0.4226110000000 1.0
C      1  0.5451280000000  0.6082100000000  0.4713600000000 1.0
C      1  0.4722240000000  0.4875420000000  0.5578310000000 1.0
C      1  0.4263890000000  0.5191870000000  0.4858410000000 1.0
C      1  0.5096650000000  0.4811340000000  0.5488880000000 1.0
C      1  0.4902080000000  0.5927490000000  0.5415190000000 1.0
C      1  0.5492310000000  0.5469940000000  0.5610240000000 1.0
C      1  0.5228120000000  0.5214940000000  0.5304220000000 1.0
C      1  0.5279410000000  0.5645310000000  0.5055800000000 1.0
C      1  0.4820020000000  0.4284010000000  0.5487920000000 1.0
C      1  0.5649130000000  0.5092810000000  0.5002340000000 1.0
C      1  0.5371150000000  0.5047780000000  0.4449550000000 1.0
C      1  0.4892340000000  0.5518230000000  0.5252430000000 1.0
C      1  0.6025610000000  0.5471620000000  0.4986580000000 1.0
C      1  0.4754710000000  0.5490990000000  0.5514710000000 1.0
C      1  0.5864680000000  0.4723420000000  0.5506630000000 1.0
C      1  0.4532370000000  0.4790640000000  0.5368850000000 1.0
C      1  0.3983350000000  0.5220870000000  0.4969190000000 1.0
C      1  0.4715220000000  0.4035760000000  0.4499710000000 1.0
C      1  0.4969540000000  0.4447350000000  0.4654540000000 1.0
C      1  0.6069310000000  0.5214380000000  0.5150150000000 1.0
C      1  0.4366730000000  0.4145130000000  0.4808690000000 1.0
C      1  0.5298260000000  0.4146420000000  0.4797090000000 1.0
C      1  0.4387020000000  0.5298840000000  0.5129160000000 1.0
C      1  0.5442210000000  0.4849810000000  0.5468030000000 1.0
C      1  0.4438500000000  0.4958760000000  0.4834460000000 1.0
C      1  0.4175070000000  0.5144110000000  0.5678330000000 1.0
C      1  0.5083700000000  0.5095600000000  0.5076650000000 1.0
C      1  0.4592200000000  0.4682870000000  0.4470910000000 1.0
C      1  0.3929660000000  0.4964340000000  0.5085590000000 1.0
C      1  0.4771700000000  0.5183580000000  0.5516230000000 1.0
C      1  0.5735970000000  0.4727490000000  0.5242160000000 1.0
C      1  0.4693800000000  0.5755910000000  0.4395920000000 1.0
C      1  0.4140280000000  0.4312840000000  0.4872520000000 1.0
C      1  0.5182190000000  0.5513300000000  0.5297330000000 1.0
C      1  0.5361320000000  0.6188090000000  0.5075590000000 1.0
C      1  0.5563560000000  0.4154720000000  0.4947540000000 1.0
C      1  0.4545760000000  0.4807370000000  0.5903860000000 1.0
C      1  0.5220230000000  0.5467140000000  0.4639330000000 1.0
END
