TITL C-951343-2256-313 -1.2659047805173e-06 125000 -401.500389263379 0 0 66 (C1) n - 1
REM
REM in /home/bkarasulu/work/CARBON/AIRSS/Generating-Clusters/EDIP-Nigel-Params/with-SteepDescent/Only-C1/SD-CG/HFTN-CG
REM
REM
REM
REM
REM
REM ./C.cell (11c1c37f851c82e70ff6c80c92926a4b)
REM
REM compiler GCC version 9.2.1 20190827 (Red Hat 9.2.1-1)
REM options -cpp -mtune=generic -march=x86-64 -g -O0 -fpre-include=/usr/include/finclude/math-vector-fortran.h
REM seed -1712875449 1833318363 1481464816 -590381369 -1479591567 -2080201208 543729084 871615660 -1942864532 -1713528798 1802106148 -463600438 -134539262 1797653883 -1477387962 -1912106204 683220482 -106380780 102568705 -2054246647 244794057 2075412219 540146205 -1194948620 -576455088 -886510220 -1444709027 -1628002470 -1387838676 -1819920775 -1754943786 670617780 -548335762
REM
CELL 1.54180   50.00000   50.00000   50.00000   90.00000   90.00000   90.00000
LATT -1
SFAC C  
C      1  0.5296240000000  0.5609490000000  0.4414640000000 1.0
C      1  0.5454490000000  0.5402930000000  0.5257120000000 1.0
C      1  0.5021820000000  0.5683810000000  0.5361490000000 1.0
C      1  0.4936760000000  0.5158550000000  0.4686990000000 1.0
C      1  0.4885420000000  0.4347030000000  0.5530620000000 1.0
C      1  0.5190440000000  0.5248620000000  0.4477870000000 1.0
C      1  0.5129410000000  0.5073610000000  0.5848520000000 1.0
C      1  0.4476800000000  0.5240570000000  0.5242510000000 1.0
C      1  0.5163450000000  0.4709600000000  0.5400880000000 1.0
C      1  0.4968990000000  0.4678010000000  0.5184510000000 1.0
C      1  0.4927650000000  0.4760860000000  0.5772000000000 1.0
C      1  0.5539900000000  0.4864170000000  0.4599980000000 1.0
C      1  0.5128200000000  0.4709820000000  0.4399580000000 1.0
C      1  0.4752900000000  0.5059910000000  0.4451760000000 1.0
C      1  0.5067970000000  0.4547130000000  0.5628290000000 1.0
C      1  0.5469640000000  0.4366220000000  0.5235530000000 1.0
C      1  0.5600830000000  0.4923580000000  0.5347660000000 1.0
C      1  0.4855850000000  0.5301900000000  0.5496070000000 1.0
C      1  0.4664970000000  0.5316020000000  0.4314390000000 1.0
C      1  0.5357160000000  0.4234010000000  0.4802230000000 1.0
C      1  0.5015130000000  0.4932320000000  0.4896140000000 1.0
C      1  0.5369210000000  0.5187640000000  0.5731590000000 1.0
C      1  0.5195580000000  0.5103150000000  0.5056630000000 1.0
C      1  0.4464840000000  0.4970500000000  0.5634550000000 1.0
C      1  0.4745720000000  0.5627740000000  0.5322960000000 1.0
C      1  0.4439800000000  0.4649350000000  0.5215260000000 1.0
C      1  0.4928640000000  0.5758190000000  0.4800780000000 1.0
C      1  0.5018720000000  0.5624910000000  0.4331110000000 1.0
C      1  0.5025080000000  0.5329140000000  0.5147970000000 1.0
C      1  0.5112490000000  0.5158520000000  0.4195060000000 1.0
C      1  0.4563140000000  0.5234190000000  0.5516680000000 1.0
C      1  0.5536290000000  0.5346100000000  0.4747810000000 1.0
C      1  0.4918410000000  0.5391820000000  0.4165180000000 1.0
C      1  0.5006720000000  0.5311530000000  0.5745620000000 1.0
C      1  0.4258580000000  0.4872060000000  0.5428870000000 1.0
C      1  0.5132380000000  0.4675290000000  0.4783810000000 1.0
C      1  0.4493850000000  0.4686790000000  0.4707220000000 1.0
C      1  0.4232570000000  0.5080310000000  0.5212990000000 1.0
C      1  0.5265840000000  0.4236250000000  0.5074250000000 1.0
C      1  0.4183150000000  0.4972790000000  0.4956450000000 1.0
C      1  0.4505790000000  0.4363790000000  0.5232310000000 1.0
C      1  0.5408420000000  0.4639870000000  0.4448950000000 1.0
C      1  0.5471180000000  0.5148460000000  0.4543200000000 1.0
C      1  0.4690090000000  0.4780000000000  0.5598000000000 1.0
C      1  0.4352030000000  0.4748180000000  0.4946280000000 1.0
C      1  0.4607000000000  0.5470760000000  0.5109560000000 1.0
C      1  0.5430690000000  0.4392510000000  0.4590190000000 1.0
C      1  0.5480010000000  0.5216980000000  0.5012220000000 1.0
C      1  0.5434760000000  0.4662560000000  0.5304140000000 1.0
C      1  0.4833690000000  0.5402030000000  0.4905680000000 1.0
C      1  0.5417130000000  0.4632070000000  0.4959840000000 1.0
C      1  0.4535850000000  0.4888520000000  0.4524890000000 1.0
C      1  0.4767870000000  0.4264240000000  0.5283560000000 1.0
C      1  0.5685620000000  0.5005160000000  0.5070330000000 1.0
C      1  0.5258060000000  0.5640590000000  0.5193790000000 1.0
C      1  0.5445460000000  0.5164570000000  0.5454030000000 1.0
C      1  0.4704620000000  0.4756390000000  0.5302860000000 1.0
C      1  0.5183520000000  0.5662280000000  0.4900720000000 1.0
C      1  0.4933280000000  0.4443580000000  0.4810290000000 1.0
C      1  0.5375640000000  0.5586970000000  0.4694350000000 1.0
C      1  0.4984040000000  0.4374030000000  0.5092730000000 1.0
C      1  0.4676380000000  0.4483530000000  0.4723370000000 1.0
C      1  0.4581490000000  0.5526980000000  0.4488700000000 1.0
C      1  0.5654000000000  0.4787420000000  0.4866360000000 1.0
C      1  0.4825990000000  0.5658070000000  0.4547040000000 1.0
C      1  0.4962370000000  0.4916010000000  0.4273050000000 1.0
END
