TITL C-951334-9093-151 -5.10453803101842e-06 125000 -1219.38377073237 0 0 194 (C1) n - 1
REM
REM in /home/bkarasulu/work/CARBON/AIRSS/Generating-Clusters/EDIP-Nigel-Params/with-SteepDescent/Only-C1/SD-CG/HFTN-CG
REM
REM
REM
REM
REM
REM ./C.cell (11c1c37f851c82e70ff6c80c92926a4b)
REM
REM compiler GCC version 9.2.1 20190827 (Red Hat 9.2.1-1)
REM options -cpp -mtune=generic -march=x86-64 -g -O0 -fpre-include=/usr/include/finclude/math-vector-fortran.h
REM seed 425665530 -1788606349 159659475 790070092 -551937121 -515144722 181857609 789636494 1949550047 270865436 1611607960 690464240 -1516794945 -2059807284 964569295 2087707389 -900396066 -1308105134 691618646 992718374 -2035329644 571412572 -1900591537 -1335028879 -2027452193 750182421 612490078 -2044093891 -1212046571 1074777563 382895298 -1497255396 1762665973
REM
CELL 1.54180   50.00000   50.00000   50.00000   90.00000   90.00000   90.00000
LATT -1
SFAC C  
C      1  0.4043620000000  0.4795470000000  0.5426780000000 1.0
C      1  0.4603810000000  0.4943390000000  0.4979650000000 1.0
C      1  0.5355070000000  0.4839260000000  0.4411050000000 1.0
C      1  0.5213570000000  0.4921210000000  0.6097810000000 1.0
C      1  0.5377380000000  0.4557250000000  0.5740800000000 1.0
C      1  0.4878870000000  0.4482850000000  0.5941430000000 1.0
C      1  0.4631180000000  0.4518420000000  0.4715750000000 1.0
C      1  0.4105860000000  0.5734060000000  0.4688920000000 1.0
C      1  0.5030510000000  0.5006650000000  0.4085950000000 1.0
C      1  0.5225990000000  0.6293300000000  0.4791630000000 1.0
C      1  0.5281710000000  0.5253180000000  0.4348610000000 1.0
C      1  0.6024800000000  0.4921710000000  0.4616170000000 1.0
C      1  0.4399900000000  0.4603180000000  0.5857200000000 1.0
C      1  0.6099180000000  0.4778350000000  0.4860210000000 1.0
C      1  0.4583400000000  0.4281500000000  0.5449380000000 1.0
C      1  0.4668710000000  0.4724820000000  0.5612210000000 1.0
C      1  0.4511940000000  0.5067520000000  0.6001220000000 1.0
C      1  0.5664660000000  0.5888290000000  0.5075140000000 1.0
C      1  0.5424100000000  0.3866490000000  0.4946160000000 1.0
C      1  0.5063920000000  0.5545840000000  0.5337870000000 1.0
C      1  0.5273580000000  0.4274650000000  0.5764020000000 1.0
C      1  0.5164970000000  0.5553070000000  0.4392930000000 1.0
C      1  0.5577480000000  0.5779010000000  0.5519190000000 1.0
C      1  0.3951100000000  0.4676340000000  0.4546680000000 1.0
C      1  0.4708920000000  0.5614230000000  0.4217360000000 1.0
C      1  0.3875100000000  0.4948690000000  0.5231130000000 1.0
C      1  0.4714670000000  0.5542330000000  0.6041660000000 1.0
C      1  0.4460210000000  0.4972030000000  0.4495900000000 1.0
C      1  0.4941220000000  0.4962160000000  0.5959900000000 1.0
C      1  0.4574180000000  0.3953680000000  0.5112390000000 1.0
C      1  0.5703880000000  0.4079340000000  0.5375750000000 1.0
C      1  0.5314180000000  0.3826930000000  0.5219050000000 1.0
C      1  0.4546580000000  0.5986100000000  0.4570770000000 1.0
C      1  0.4551620000000  0.5275320000000  0.5359810000000 1.0
C      1  0.5288500000000  0.5793630000000  0.4279610000000 1.0
C      1  0.5930920000000  0.4542410000000  0.4841730000000 1.0
C      1  0.4938490000000  0.5459520000000  0.6201360000000 1.0
C      1  0.4640490000000  0.4403240000000  0.4436860000000 1.0
C      1  0.4193400000000  0.4598370000000  0.5004290000000 1.0
C      1  0.6070370000000  0.4470580000000  0.5294320000000 1.0
C      1  0.4782560000000  0.5371860000000  0.4062700000000 1.0
C      1  0.4882040000000  0.4540240000000  0.4303760000000 1.0
C      1  0.6158860000000  0.5220100000000  0.5152490000000 1.0
C      1  0.5222040000000  0.6042590000000  0.4387100000000 1.0
C      1  0.5687730000000  0.5381910000000  0.5783940000000 1.0
C      1  0.4805870000000  0.5847080000000  0.4632740000000 1.0
C      1  0.4926900000000  0.5252740000000  0.5772320000000 1.0
C      1  0.3837470000000  0.5244690000000  0.5215330000000 1.0
C      1  0.6083800000000  0.4930070000000  0.5124540000000 1.0
C      1  0.4338300000000  0.5774720000000  0.4525410000000 1.0
C      1  0.5203140000000  0.4723870000000  0.3762150000000 1.0
C      1  0.4705330000000  0.4034260000000  0.5350490000000 1.0
C      1  0.5751440000000  0.4545410000000  0.4593460000000 1.0
C      1  0.5609970000000  0.6058420000000  0.4648040000000 1.0
C      1  0.4676090000000  0.5763190000000  0.5584540000000 1.0
C      1  0.3887010000000  0.5098920000000  0.4302300000000 1.0
C      1  0.4299090000000  0.5431900000000  0.5766620000000 1.0
C      1  0.4421450000000  0.4400390000000  0.4222640000000 1.0
C      1  0.5198250000000  0.3873360000000  0.4751100000000 1.0
C      1  0.4201490000000  0.4605840000000  0.4290190000000 1.0
C      1  0.4201010000000  0.4981680000000  0.5606930000000 1.0
C      1  0.4923510000000  0.4727210000000  0.5776280000000 1.0
C      1  0.5386730000000  0.5474270000000  0.4912040000000 1.0
C      1  0.4501140000000  0.6169540000000  0.4792450000000 1.0
C      1  0.4315620000000  0.4057690000000  0.5051210000000 1.0
C      1  0.4227630000000  0.5698740000000  0.5753190000000 1.0
C      1  0.5702130000000  0.5317010000000  0.4279590000000 1.0
C      1  0.5125760000000  0.5385730000000  0.5988440000000 1.0
C      1  0.5104370000000  0.5824640000000  0.5485530000000 1.0
C      1  0.5173030000000  0.3991100000000  0.4479410000000 1.0
C      1  0.3788070000000  0.4843010000000  0.4967200000000 1.0
C      1  0.5367570000000  0.6180520000000  0.4580950000000 1.0
C      1  0.4654940000000  0.4837210000000  0.4688450000000 1.0
C      1  0.4488510000000  0.5276590000000  0.4541500000000 1.0
C      1  0.4941260000000  0.6204520000000  0.5195210000000 1.0
C      1  0.4500430000000  0.3962690000000  0.4617320000000 1.0
C      1  0.3934040000000  0.4608440000000  0.4843750000000 1.0
C      1  0.4518120000000  0.5286760000000  0.3968080000000 1.0
C      1  0.4721790000000  0.4959150000000  0.6151580000000 1.0
C      1  0.4638390000000  0.4374350000000  0.3976060000000 1.0
C      1  0.5201450000000  0.5227490000000  0.4869950000000 1.0
C      1  0.5643230000000  0.5565410000000  0.4410010000000 1.0
C      1  0.5388800000000  0.4766670000000  0.3977760000000 1.0
C      1  0.5253980000000  0.5028760000000  0.5102070000000 1.0
C      1  0.6143120000000  0.4737940000000  0.5353950000000 1.0
C      1  0.4929090000000  0.4046770000000  0.4322230000000 1.0
C      1  0.5724100000000  0.4980560000000  0.5267250000000 1.0
C      1  0.4783010000000  0.5775240000000  0.5867190000000 1.0
C      1  0.4778790000000  0.5464280000000  0.5501290000000 1.0
C      1  0.4129680000000  0.5097830000000  0.4173890000000 1.0
C      1  0.5775710000000  0.4023460000000  0.4641210000000 1.0
C      1  0.5351190000000  0.4574290000000  0.4860320000000 1.0
C      1  0.4897470000000  0.4943260000000  0.4546700000000 1.0
C      1  0.4616100000000  0.4983080000000  0.5448330000000 1.0
C      1  0.4524680000000  0.5346380000000  0.5925670000000 1.0
C      1  0.5178420000000  0.4724600000000  0.5595860000000 1.0
C      1  0.5751570000000  0.4153960000000  0.5101920000000 1.0
C      1  0.5088890000000  0.5153220000000  0.5535710000000 1.0
C      1  0.4889950000000  0.4423260000000  0.4847370000000 1.0
C      1  0.5849730000000  0.4678220000000  0.5771080000000 1.0
C      1  0.3885230000000  0.5074770000000  0.4793600000000 1.0
C      1  0.5361030000000  0.5052160000000  0.5574650000000 1.0
C      1  0.5019670000000  0.3858070000000  0.5210310000000 1.0
C      1  0.5622590000000  0.5108160000000  0.4469920000000 1.0
C      1  0.4756550000000  0.5795880000000  0.4914270000000 1.0
C      1  0.5676230000000  0.5645140000000  0.5274680000000 1.0
C      1  0.4740490000000  0.4522330000000  0.5405170000000 1.0
C      1  0.5002660000000  0.4246750000000  0.5844760000000 1.0
C      1  0.5393670000000  0.4141040000000  0.4373070000000 1.0
C      1  0.5201710000000  0.6201350000000  0.5052860000000 1.0
C      1  0.4308170000000  0.4340800000000  0.5420140000000 1.0
C      1  0.4299140000000  0.4115380000000  0.4766600000000 1.0
C      1  0.5584440000000  0.4235060000000  0.4590090000000 1.0
C      1  0.4740960000000  0.4664070000000  0.4006630000000 1.0
C      1  0.3815770000000  0.5352190000000  0.4926790000000 1.0
C      1  0.5708770000000  0.3950460000000  0.4904270000000 1.0
C      1  0.4782280000000  0.4878700000000  0.5221550000000 1.0
C      1  0.4020650000000  0.5577560000000  0.4915010000000 1.0
C      1  0.5428090000000  0.5456520000000  0.5224000000000 1.0
C      1  0.4497620000000  0.5051490000000  0.3821580000000 1.0
C      1  0.5815740000000  0.5111160000000  0.4690700000000 1.0
C      1  0.4338190000000  0.4885350000000  0.5850280000000 1.0
C      1  0.4357940000000  0.5307550000000  0.4815260000000 1.0
C      1  0.5564160000000  0.5772100000000  0.4235210000000 1.0
C      1  0.5602420000000  0.4706500000000  0.5297050000000 1.0
C      1  0.5156030000000  0.5268810000000  0.4053630000000 1.0
C      1  0.4963210000000  0.5614380000000  0.5033390000000 1.0
C      1  0.5937640000000  0.5481880000000  0.5328990000000 1.0
C      1  0.5956270000000  0.4355520000000  0.5063380000000 1.0
C      1  0.6044830000000  0.4850240000000  0.5615950000000 1.0
C      1  0.5642700000000  0.4561210000000  0.5577680000000 1.0
C      1  0.4981450000000  0.4289700000000  0.4140660000000 1.0
C      1  0.5074330000000  0.5813780000000  0.5786980000000 1.0
C      1  0.3827970000000  0.4947520000000  0.4524170000000 1.0
C      1  0.5009730000000  0.5066380000000  0.5262900000000 1.0
C      1  0.4968330000000  0.3805060000000  0.4917640000000 1.0
C      1  0.4783500000000  0.5364190000000  0.4607020000000 1.0
C      1  0.4874040000000  0.5994930000000  0.5397150000000 1.0
C      1  0.4386820000000  0.5815080000000  0.5558360000000 1.0
C      1  0.5681550000000  0.4850650000000  0.5956490000000 1.0
C      1  0.5840970000000  0.5050150000000  0.5534020000000 1.0
C      1  0.4390920000000  0.4399480000000  0.4874670000000 1.0
C      1  0.4321010000000  0.4873330000000  0.4240520000000 1.0
C      1  0.5912860000000  0.5330140000000  0.5589910000000 1.0
C      1  0.5356230000000  0.5936400000000  0.5405900000000 1.0
C      1  0.5068440000000  0.4723930000000  0.4495380000000 1.0
C      1  0.4383100000000  0.6027830000000  0.5131690000000 1.0
C      1  0.4839640000000  0.5065080000000  0.4289970000000 1.0
C      1  0.5331960000000  0.5182580000000  0.6062870000000 1.0
C      1  0.5805230000000  0.4847690000000  0.4172800000000 1.0
C      1  0.5074020000000  0.4220700000000  0.4994510000000 1.0
C      1  0.4310540000000  0.5800350000000  0.5280330000000 1.0
C      1  0.5537430000000  0.5233120000000  0.4050400000000 1.0
C      1  0.5105460000000  0.4310760000000  0.5284100000000 1.0
C      1  0.4186870000000  0.5066770000000  0.4828760000000 1.0
C      1  0.4029480000000  0.5406970000000  0.5361410000000 1.0
C      1  0.5396250000000  0.4252730000000  0.4865440000000 1.0
C      1  0.5531760000000  0.5123200000000  0.5844510000000 1.0
C      1  0.5663950000000  0.5569980000000  0.4716260000000 1.0
C      1  0.4697250000000  0.4120500000000  0.4477660000000 1.0
C      1  0.5437100000000  0.4559130000000  0.4160540000000 1.0
C      1  0.5264660000000  0.5624680000000  0.5885710000000 1.0
C      1  0.5290750000000  0.4316020000000  0.4165540000000 1.0
C      1  0.4253270000000  0.5274380000000  0.5521580000000 1.0
C      1  0.5494590000000  0.5584500000000  0.5713460000000 1.0
C      1  0.5882440000000  0.5378520000000  0.4774700000000 1.0
C      1  0.4872310000000  0.5603880000000  0.4462330000000 1.0
C      1  0.4760640000000  0.4005590000000  0.4895210000000 1.0
C      1  0.5167760000000  0.4125950000000  0.5512160000000 1.0
C      1  0.4651680000000  0.6049730000000  0.5019660000000 1.0
C      1  0.5922030000000  0.4725810000000  0.4403480000000 1.0
C      1  0.4502530000000  0.4844770000000  0.4007590000000 1.0
C      1  0.6076280000000  0.5422720000000  0.4976340000000 1.0
C      1  0.5515160000000  0.4719620000000  0.4653020000000 1.0
C      1  0.4605250000000  0.4478770000000  0.5997880000000 1.0
C      1  0.5733670000000  0.4293470000000  0.5545410000000 1.0
C      1  0.4415820000000  0.5617080000000  0.4286260000000 1.0
C      1  0.5475920000000  0.3916870000000  0.5436090000000 1.0
C      1  0.4314590000000  0.4873130000000  0.5003190000000 1.0
C      1  0.4142300000000  0.4536110000000  0.5298190000000 1.0
C      1  0.4904400000000  0.5341140000000  0.4890430000000 1.0
C      1  0.5731300000000  0.5852210000000  0.4796130000000 1.0
C      1  0.5221580000000  0.5720480000000  0.4939560000000 1.0
C      1  0.4596880000000  0.5246580000000  0.5012350000000 1.0
C      1  0.5109760000000  0.4607890000000  0.5318950000000 1.0
C      1  0.5611060000000  0.4952960000000  0.3992720000000 1.0
C      1  0.5088020000000  0.4600400000000  0.4755940000000 1.0
C      1  0.4964000000000  0.4822950000000  0.3871210000000 1.0
C      1  0.4326230000000  0.5334580000000  0.4194400000000 1.0
C      1  0.5359870000000  0.5947660000000  0.5103640000000 1.0
C      1  0.5338630000000  0.4718210000000  0.5137330000000 1.0
C      1  0.4087740000000  0.5639420000000  0.5196080000000 1.0
C      1  0.5465410000000  0.5150890000000  0.5287750000000 1.0
C      1  0.5420590000000  0.4710860000000  0.6005710000000 1.0
END
