TITL C-950521-2237-242 -6.00627863343067e-07 125000 -905.276113185556 0 0 145 (C1) n - 1
REM
REM in /home/bkarasulu/work/CARBON/AIRSS/Generating-Clusters/EDIP-Nigel-Params/with-SteepDescent/Only-C1/SD-CG/HFTN-CG
REM
REM
REM
REM
REM
REM ./C.cell (11c1c37f851c82e70ff6c80c92926a4b)
REM
REM compiler GCC version 9.2.1 20190827 (Red Hat 9.2.1-1)
REM options -cpp -mtune=generic -march=x86-64 -g -O0 -fpre-include=/usr/include/finclude/math-vector-fortran.h
REM seed 1430803649 -1956652987 1523412726 317853558 -1855883160 1230824974 -395683576 -899488751 -1052923802 -957404183 -1766502021 1681896178 1304467676 -232949163 250624127 -1782052334 -1112241792 1980851913 1658201839 -1004883685 -668847972 -2091113688 1083421172 1644438975 -1516780664 2115955717 1420525376 157620425 800990149 -432051088 1560911226 1973420618 -673488097
REM
CELL 1.54180   50.00000   50.00000   50.00000   90.00000   90.00000   90.00000
LATT -1
SFAC C  
C      1  0.5943110000000  0.4627760000000  0.5091810000000 1.0
C      1  0.4921030000000  0.5592760000000  0.4189340000000 1.0
C      1  0.4974120000000  0.5302800000000  0.5982120000000 1.0
C      1  0.4125090000000  0.5041290000000  0.5620250000000 1.0
C      1  0.5949930000000  0.4452040000000  0.4858600000000 1.0
C      1  0.5317870000000  0.5497400000000  0.5663640000000 1.0
C      1  0.4216400000000  0.4557050000000  0.4638800000000 1.0
C      1  0.5540390000000  0.5023200000000  0.4849990000000 1.0
C      1  0.4139500000000  0.5122160000000  0.5120380000000 1.0
C      1  0.5393880000000  0.4526830000000  0.4241770000000 1.0
C      1  0.5881440000000  0.5342570000000  0.4762230000000 1.0
C      1  0.4559140000000  0.5170360000000  0.5400030000000 1.0
C      1  0.5086060000000  0.5552710000000  0.5860570000000 1.0
C      1  0.4629620000000  0.4980210000000  0.6061320000000 1.0
C      1  0.4174900000000  0.4833700000000  0.4577230000000 1.0
C      1  0.4777490000000  0.4995040000000  0.5527060000000 1.0
C      1  0.5212830000000  0.5537260000000  0.4777830000000 1.0
C      1  0.4875950000000  0.5731980000000  0.5735350000000 1.0
C      1  0.4522190000000  0.4358200000000  0.5691110000000 1.0
C      1  0.4174070000000  0.4442190000000  0.4898640000000 1.0
C      1  0.5463410000000  0.5427460000000  0.5127350000000 1.0
C      1  0.5539090000000  0.4943870000000  0.4340120000000 1.0
C      1  0.4322680000000  0.4734270000000  0.5349080000000 1.0
C      1  0.4304610000000  0.4888300000000  0.4325900000000 1.0
C      1  0.5690410000000  0.5247940000000  0.4989560000000 1.0
C      1  0.4624890000000  0.5612420000000  0.5642400000000 1.0
C      1  0.5619800000000  0.4464130000000  0.5436730000000 1.0
C      1  0.5443520000000  0.3994610000000  0.5070010000000 1.0
C      1  0.4927160000000  0.5505550000000  0.5035100000000 1.0
C      1  0.4416110000000  0.5148930000000  0.4272630000000 1.0
C      1  0.4845830000000  0.5833580000000  0.5046000000000 1.0
C      1  0.4579850000000  0.4928400000000  0.4996870000000 1.0
C      1  0.4443310000000  0.5693840000000  0.4873590000000 1.0
C      1  0.5592530000000  0.4231910000000  0.5061390000000 1.0
C      1  0.5820710000000  0.4663460000000  0.5367240000000 1.0
C      1  0.5145410000000  0.5330740000000  0.5478860000000 1.0
C      1  0.5337690000000  0.5299870000000  0.4050060000000 1.0
C      1  0.5055900000000  0.5085960000000  0.5619920000000 1.0
C      1  0.5471840000000  0.4460680000000  0.5687400000000 1.0
C      1  0.5417870000000  0.4860690000000  0.5081150000000 1.0
C      1  0.4676640000000  0.5118710000000  0.4130130000000 1.0
C      1  0.4885610000000  0.5230660000000  0.4436270000000 1.0
C      1  0.4421450000000  0.4439600000000  0.4459500000000 1.0
C      1  0.4932680000000  0.4591270000000  0.5933540000000 1.0
C      1  0.5772670000000  0.4232520000000  0.4833400000000 1.0
C      1  0.5746600000000  0.4573090000000  0.4553510000000 1.0
C      1  0.3962310000000  0.4994220000000  0.5350580000000 1.0
C      1  0.5970950000000  0.4882870000000  0.4965790000000 1.0
C      1  0.5032310000000  0.4853850000000  0.4618740000000 1.0
C      1  0.4637430000000  0.5899120000000  0.4847700000000 1.0
C      1  0.4701240000000  0.4563470000000  0.4542590000000 1.0
C      1  0.4912070000000  0.4499750000000  0.4113660000000 1.0
C      1  0.5185940000000  0.4621620000000  0.4036700000000 1.0
C      1  0.5851320000000  0.5637930000000  0.5146740000000 1.0
C      1  0.4997960000000  0.4708900000000  0.5144540000000 1.0
C      1  0.4507740000000  0.5385930000000  0.5776510000000 1.0
C      1  0.4766990000000  0.5932720000000  0.4581910000000 1.0
C      1  0.5061610000000  0.4903880000000  0.4104730000000 1.0
C      1  0.4706410000000  0.4913740000000  0.4512670000000 1.0
C      1  0.5250420000000  0.4855080000000  0.5545040000000 1.0
C      1  0.4516030000000  0.5741130000000  0.5396650000000 1.0
C      1  0.5263660000000  0.4063540000000  0.5491960000000 1.0
C      1  0.5252590000000  0.4265140000000  0.5684540000000 1.0
C      1  0.5097710000000  0.5171650000000  0.3955650000000 1.0
C      1  0.4709210000000  0.4674680000000  0.5054550000000 1.0
C      1  0.4024650000000  0.4694320000000  0.5296790000000 1.0
C      1  0.4148040000000  0.5426330000000  0.5122470000000 1.0
C      1  0.4684790000000  0.5238150000000  0.5967340000000 1.0
C      1  0.4593640000000  0.5357810000000  0.4799240000000 1.0
C      1  0.5792380000000  0.5597970000000  0.4658680000000 1.0
C      1  0.5127320000000  0.4583890000000  0.4716710000000 1.0
C      1  0.4463460000000  0.4165270000000  0.4595940000000 1.0
C      1  0.4052900000000  0.5494980000000  0.4861750000000 1.0
C      1  0.5174030000000  0.5061890000000  0.5992960000000 1.0
C      1  0.5443640000000  0.4510580000000  0.5098230000000 1.0
C      1  0.5570350000000  0.5142550000000  0.4111790000000 1.0
C      1  0.4859450000000  0.5342320000000  0.4018660000000 1.0
C      1  0.4400960000000  0.4994830000000  0.5212380000000 1.0
C      1  0.5880350000000  0.5090860000000  0.5161460000000 1.0
C      1  0.4274790000000  0.5290380000000  0.5630440000000 1.0
C      1  0.4355460000000  0.4205430000000  0.4973610000000 1.0
C      1  0.5474870000000  0.4945240000000  0.5356070000000 1.0
C      1  0.4985140000000  0.4362330000000  0.5748560000000 1.0
C      1  0.5462870000000  0.5095350000000  0.5917270000000 1.0
C      1  0.5547370000000  0.5316290000000  0.5755180000000 1.0
C      1  0.3980290000000  0.4561200000000  0.5059010000000 1.0
C      1  0.4811270000000  0.5449740000000  0.4619060000000 1.0
C      1  0.5135380000000  0.4987470000000  0.5075860000000 1.0
C      1  0.5217150000000  0.4929660000000  0.4364990000000 1.0
C      1  0.5826290000000  0.5479050000000  0.5371380000000 1.0
C      1  0.4668370000000  0.4715000000000  0.5978780000000 1.0
C      1  0.4332660000000  0.4818080000000  0.5627670000000 1.0
C      1  0.5177430000000  0.5320120000000  0.5184830000000 1.0
C      1  0.5098610000000  0.5063380000000  0.4805000000000 1.0
C      1  0.4744320000000  0.5912460000000  0.5314380000000 1.0
C      1  0.5390800000000  0.4737570000000  0.5793100000000 1.0
C      1  0.4651010000000  0.5380680000000  0.5174510000000 1.0
C      1  0.4967800000000  0.5900180000000  0.5506880000000 1.0
C      1  0.5428990000000  0.5745330000000  0.5558030000000 1.0
C      1  0.4761950000000  0.4240300000000  0.5603900000000 1.0
C      1  0.4906250000000  0.4387330000000  0.4391350000000 1.0
C      1  0.4761510000000  0.4163650000000  0.5311490000000 1.0
C      1  0.4912610000000  0.4065830000000  0.4827580000000 1.0
C      1  0.4634460000000  0.4209540000000  0.4829700000000 1.0
C      1  0.4519310000000  0.5051080000000  0.4741790000000 1.0
C      1  0.5298590000000  0.5898670000000  0.5109460000000 1.0
C      1  0.4437530000000  0.5621860000000  0.4375080000000 1.0
C      1  0.4415360000000  0.5573680000000  0.5147960000000 1.0
C      1  0.5605530000000  0.5529680000000  0.4442150000000 1.0
C      1  0.5788570000000  0.4886430000000  0.4709300000000 1.0
C      1  0.5736770000000  0.5286010000000  0.4320080000000 1.0
C      1  0.5650730000000  0.4672790000000  0.4278180000000 1.0
C      1  0.4133620000000  0.5057560000000  0.4773780000000 1.0
C      1  0.5005050000000  0.4179140000000  0.5098890000000 1.0
C      1  0.5712320000000  0.5727650000000  0.4911190000000 1.0
C      1  0.4708750000000  0.4490440000000  0.4823420000000 1.0
C      1  0.5216750000000  0.4012720000000  0.5223260000000 1.0
C      1  0.5146120000000  0.4484370000000  0.5008880000000 1.0
C      1  0.5069370000000  0.6004210000000  0.4957780000000 1.0
C      1  0.5309220000000  0.4519290000000  0.4516530000000 1.0
C      1  0.4452420000000  0.4609160000000  0.5813080000000 1.0
C      1  0.5286020000000  0.5258500000000  0.4683470000000 1.0
C      1  0.4752380000000  0.4678310000000  0.5545850000000 1.0
C      1  0.4564590000000  0.4562200000000  0.5295940000000 1.0
C      1  0.5193660000000  0.5702550000000  0.4162830000000 1.0
C      1  0.5425420000000  0.5669960000000  0.4963250000000 1.0
C      1  0.5044730000000  0.4659490000000  0.5428250000000 1.0
C      1  0.5762020000000  0.4975660000000  0.5413740000000 1.0
C      1  0.5166050000000  0.4743960000000  0.6011410000000 1.0
C      1  0.5879750000000  0.5132360000000  0.4544870000000 1.0
C      1  0.5229900000000  0.5837970000000  0.5388240000000 1.0
C      1  0.5190180000000  0.5228150000000  0.4394740000000 1.0
C      1  0.4721610000000  0.5665480000000  0.4429350000000 1.0
C      1  0.5766060000000  0.5265860000000  0.5554810000000 1.0
C      1  0.4119430000000  0.5323660000000  0.4645670000000 1.0
C      1  0.5622750000000  0.4216770000000  0.4586410000000 1.0
C      1  0.5364100000000  0.4088710000000  0.4586370000000 1.0
C      1  0.4707140000000  0.4731600000000  0.4110240000000 1.0
C      1  0.5077930000000  0.4145450000000  0.4587540000000 1.0
C      1  0.4432480000000  0.4653100000000  0.4203820000000 1.0
C      1  0.5441680000000  0.5732270000000  0.4313100000000 1.0
C      1  0.4488700000000  0.4265520000000  0.5247110000000 1.0
C      1  0.5058920000000  0.5985930000000  0.4652450000000 1.0
C      1  0.4331830000000  0.5370230000000  0.4442860000000 1.0
C      1  0.5145850000000  0.5719090000000  0.4546830000000 1.0
END
