TITL C-951344-124-394 -3.32350816766744e-07 125000 -342.182823355345 0 0 56 (C1) n - 1
REM
REM in /home/bkarasulu/work/CARBON/AIRSS/Generating-Clusters/EDIP-Nigel-Params/with-SteepDescent/Only-C1/SD-CG/HFTN-CG
REM
REM
REM
REM
REM
REM ./C.cell (11c1c37f851c82e70ff6c80c92926a4b)
REM
REM compiler GCC version 9.2.1 20190827 (Red Hat 9.2.1-1)
REM options -cpp -mtune=generic -march=x86-64 -g -O0 -fpre-include=/usr/include/finclude/math-vector-fortran.h
REM seed 651101446 -1319686172 1952021910 -1041671227 1855195578 -890508912 -1235535792 -897062256 -1620381775 998661439 -2029065926 -1334230369 1705397876 -242755302 1940982198 1668306272 1102387365 -120016683 2125739661 490500713 -1494724541 -1370104255 -767396020 986612421 -1580889871 -1826013360 -609572075 784201712 101735412 -1380438809 -1737934208 780005106 1248808108
REM
CELL 1.54180   50.00000   50.00000   50.00000   90.00000   90.00000   90.00000
LATT -1
SFAC C  
C      1  0.5396900000000  0.5282830000000  0.5573750000000 1.0
C      1  0.4385040000000  0.4758270000000  0.4891160000000 1.0
C      1  0.4590510000000  0.4901650000000  0.5295750000000 1.0
C      1  0.5578560000000  0.4844560000000  0.5193840000000 1.0
C      1  0.5082050000000  0.4482820000000  0.5241140000000 1.0
C      1  0.5013010000000  0.5089900000000  0.4787850000000 1.0
C      1  0.4927920000000  0.5199030000000  0.4341540000000 1.0
C      1  0.4624290000000  0.5129710000000  0.5110130000000 1.0
C      1  0.4853400000000  0.4942800000000  0.4274470000000 1.0
C      1  0.4406270000000  0.4604330000000  0.4658480000000 1.0
C      1  0.5001890000000  0.4238910000000  0.4696220000000 1.0
C      1  0.4841940000000  0.5341850000000  0.5775430000000 1.0
C      1  0.5259290000000  0.4905850000000  0.4795040000000 1.0
C      1  0.4645280000000  0.4519540000000  0.4536260000000 1.0
C      1  0.4893850000000  0.5540710000000  0.5573590000000 1.0
C      1  0.5213730000000  0.5109460000000  0.5700900000000 1.0
C      1  0.4802830000000  0.4414090000000  0.5212140000000 1.0
C      1  0.4485000000000  0.5572700000000  0.4998510000000 1.0
C      1  0.4745620000000  0.5681510000000  0.5107270000000 1.0
C      1  0.4753560000000  0.4926600000000  0.5538630000000 1.0
C      1  0.4710860000000  0.5689600000000  0.5407570000000 1.0
C      1  0.5051810000000  0.5551070000000  0.4727750000000 1.0
C      1  0.4451180000000  0.5362370000000  0.5201650000000 1.0
C      1  0.4398740000000  0.5210160000000  0.4678750000000 1.0
C      1  0.5055890000000  0.4945210000000  0.5494330000000 1.0
C      1  0.5051270000000  0.5294780000000  0.4579360000000 1.0
C      1  0.5284350000000  0.5708980000000  0.4731400000000 1.0
C      1  0.5426360000000  0.4726750000000  0.4389650000000 1.0
C      1  0.5288760000000  0.4315010000000  0.5145980000000 1.0
C      1  0.5715130000000  0.4804440000000  0.4954590000000 1.0
C      1  0.5067640000000  0.5237350000000  0.5904120000000 1.0
C      1  0.4734680000000  0.4302300000000  0.4718450000000 1.0
C      1  0.4644200000000  0.4325310000000  0.4993120000000 1.0
C      1  0.5300660000000  0.4838350000000  0.5111180000000 1.0
C      1  0.5183870000000  0.4677320000000  0.4567940000000 1.0
C      1  0.5634140000000  0.4586890000000  0.4526620000000 1.0
C      1  0.4984420000000  0.5503110000000  0.5021590000000 1.0
C      1  0.5628640000000  0.4562640000000  0.4812520000000 1.0
C      1  0.4475960000000  0.5460800000000  0.4742130000000 1.0
C      1  0.5239740000000  0.5555760000000  0.5176130000000 1.0
C      1  0.5146290000000  0.5084550000000  0.5238470000000 1.0
C      1  0.4504280000000  0.4652860000000  0.5148800000000 1.0
C      1  0.5335650000000  0.5305420000000  0.5301580000000 1.0
C      1  0.5374730000000  0.4447660000000  0.4910440000000 1.0
C      1  0.4526380000000  0.5474290000000  0.5457910000000 1.0
C      1  0.4790910000000  0.4929130000000  0.4714570000000 1.0
C      1  0.4667220000000  0.5135670000000  0.5704840000000 1.0
C      1  0.4931240000000  0.5204030000000  0.5055690000000 1.0
C      1  0.5392210000000  0.5688650000000  0.4980810000000 1.0
C      1  0.5488230000000  0.5002310000000  0.4391450000000 1.0
C      1  0.5491710000000  0.5061670000000  0.4669870000000 1.0
C      1  0.4861570000000  0.4748240000000  0.4493650000000 1.0
C      1  0.4533690000000  0.5011470000000  0.4839830000000 1.0
C      1  0.5744170000000  0.5032010000000  0.4791950000000 1.0
C      1  0.5220570000000  0.4402820000000  0.4675270000000 1.0
C      1  0.5161890000000  0.4673910000000  0.5437940000000 1.0
END
