TITL C-950531-5884-674 -1.60799054195195e-06 125000 -714.275992655129 0 0 117 (C1) n - 1
REM
REM in /home/bkarasulu/work/CARBON/AIRSS/Generating-Clusters/EDIP-Nigel-Params/with-SteepDescent/Only-C1/SD-CG/HFTN-CG
REM
REM
REM
REM
REM
REM ./C.cell (11c1c37f851c82e70ff6c80c92926a4b)
REM
REM compiler GCC version 9.2.1 20190827 (Red Hat 9.2.1-1)
REM options -cpp -mtune=generic -march=x86-64 -g -O0 -fpre-include=/usr/include/finclude/math-vector-fortran.h
REM seed -1192459724 2013200982 -1503347740 574837081 1180009813 1088459967 -728484938 1593687417 1268440281 -2040126672 168936508 1507299799 -1479700548 1861766236 -1893632461 1170377628 -2037414917 -773353935 -914970091 -1085242972 -285283948 482406763 -1844763013 1346458516 -645350623 -1485120267 530481676 118748629 -484732149 953514165 562821026 1278463929 1650107895
REM
CELL 1.54180   50.00000   50.00000   50.00000   90.00000   90.00000   90.00000
LATT -1
SFAC C  
C      1  0.4113080000000  0.4858350000000  0.5181500000000 1.0
C      1  0.5011160000000  0.4501580000000  0.4202680000000 1.0
C      1  0.4497030000000  0.4515610000000  0.4994940000000 1.0
C      1  0.5151020000000  0.6014240000000  0.4989640000000 1.0
C      1  0.4931510000000  0.5081210000000  0.5809390000000 1.0
C      1  0.5667170000000  0.4358930000000  0.4963460000000 1.0
C      1  0.4941180000000  0.4927630000000  0.4578590000000 1.0
C      1  0.4570220000000  0.5540110000000  0.5559160000000 1.0
C      1  0.5372080000000  0.5710270000000  0.4323490000000 1.0
C      1  0.4517650000000  0.5322950000000  0.4270050000000 1.0
C      1  0.4987440000000  0.5143080000000  0.4822080000000 1.0
C      1  0.5699270000000  0.5555690000000  0.4730660000000 1.0
C      1  0.5338680000000  0.5807110000000  0.5055550000000 1.0
C      1  0.5614140000000  0.5158580000000  0.4336270000000 1.0
C      1  0.4580960000000  0.5588920000000  0.4683650000000 1.0
C      1  0.4933430000000  0.4589380000000  0.4980390000000 1.0
C      1  0.5669900000000  0.5344410000000  0.4913000000000 1.0
C      1  0.4413280000000  0.4944790000000  0.5141280000000 1.0
C      1  0.4865010000000  0.4103660000000  0.5610000000000 1.0
C      1  0.4064210000000  0.5302580000000  0.4993550000000 1.0
C      1  0.5268820000000  0.5421610000000  0.4567630000000 1.0
C      1  0.5630500000000  0.4683170000000  0.4288650000000 1.0
C      1  0.5407760000000  0.5141290000000  0.4110080000000 1.0
C      1  0.4742590000000  0.4948920000000  0.4332830000000 1.0
C      1  0.4721570000000  0.5970340000000  0.5090020000000 1.0
C      1  0.4464260000000  0.5057270000000  0.4433820000000 1.0
C      1  0.4925420000000  0.4992490000000  0.5525560000000 1.0
C      1  0.5553560000000  0.4376750000000  0.5479250000000 1.0
C      1  0.5202880000000  0.4536440000000  0.4904330000000 1.0
C      1  0.4934830000000  0.5187750000000  0.4017120000000 1.0
C      1  0.5611330000000  0.4477010000000  0.4483900000000 1.0
C      1  0.5772630000000  0.5359630000000  0.5192150000000 1.0
C      1  0.5472790000000  0.5639420000000  0.4588470000000 1.0
C      1  0.4942350000000  0.5389060000000  0.5824040000000 1.0
C      1  0.4380260000000  0.4444280000000  0.5564880000000 1.0
C      1  0.4708650000000  0.4214810000000  0.4442700000000 1.0
C      1  0.4570190000000  0.5323170000000  0.4768080000000 1.0
C      1  0.5403090000000  0.5145240000000  0.4554690000000 1.0
C      1  0.4425850000000  0.5305880000000  0.5660220000000 1.0
C      1  0.5162370000000  0.4700410000000  0.5819270000000 1.0
C      1  0.4454510000000  0.4220930000000  0.5410600000000 1.0
C      1  0.4871860000000  0.5699720000000  0.4328410000000 1.0
C      1  0.4834030000000  0.4648770000000  0.4685030000000 1.0
C      1  0.5213760000000  0.4983290000000  0.5908210000000 1.0
C      1  0.4807030000000  0.4472360000000  0.5706700000000 1.0
C      1  0.4873570000000  0.5683120000000  0.4712170000000 1.0
C      1  0.5090910000000  0.4733100000000  0.5495270000000 1.0
C      1  0.4370190000000  0.4940490000000  0.4714720000000 1.0
C      1  0.5699230000000  0.5569950000000  0.5383520000000 1.0
C      1  0.5781300000000  0.4892190000000  0.5128820000000 1.0
C      1  0.5312420000000  0.4492530000000  0.4155490000000 1.0
C      1  0.5374390000000  0.4336160000000  0.4401550000000 1.0
C      1  0.4456920000000  0.4798140000000  0.5739000000000 1.0
C      1  0.4494740000000  0.4657590000000  0.4727560000000 1.0
C      1  0.4369100000000  0.5715850000000  0.4856680000000 1.0
C      1  0.4076210000000  0.5045000000000  0.5414840000000 1.0
C      1  0.4676190000000  0.5274660000000  0.4047570000000 1.0
C      1  0.5459850000000  0.5524220000000  0.5548510000000 1.0
C      1  0.4114770000000  0.5015850000000  0.4898230000000 1.0
C      1  0.5240810000000  0.4231440000000  0.4951900000000 1.0
C      1  0.4887240000000  0.4641890000000  0.5934710000000 1.0
C      1  0.4592910000000  0.5590800000000  0.4384730000000 1.0
C      1  0.5355020000000  0.4791180000000  0.4965550000000 1.0
C      1  0.5446040000000  0.5127070000000  0.5769660000000 1.0
C      1  0.5225670000000  0.5237560000000  0.5240560000000 1.0
C      1  0.5552950000000  0.5080950000000  0.4808640000000 1.0
C      1  0.4458440000000  0.5219040000000  0.5281340000000 1.0
C      1  0.5498920000000  0.5876990000000  0.5286780000000 1.0
C      1  0.5175430000000  0.5029930000000  0.5027390000000 1.0
C      1  0.4946700000000  0.4408610000000  0.4479200000000 1.0
C      1  0.5126460000000  0.5606200000000  0.4202850000000 1.0
C      1  0.5181560000000  0.5481370000000  0.5934550000000 1.0
C      1  0.4725780000000  0.4652280000000  0.4197100000000 1.0
C      1  0.5203920000000  0.5528190000000  0.5077180000000 1.0
C      1  0.5050550000000  0.5720130000000  0.5385120000000 1.0
C      1  0.4919840000000  0.5972380000000  0.5300890000000 1.0
C      1  0.5253550000000  0.4872340000000  0.4177020000000 1.0
C      1  0.5425530000000  0.5413740000000  0.5811960000000 1.0
C      1  0.5773790000000  0.4860410000000  0.4740420000000 1.0
C      1  0.4631180000000  0.4270020000000  0.4948830000000 1.0
C      1  0.5725690000000  0.4389680000000  0.5243670000000 1.0
C      1  0.4578470000000  0.4702170000000  0.5215440000000 1.0
C      1  0.5216490000000  0.4918670000000  0.4472880000000 1.0
C      1  0.4702820000000  0.4883610000000  0.5924600000000 1.0
C      1  0.5154880000000  0.4169020000000  0.5222690000000 1.0
C      1  0.5107480000000  0.4231410000000  0.5680980000000 1.0
C      1  0.4877140000000  0.5495140000000  0.5549460000000 1.0
C      1  0.4756840000000  0.4113320000000  0.4744050000000 1.0
C      1  0.5733760000000  0.5102110000000  0.5321450000000 1.0
C      1  0.5066760000000  0.4084280000000  0.4752530000000 1.0
C      1  0.4342880000000  0.4504000000000  0.4536610000000 1.0
C      1  0.4723950000000  0.5275620000000  0.5186640000000 1.0
C      1  0.4432900000000  0.5700330000000  0.5370470000000 1.0
C      1  0.4729440000000  0.5171800000000  0.4930800000000 1.0
C      1  0.5459980000000  0.5087700000000  0.5458740000000 1.0
C      1  0.5764490000000  0.4907540000000  0.4415060000000 1.0
C      1  0.5555450000000  0.4620000000000  0.5633630000000 1.0
C      1  0.5203840000000  0.4116050000000  0.4497150000000 1.0
C      1  0.5281600000000  0.4263230000000  0.5459060000000 1.0
C      1  0.5073390000000  0.5452290000000  0.4798230000000 1.0
C      1  0.5404040000000  0.4791680000000  0.5442240000000 1.0
C      1  0.4529510000000  0.4440060000000  0.4341680000000 1.0
C      1  0.5155240000000  0.5316110000000  0.4151930000000 1.0
C      1  0.5674380000000  0.4568190000000  0.4752570000000 1.0
C      1  0.4296200000000  0.5040990000000  0.5634800000000 1.0
C      1  0.4934370000000  0.4475160000000  0.5289040000000 1.0
C      1  0.4082870000000  0.5305810000000  0.5279470000000 1.0
C      1  0.5321740000000  0.5771090000000  0.5498150000000 1.0
C      1  0.4153360000000  0.5537370000000  0.4873210000000 1.0
C      1  0.4502220000000  0.5782770000000  0.5111020000000 1.0
C      1  0.4980040000000  0.4904670000000  0.4034620000000 1.0
C      1  0.4899060000000  0.5950330000000  0.4857000000000 1.0
C      1  0.4738580000000  0.4203450000000  0.5369040000000 1.0
C      1  0.4591310000000  0.4624930000000  0.5531600000000 1.0
C      1  0.5513330000000  0.4133820000000  0.4908630000000 1.0
C      1  0.4945880000000  0.5241460000000  0.5374250000000 1.0
C      1  0.5546240000000  0.4723670000000  0.5180330000000 1.0
END
