TITL C-950526-5686-317 -1.30014387549812e-06 125000 -361.596376472297 0 0 60 (C1) n - 1
REM
REM in /home/bkarasulu/work/CARBON/AIRSS/Generating-Clusters/EDIP-Nigel-Params/with-SteepDescent/Only-C1/SD-CG/HFTN-CG
REM
REM
REM
REM
REM
REM ./C.cell (11c1c37f851c82e70ff6c80c92926a4b)
REM
REM compiler GCC version 9.2.1 20190827 (Red Hat 9.2.1-1)
REM options -cpp -mtune=generic -march=x86-64 -g -O0 -fpre-include=/usr/include/finclude/math-vector-fortran.h
REM seed -1697637253 -419866491 638363083 268266622 1119405221 900819313 -2041148399 -2000861959 2049923574 -1650855201 -457221137 -488317218 1597284021 1764881773 401238653 1049666251 498002345 859942851 1415722925 -1246306791 -719648010 363628956 -928438399 -177520843 -600838894 -166876837 -1616306273 727676998 123597805 14066011 -828127169 -668379823 -1787063404
REM
CELL 1.54180   50.00000   50.00000   50.00000   90.00000   90.00000   90.00000
LATT -1
SFAC C  
C      1  0.4453410000000  0.5542640000000  0.5651730000000 1.0
C      1  0.5762660000000  0.4812370000000  0.4674400000000 1.0
C      1  0.5246960000000  0.5681300000000  0.5255550000000 1.0
C      1  0.4859620000000  0.4946780000000  0.4399340000000 1.0
C      1  0.5175680000000  0.4878130000000  0.5071400000000 1.0
C      1  0.5410300000000  0.5201480000000  0.4477620000000 1.0
C      1  0.4773540000000  0.5616600000000  0.5462700000000 1.0
C      1  0.4749540000000  0.4658900000000  0.4899010000000 1.0
C      1  0.4300660000000  0.5391250000000  0.5479410000000 1.0
C      1  0.5314640000000  0.5579350000000  0.4783720000000 1.0
C      1  0.5337590000000  0.4915180000000  0.4458760000000 1.0
C      1  0.4744730000000  0.5521080000000  0.4727510000000 1.0
C      1  0.5481170000000  0.4451820000000  0.4569390000000 1.0
C      1  0.4485160000000  0.4865360000000  0.5307060000000 1.0
C      1  0.5669770000000  0.4618640000000  0.5292130000000 1.0
C      1  0.4694170000000  0.4491310000000  0.4426690000000 1.0
C      1  0.5284690000000  0.4964050000000  0.5337810000000 1.0
C      1  0.5145210000000  0.5686280000000  0.4992720000000 1.0
C      1  0.4343640000000  0.5244550000000  0.4643680000000 1.0
C      1  0.4459710000000  0.4588240000000  0.5247130000000 1.0
C      1  0.4781530000000  0.4937960000000  0.5328000000000 1.0
C      1  0.4426770000000  0.5046990000000  0.4828570000000 1.0
C      1  0.5575160000000  0.5343490000000  0.5282830000000 1.0
C      1  0.4921010000000  0.5218440000000  0.5183600000000 1.0
C      1  0.4584100000000  0.4446570000000  0.5036880000000 1.0
C      1  0.4888610000000  0.4174280000000  0.4805890000000 1.0
C      1  0.5074360000000  0.4884590000000  0.4605230000000 1.0
C      1  0.4930820000000  0.4872560000000  0.5593300000000 1.0
C      1  0.5573520000000  0.5048770000000  0.5353610000000 1.0
C      1  0.4922460000000  0.5397530000000  0.4530160000000 1.0
C      1  0.5136510000000  0.5220510000000  0.5410930000000 1.0
C      1  0.5330060000000  0.5458810000000  0.5405720000000 1.0
C      1  0.4851910000000  0.5644460000000  0.4972760000000 1.0
C      1  0.4904740000000  0.4367360000000  0.4569910000000 1.0
C      1  0.5002780000000  0.4597450000000  0.4730490000000 1.0
C      1  0.5447410000000  0.4293040000000  0.4790140000000 1.0
C      1  0.5019460000000  0.5133070000000  0.5663630000000 1.0
C      1  0.4813610000000  0.5218190000000  0.4347800000000 1.0
C      1  0.4295000000000  0.5328880000000  0.5208490000000 1.0
C      1  0.4804650000000  0.4256860000000  0.5080700000000 1.0
C      1  0.5361530000000  0.4287390000000  0.5172610000000 1.0
C      1  0.5212190000000  0.5403100000000  0.4576480000000 1.0
C      1  0.4754840000000  0.5481830000000  0.5204600000000 1.0
C      1  0.4452870000000  0.5481850000000  0.4751970000000 1.0
C      1  0.5430540000000  0.4488930000000  0.5367540000000 1.0
C      1  0.5446680000000  0.5147520000000  0.4847210000000 1.0
C      1  0.4626880000000  0.4768800000000  0.4449060000000 1.0
C      1  0.4995710000000  0.4493080000000  0.5286570000000 1.0
C      1  0.4358990000000  0.5059200000000  0.5114860000000 1.0
C      1  0.5558410000000  0.5382740000000  0.4991510000000 1.0
C      1  0.5178290000000  0.4668010000000  0.5495490000000 1.0
C      1  0.4918920000000  0.4748410000000  0.5140740000000 1.0
C      1  0.4356570000000  0.5524930000000  0.5014780000000 1.0
C      1  0.5553750000000  0.4714670000000  0.4510050000000 1.0
C      1  0.5209880000000  0.4342280000000  0.4933500000000 1.0
C      1  0.5720860000000  0.4868740000000  0.5174230000000 1.0
C      1  0.5126650000000  0.5089890000000  0.4879060000000 1.0
C      1  0.5624540000000  0.4910600000000  0.4899820000000 1.0
C      1  0.4575140000000  0.5778580000000  0.5571040000000 1.0
C      1  0.4559460000000  0.4814320000000  0.4732480000000 1.0
END
