TITL C-951338-5626-230 -1.35281368690623e-06 125000 -1132.18256655203 0 0 181 (C1) n - 1
REM
REM in /home/bkarasulu/work/CARBON/AIRSS/Generating-Clusters/EDIP-Nigel-Params/with-SteepDescent/Only-C1/SD-CG/HFTN-CG
REM
REM
REM
REM
REM
REM ./C.cell (11c1c37f851c82e70ff6c80c92926a4b)
REM
REM compiler GCC version 9.2.1 20190827 (Red Hat 9.2.1-1)
REM options -cpp -mtune=generic -march=x86-64 -g -O0 -fpre-include=/usr/include/finclude/math-vector-fortran.h
REM seed -1577879930 -1237273188 -405741683 2071020417 -2036746158 -1997020311 -1992248448 -1686824675 405862471 -896978302 1634005155 -728968622 -297012087 1320799624 -1553020031 -1964180539 1534706513 -1859151532 533090523 207747093 328377493 -1442602495 -1844679298 2085693389 833465044 1332250516 -1254620936 -689084764 1763020936 -1933770688 -1744051403 1980652340 410511549
REM
CELL 1.54180   50.00000   50.00000   50.00000   90.00000   90.00000   90.00000
LATT -1
SFAC C  
C      1  0.5196470000000  0.4074930000000  0.4584030000000 1.0
C      1  0.3737790000000  0.4914160000000  0.4901070000000 1.0
C      1  0.5608610000000  0.5322600000000  0.4771290000000 1.0
C      1  0.5884420000000  0.4415180000000  0.5520940000000 1.0
C      1  0.4820780000000  0.5169990000000  0.4545200000000 1.0
C      1  0.5670850000000  0.5428630000000  0.4187120000000 1.0
C      1  0.4149850000000  0.4546310000000  0.5570600000000 1.0
C      1  0.5045780000000  0.5236100000000  0.5396130000000 1.0
C      1  0.4815760000000  0.5937640000000  0.4664210000000 1.0
C      1  0.4383060000000  0.4248510000000  0.4394620000000 1.0
C      1  0.4501450000000  0.5475870000000  0.4687090000000 1.0
C      1  0.4695150000000  0.4953240000000  0.5245830000000 1.0
C      1  0.5464450000000  0.5024110000000  0.5982150000000 1.0
C      1  0.4724780000000  0.4973090000000  0.4338120000000 1.0
C      1  0.5875080000000  0.5426400000000  0.4655630000000 1.0
C      1  0.5317220000000  0.5824110000000  0.5527860000000 1.0
C      1  0.4683850000000  0.4448280000000  0.5073830000000 1.0
C      1  0.5419190000000  0.5762520000000  0.4431570000000 1.0
C      1  0.5534430000000  0.6059690000000  0.5144770000000 1.0
C      1  0.4420030000000  0.4904330000000  0.4335140000000 1.0
C      1  0.4866580000000  0.4627660000000  0.5567230000000 1.0
C      1  0.5718810000000  0.5006320000000  0.5839740000000 1.0
C      1  0.4122780000000  0.5014590000000  0.5388930000000 1.0
C      1  0.5488160000000  0.4108810000000  0.4640250000000 1.0
C      1  0.5564700000000  0.4996010000000  0.5360430000000 1.0
C      1  0.5025920000000  0.5486010000000  0.4152730000000 1.0
C      1  0.5924460000000  0.4672780000000  0.3936400000000 1.0
C      1  0.4676170000000  0.4575050000000  0.5964310000000 1.0
C      1  0.5775040000000  0.4910710000000  0.3879500000000 1.0
C      1  0.5389560000000  0.4639660000000  0.4487640000000 1.0
C      1  0.4698480000000  0.4842570000000  0.5517670000000 1.0
C      1  0.5485250000000  0.4136990000000  0.5153480000000 1.0
C      1  0.5412800000000  0.4420680000000  0.4286610000000 1.0
C      1  0.4915880000000  0.4742530000000  0.4341000000000 1.0
C      1  0.5864260000000  0.5384750000000  0.5463050000000 1.0
C      1  0.4961200000000  0.5682320000000  0.4582540000000 1.0
C      1  0.5066230000000  0.5003770000000  0.4017730000000 1.0
C      1  0.4711400000000  0.4131580000000  0.5116280000000 1.0
C      1  0.4432440000000  0.4717540000000  0.5975450000000 1.0
C      1  0.4393300000000  0.5928830000000  0.5181300000000 1.0
C      1  0.4116510000000  0.4816230000000  0.5620300000000 1.0
C      1  0.5821070000000  0.5714600000000  0.4781830000000 1.0
C      1  0.5221800000000  0.5246630000000  0.4154360000000 1.0
C      1  0.4437290000000  0.5197090000000  0.4764840000000 1.0
C      1  0.5182700000000  0.4492450000000  0.3988420000000 1.0
C      1  0.5093030000000  0.5067800000000  0.4638270000000 1.0
C      1  0.5372920000000  0.5322910000000  0.5590800000000 1.0
C      1  0.4927750000000  0.5989780000000  0.5394220000000 1.0
C      1  0.4023150000000  0.5622490000000  0.5588820000000 1.0
C      1  0.3854730000000  0.5170530000000  0.5326910000000 1.0
C      1  0.5845950000000  0.4554370000000  0.5245750000000 1.0
C      1  0.4322550000000  0.4372210000000  0.4668810000000 1.0
C      1  0.4668220000000  0.4034530000000  0.5393220000000 1.0
C      1  0.5855880000000  0.4741560000000  0.5859500000000 1.0
C      1  0.5284450000000  0.5194210000000  0.4448390000000 1.0
C      1  0.4962790000000  0.5025500000000  0.5874250000000 1.0
C      1  0.6041210000000  0.4957720000000  0.5490920000000 1.0
C      1  0.5029180000000  0.5275260000000  0.6035460000000 1.0
C      1  0.5540270000000  0.5823100000000  0.4709290000000 1.0
C      1  0.4929640000000  0.5983860000000  0.5101270000000 1.0
C      1  0.4772810000000  0.5061600000000  0.4055040000000 1.0
C      1  0.5200530000000  0.4586600000000  0.5857880000000 1.0
C      1  0.5367690000000  0.4784200000000  0.5692810000000 1.0
C      1  0.4600980000000  0.4842050000000  0.3906940000000 1.0
C      1  0.5425960000000  0.5140160000000  0.5131990000000 1.0
C      1  0.5144370000000  0.6060370000000  0.4937450000000 1.0
C      1  0.4535090000000  0.4434550000000  0.4210760000000 1.0
C      1  0.4695390000000  0.5918890000000  0.4937350000000 1.0
C      1  0.5198200000000  0.5573570000000  0.5626420000000 1.0
C      1  0.4502920000000  0.4796730000000  0.5091680000000 1.0
C      1  0.5060340000000  0.4161350000000  0.5612140000000 1.0
C      1  0.4098400000000  0.4630220000000  0.5028100000000 1.0
C      1  0.5370160000000  0.4165430000000  0.5652200000000 1.0
C      1  0.3770360000000  0.5162740000000  0.5031800000000 1.0
C      1  0.6042460000000  0.4975400000000  0.4630220000000 1.0
C      1  0.5390090000000  0.5419280000000  0.4592810000000 1.0
C      1  0.4967230000000  0.4610430000000  0.5044390000000 1.0
C      1  0.5578200000000  0.5422200000000  0.5795170000000 1.0
C      1  0.5776920000000  0.5817260000000  0.5317800000000 1.0
C      1  0.4743380000000  0.5472360000000  0.4497800000000 1.0
C      1  0.4301580000000  0.5663800000000  0.5613330000000 1.0
C      1  0.5590300000000  0.5118530000000  0.3858040000000 1.0
C      1  0.4594330000000  0.4485620000000  0.4775080000000 1.0
C      1  0.4954070000000  0.4725840000000  0.5988730000000 1.0
C      1  0.4325470000000  0.5243600000000  0.5477220000000 1.0
C      1  0.5481030000000  0.5313570000000  0.4019170000000 1.0
C      1  0.4678700000000  0.3954950000000  0.4685980000000 1.0
C      1  0.5986970000000  0.4719700000000  0.4795430000000 1.0
C      1  0.6110450000000  0.4956340000000  0.5202910000000 1.0
C      1  0.5026210000000  0.5364330000000  0.5115170000000 1.0
C      1  0.4786580000000  0.5290910000000  0.5520890000000 1.0
C      1  0.5398590000000  0.4572510000000  0.5391550000000 1.0
C      1  0.4959490000000  0.4897780000000  0.5121560000000 1.0
C      1  0.5436010000000  0.4380250000000  0.5849910000000 1.0
C      1  0.4012570000000  0.5443550000000  0.5360190000000 1.0
C      1  0.4666280000000  0.4297230000000  0.5833840000000 1.0
C      1  0.5150110000000  0.4463760000000  0.5234390000000 1.0
C      1  0.5522100000000  0.4541100000000  0.4742040000000 1.0
C      1  0.6067020000000  0.4689150000000  0.5084890000000 1.0
C      1  0.5014580000000  0.4314620000000  0.4151360000000 1.0
C      1  0.4012180000000  0.5198910000000  0.4392500000000 1.0
C      1  0.5785250000000  0.5101990000000  0.5544470000000 1.0
C      1  0.4102490000000  0.4648950000000  0.4723460000000 1.0
C      1  0.5057720000000  0.4731610000000  0.3871040000000 1.0
C      1  0.4605040000000  0.5785380000000  0.4308720000000 1.0
C      1  0.4519690000000  0.4004310000000  0.4930590000000 1.0
C      1  0.5589970000000  0.4723660000000  0.5225690000000 1.0
C      1  0.4576650000000  0.5622500000000  0.4941540000000 1.0
C      1  0.3987910000000  0.5332780000000  0.4900310000000 1.0
C      1  0.4419250000000  0.5153930000000  0.5772720000000 1.0
C      1  0.5127430000000  0.5722820000000  0.4338270000000 1.0
C      1  0.5180540000000  0.5028880000000  0.5645920000000 1.0
C      1  0.4947960000000  0.3945230000000  0.5443760000000 1.0
C      1  0.4225730000000  0.5761150000000  0.5025740000000 1.0
C      1  0.3995320000000  0.5423440000000  0.4590280000000 1.0
C      1  0.4288720000000  0.4355260000000  0.5427720000000 1.0
C      1  0.5655040000000  0.5007100000000  0.4838940000000 1.0
C      1  0.5863400000000  0.5337230000000  0.4365350000000 1.0
C      1  0.4473680000000  0.5591160000000  0.5837780000000 1.0
C      1  0.4193420000000  0.5632100000000  0.4534770000000 1.0
C      1  0.4541320000000  0.4019810000000  0.4446240000000 1.0
C      1  0.5042610000000  0.4563100000000  0.4756390000000 1.0
C      1  0.4818310000000  0.4466380000000  0.4322060000000 1.0
C      1  0.5464410000000  0.5799170000000  0.5273510000000 1.0
C      1  0.5619660000000  0.4228170000000  0.4398130000000 1.0
C      1  0.5122020000000  0.5099450000000  0.4979620000000 1.0
C      1  0.4537520000000  0.4244900000000  0.5557140000000 1.0
C      1  0.4034200000000  0.5561640000000  0.5089750000000 1.0
C      1  0.4455240000000  0.5843350000000  0.5447970000000 1.0
C      1  0.4250010000000  0.4389690000000  0.5130940000000 1.0
C      1  0.5403610000000  0.5513130000000  0.6012280000000 1.0
C      1  0.6073860000000  0.4724250000000  0.5658100000000 1.0
C      1  0.5928050000000  0.4874310000000  0.4139350000000 1.0
C      1  0.5536000000000  0.5413070000000  0.5067140000000 1.0
C      1  0.5420970000000  0.6038800000000  0.4883010000000 1.0
C      1  0.5839150000000  0.5404350000000  0.5170910000000 1.0
C      1  0.5621540000000  0.4197270000000  0.4896260000000 1.0
C      1  0.4978340000000  0.4400310000000  0.5453020000000 1.0
C      1  0.3841840000000  0.4793420000000  0.4669350000000 1.0
C      1  0.4215290000000  0.5145390000000  0.4932400000000 1.0
C      1  0.6072580000000  0.5229310000000  0.4781020000000 1.0
C      1  0.4595230000000  0.5250830000000  0.5296210000000 1.0
C      1  0.5535050000000  0.4287370000000  0.5418080000000 1.0
C      1  0.4416750000000  0.4696450000000  0.4111580000000 1.0
C      1  0.5314050000000  0.5250580000000  0.6106300000000 1.0
C      1  0.4976540000000  0.3960300000000  0.4758900000000 1.0
C      1  0.4833920000000  0.4404990000000  0.4617230000000 1.0
C      1  0.4365620000000  0.5637310000000  0.4299320000000 1.0
C      1  0.4337370000000  0.4850510000000  0.4632670000000 1.0
C      1  0.5247270000000  0.5574720000000  0.5045110000000 1.0
C      1  0.5918590000000  0.5681850000000  0.5074260000000 1.0
C      1  0.4730420000000  0.5432170000000  0.5102870000000 1.0
C      1  0.4727650000000  0.5360400000000  0.4082840000000 1.0
C      1  0.5825450000000  0.4470690000000  0.4705130000000 1.0
C      1  0.5159850000000  0.6052000000000  0.5535270000000 1.0
C      1  0.4272460000000  0.4908040000000  0.5849220000000 1.0
C      1  0.4271390000000  0.5154270000000  0.4249540000000 1.0
C      1  0.5511200000000  0.4759940000000  0.4936390000000 1.0
C      1  0.5701890000000  0.4508790000000  0.5759160000000 1.0
C      1  0.5165920000000  0.4120180000000  0.4300420000000 1.0
C      1  0.4217380000000  0.4899650000000  0.5114390000000 1.0
C      1  0.5870530000000  0.4355680000000  0.4445660000000 1.0
C      1  0.5001270000000  0.4013100000000  0.5063340000000 1.0
C      1  0.4723360000000  0.5852830000000  0.5548050000000 1.0
C      1  0.5182710000000  0.5566740000000  0.4752000000000 1.0
C      1  0.5760800000000  0.5597670000000  0.5630920000000 1.0
C      1  0.4914720000000  0.4162870000000  0.5863830000000 1.0
C      1  0.5038150000000  0.5565150000000  0.5891080000000 1.0
C      1  0.4414740000000  0.5359190000000  0.5978550000000 1.0
C      1  0.4712110000000  0.5071760000000  0.5704230000000 1.0
C      1  0.4443170000000  0.5385850000000  0.4189550000000 1.0
C      1  0.5120130000000  0.4763420000000  0.4555330000000 1.0
C      1  0.4751980000000  0.5692910000000  0.5799480000000 1.0
C      1  0.4791990000000  0.4675280000000  0.3782750000000 1.0
C      1  0.5918070000000  0.5049930000000  0.4373210000000 1.0
C      1  0.5954900000000  0.5154430000000  0.5035590000000 1.0
C      1  0.3867030000000  0.4969030000000  0.4458200000000 1.0
C      1  0.5219130000000  0.4218190000000  0.5085740000000 1.0
C      1  0.4566520000000  0.4775480000000  0.4796800000000 1.0
C      1  0.4287130000000  0.4189330000000  0.4906200000000 1.0
C      1  0.4636220000000  0.6012220000000  0.4462890000000 1.0
END
