TITL C-950527-2551-70 -1.77830234617256e-06 125000 -646.643990986806 0 0 104 (C1) n - 1
REM
REM in /home/bkarasulu/work/CARBON/AIRSS/Generating-Clusters/EDIP-Nigel-Params/with-SteepDescent/Only-C1/SD-CG/HFTN-CG
REM
REM
REM
REM
REM
REM ./C.cell (11c1c37f851c82e70ff6c80c92926a4b)
REM
REM compiler GCC version 9.2.1 20190827 (Red Hat 9.2.1-1)
REM options -cpp -mtune=generic -march=x86-64 -g -O0 -fpre-include=/usr/include/finclude/math-vector-fortran.h
REM seed -933691014 1265890788 -1739131247 -1293408660 -820213748 896757152 1419453041 -1869294187 -292108122 -1370568290 701353431 994671722 376227460 -1995330944 654276468 382563493 -461679722 -1682891580 203609757 388129262 -1787355331 -1422695220 -660735757 1317943248 -1816114005 -1042842306 -1091615901 1557353970 613236103 1432607116 69854914 -376773903 -1503792205
REM
CELL 1.54180   50.00000   50.00000   50.00000   90.00000   90.00000   90.00000
LATT -1
SFAC C  
C      1  0.4055610000000  0.4847950000000  0.5159730000000 1.0
C      1  0.5430290000000  0.4647230000000  0.5607280000000 1.0
C      1  0.5354270000000  0.4847620000000  0.4296470000000 1.0
C      1  0.5057930000000  0.4860790000000  0.5708140000000 1.0
C      1  0.5276800000000  0.5657750000000  0.4938930000000 1.0
C      1  0.4004830000000  0.5088840000000  0.5020990000000 1.0
C      1  0.5352820000000  0.4908220000000  0.4013440000000 1.0
C      1  0.4820370000000  0.4940670000000  0.4340460000000 1.0
C      1  0.4624100000000  0.5546620000000  0.5509040000000 1.0
C      1  0.5166980000000  0.5225840000000  0.4636370000000 1.0
C      1  0.4592800000000  0.4724350000000  0.5659650000000 1.0
C      1  0.4222780000000  0.4839900000000  0.4730510000000 1.0
C      1  0.4303180000000  0.5366930000000  0.4689630000000 1.0
C      1  0.4869270000000  0.4619540000000  0.5643550000000 1.0
C      1  0.5700450000000  0.5379670000000  0.5737550000000 1.0
C      1  0.4879170000000  0.4411570000000  0.4236940000000 1.0
C      1  0.5987310000000  0.4990680000000  0.5303280000000 1.0
C      1  0.4363060000000  0.4880850000000  0.4479590000000 1.0
C      1  0.5364230000000  0.5691880000000  0.5487270000000 1.0
C      1  0.5185980000000  0.5110840000000  0.4903440000000 1.0
C      1  0.4864310000000  0.4874440000000  0.4049710000000 1.0
C      1  0.5234760000000  0.4280860000000  0.4587800000000 1.0
C      1  0.4531730000000  0.5092950000000  0.5285700000000 1.0
C      1  0.4855380000000  0.5057890000000  0.5819680000000 1.0
C      1  0.5602990000000  0.5504720000000  0.5490770000000 1.0
C      1  0.5604080000000  0.4861220000000  0.4455430000000 1.0
C      1  0.5684200000000  0.5362290000000  0.4993880000000 1.0
C      1  0.5315260000000  0.4720890000000  0.5339610000000 1.0
C      1  0.5618370000000  0.5325790000000  0.5267780000000 1.0
C      1  0.4233330000000  0.5474280000000  0.5176880000000 1.0
C      1  0.5201820000000  0.5409170000000  0.5881180000000 1.0
C      1  0.4720320000000  0.4138330000000  0.5078520000000 1.0
C      1  0.5143220000000  0.4487580000000  0.5229590000000 1.0
C      1  0.5129970000000  0.4941790000000  0.5418770000000 1.0
C      1  0.4639320000000  0.4745790000000  0.4508890000000 1.0
C      1  0.4565470000000  0.4279650000000  0.4634360000000 1.0
C      1  0.5311800000000  0.5497990000000  0.4315150000000 1.0
C      1  0.5417920000000  0.4715240000000  0.4871650000000 1.0
C      1  0.4885060000000  0.4954980000000  0.5222210000000 1.0
C      1  0.5782840000000  0.5123830000000  0.4858710000000 1.0
C      1  0.5068080000000  0.5395550000000  0.5318650000000 1.0
C      1  0.5391670000000  0.4291630000000  0.5242680000000 1.0
C      1  0.4902410000000  0.5487530000000  0.5573810000000 1.0
C      1  0.4370460000000  0.5188330000000  0.5714620000000 1.0
C      1  0.5315370000000  0.4576530000000  0.4216280000000 1.0
C      1  0.4423270000000  0.5325810000000  0.5461180000000 1.0
C      1  0.5832090000000  0.4459150000000  0.5398060000000 1.0
C      1  0.3990860000000  0.4604380000000  0.5027940000000 1.0
C      1  0.5202550000000  0.5666020000000  0.5731090000000 1.0
C      1  0.4324820000000  0.4366500000000  0.4754840000000 1.0
C      1  0.4826900000000  0.5401990000000  0.4229160000000 1.0
C      1  0.5499530000000  0.5512090000000  0.4821330000000 1.0
C      1  0.5497380000000  0.4373420000000  0.4712320000000 1.0
C      1  0.5817870000000  0.4939230000000  0.5528360000000 1.0
C      1  0.4442020000000  0.4356680000000  0.5400900000000 1.0
C      1  0.4330920000000  0.4839390000000  0.5281210000000 1.0
C      1  0.4399220000000  0.5177090000000  0.4452340000000 1.0
C      1  0.5650090000000  0.5118350000000  0.4591660000000 1.0
C      1  0.4855480000000  0.5653170000000  0.4351950000000 1.0
C      1  0.5157980000000  0.4833470000000  0.4845150000000 1.0
C      1  0.4772040000000  0.5319530000000  0.4905210000000 1.0
C      1  0.4937550000000  0.4732500000000  0.5009780000000 1.0
C      1  0.5053100000000  0.5703550000000  0.4745500000000 1.0
C      1  0.4779790000000  0.4182540000000  0.4812190000000 1.0
C      1  0.4698580000000  0.4742560000000  0.4815960000000 1.0
C      1  0.4508550000000  0.5196660000000  0.4973340000000 1.0
C      1  0.5896460000000  0.4905930000000  0.5038690000000 1.0
C      1  0.4459240000000  0.4882240000000  0.4914520000000 1.0
C      1  0.5543490000000  0.4776130000000  0.5129500000000 1.0
C      1  0.4547640000000  0.5698940000000  0.4859610000000 1.0
C      1  0.4817180000000  0.5831820000000  0.4888190000000 1.0
C      1  0.5556330000000  0.4381290000000  0.5496820000000 1.0
C      1  0.5283260000000  0.5206720000000  0.5421900000000 1.0
C      1  0.4588010000000  0.5006000000000  0.5721130000000 1.0
C      1  0.5104190000000  0.5053680000000  0.3987890000000 1.0
C      1  0.5129240000000  0.4447910000000  0.4380880000000 1.0
C      1  0.4623050000000  0.5752930000000  0.5307740000000 1.0
C      1  0.5111330000000  0.4990150000000  0.4437930000000 1.0
C      1  0.4694050000000  0.4274550000000  0.5318450000000 1.0
C      1  0.5134370000000  0.5723060000000  0.4411400000000 1.0
C      1  0.5581010000000  0.4325960000000  0.5007880000000 1.0
C      1  0.5430940000000  0.4906280000000  0.5809080000000 1.0
C      1  0.4922040000000  0.4424870000000  0.5422930000000 1.0
C      1  0.5040420000000  0.4144650000000  0.4727370000000 1.0
C      1  0.5767160000000  0.5098050000000  0.5762650000000 1.0
C      1  0.4925600000000  0.5422730000000  0.4655270000000 1.0
C      1  0.4410440000000  0.5698050000000  0.5112670000000 1.0
C      1  0.5442270000000  0.5354030000000  0.4568880000000 1.0
C      1  0.4885000000000  0.4593630000000  0.4017090000000 1.0
C      1  0.4633200000000  0.4458960000000  0.4401620000000 1.0
C      1  0.5170420000000  0.5671340000000  0.5224720000000 1.0
C      1  0.4888480000000  0.5832870000000  0.5179400000000 1.0
C      1  0.5101300000000  0.5293490000000  0.4192220000000 1.0
C      1  0.5762920000000  0.4546670000000  0.5118740000000 1.0
C      1  0.5945210000000  0.4685120000000  0.5540170000000 1.0
C      1  0.4123970000000  0.4563520000000  0.4781280000000 1.0
C      1  0.4681250000000  0.5198600000000  0.4370980000000 1.0
C      1  0.4393100000000  0.4621040000000  0.5477120000000 1.0
C      1  0.5659760000000  0.4607850000000  0.4590770000000 1.0
C      1  0.4106340000000  0.5342260000000  0.4946520000000 1.0
C      1  0.4920070000000  0.5339910000000  0.5842410000000 1.0
C      1  0.5356420000000  0.5211460000000  0.5715950000000 1.0
C      1  0.4391220000000  0.5639190000000  0.4634400000000 1.0
C      1  0.4970660000000  0.5207070000000  0.5081190000000 1.0
END
