TITL C-950532-2784-308 -5.52271478390419e-07 125000 -138.457232918685 0 0 25 (C1) n - 1
REM
REM in /home/bkarasulu/work/CARBON/AIRSS/Generating-Clusters/EDIP-Nigel-Params/with-SteepDescent/Only-C1/SD-CG/HFTN-CG
REM
REM
REM
REM
REM
REM ./C.cell (11c1c37f851c82e70ff6c80c92926a4b)
REM
REM compiler GCC version 9.2.1 20190827 (Red Hat 9.2.1-1)
REM options -cpp -mtune=generic -march=x86-64 -g -O0 -fpre-include=/usr/include/finclude/math-vector-fortran.h
REM seed 961708994 -23331334 960694102 -771025205 -1299062461 933124687 1380774958 349269128 -716826130 2045210060 -1970808113 684861943 1715174411 -103953770 -1288137683 573214259 -1461210711 -310203128 1481740943 -1642561575 2055797928 1461038833 46858232 2124451363 725047369 2011340811 -1759609750 -669122818 1281707708 981544750 77042270 1270476868 1088403264
REM
CELL 1.54180   50.00000   50.00000   50.00000   90.00000   90.00000   90.00000
LATT -1
SFAC C  
C      1  0.4905920000000  0.5108790000000  0.4647840000000 1.0
C      1  0.5171800000000  0.4979790000000  0.5420540000000 1.0
C      1  0.4496560000000  0.5231110000000  0.5113250000000 1.0
C      1  0.4457630000000  0.5026280000000  0.4914480000000 1.0
C      1  0.5093420000000  0.4531760000000  0.5161820000000 1.0
C      1  0.4951120000000  0.4442260000000  0.4935780000000 1.0
C      1  0.5092730000000  0.5466960000000  0.5185600000000 1.0
C      1  0.4861150000000  0.5584570000000  0.5102880000000 1.0
C      1  0.4822660000000  0.5504630000000  0.4835710000000 1.0
C      1  0.5270440000000  0.4773870000000  0.4620470000000 1.0
C      1  0.5505850000000  0.4792310000000  0.4762650000000 1.0
C      1  0.5224830000000  0.4993320000000  0.5115380000000 1.0
C      1  0.4974230000000  0.4766850000000  0.5313720000000 1.0
C      1  0.4935580000000  0.4598990000000  0.4707730000000 1.0
C      1  0.4699810000000  0.4863090000000  0.5248110000000 1.0
C      1  0.5067940000000  0.5343770000000  0.4750270000000 1.0
C      1  0.5212620000000  0.5281680000000  0.5011930000000 1.0
C      1  0.5028790000000  0.4866560000000  0.4739980000000 1.0
C      1  0.5434040000000  0.4791200000000  0.5032980000000 1.0
C      1  0.4567680000000  0.4782320000000  0.5011420000000 1.0
C      1  0.4636380000000  0.5241290000000  0.4753580000000 1.0
C      1  0.5218490000000  0.5469490000000  0.4559720000000 1.0
C      1  0.4626310000000  0.5120940000000  0.5334640000000 1.0
C      1  0.5374500000000  0.4537850000000  0.5140370000000 1.0
C      1  0.5369490000000  0.4900330000000  0.5579150000000 1.0
END
