TITL C-950524-1808-324 -7.61371259167606e-09 125000 -212.363972690949 0 0 37 (C1) n - 1
REM
REM in /home/bkarasulu/work/CARBON/AIRSS/Generating-Clusters/EDIP-Nigel-Params/with-SteepDescent/Only-C1/SD-CG/HFTN-CG
REM
REM
REM
REM
REM
REM ./C.cell (11c1c37f851c82e70ff6c80c92926a4b)
REM
REM compiler GCC version 9.2.1 20190827 (Red Hat 9.2.1-1)
REM options -cpp -mtune=generic -march=x86-64 -g -O0 -fpre-include=/usr/include/finclude/math-vector-fortran.h
REM seed 194133234 360421569 -486760166 -1435430736 -1909612421 150383081 948082472 1640929665 -128727432 1546740032 -7751808 1939025882 1093422216 -1683346828 -1168725693 -1084115765 1834761292 -185881948 -1326806954 226640569 -1916374662 140924493 877676578 1560476953 -1102285625 701486452 943387241 -77065093 435750212 -867618087 -1351442812 958947705 1022837751
REM
CELL 1.54180   50.00000   50.00000   50.00000   90.00000   90.00000   90.00000
LATT -1
SFAC C  
C      1  0.5196970000000  0.5497000000000  0.4720030000000 1.0
C      1  0.5266200000000  0.4759470000000  0.4584640000000 1.0
C      1  0.4943020000000  0.5598360000000  0.4650710000000 1.0
C      1  0.4621820000000  0.5203460000000  0.4669600000000 1.0
C      1  0.5333210000000  0.5157700000000  0.5421530000000 1.0
C      1  0.5223370000000  0.4672240000000  0.5336280000000 1.0
C      1  0.5599850000000  0.5036100000000  0.4797720000000 1.0
C      1  0.5181570000000  0.4927150000000  0.5479900000000 1.0
C      1  0.4963600000000  0.4821190000000  0.4610600000000 1.0
C      1  0.4970310000000  0.5470010000000  0.5250560000000 1.0
C      1  0.4866760000000  0.4308760000000  0.4754140000000 1.0
C      1  0.5396490000000  0.5026500000000  0.4599370000000 1.0
C      1  0.5065030000000  0.4473530000000  0.4888720000000 1.0
C      1  0.4547650000000  0.4694420000000  0.4625840000000 1.0
C      1  0.4633990000000  0.4759080000000  0.5360080000000 1.0
C      1  0.5162450000000  0.5214350000000  0.4634260000000 1.0
C      1  0.4947660000000  0.5052950000000  0.5342030000000 1.0
C      1  0.4514800000000  0.5277850000000  0.5192260000000 1.0
C      1  0.4527820000000  0.5012350000000  0.5452620000000 1.0
C      1  0.4701280000000  0.5416110000000  0.5392070000000 1.0
C      1  0.5453090000000  0.4984490000000  0.5034760000000 1.0
C      1  0.4721970000000  0.4768300000000  0.5091200000000 1.0
C      1  0.4958200000000  0.4761500000000  0.4908860000000 1.0
C      1  0.4963640000000  0.5267680000000  0.5016440000000 1.0
C      1  0.5355160000000  0.4551710000000  0.4825720000000 1.0
C      1  0.4612770000000  0.4947510000000  0.4528070000000 1.0
C      1  0.4950620000000  0.4543230000000  0.5310600000000 1.0
C      1  0.5430440000000  0.4694710000000  0.5095480000000 1.0
C      1  0.5225080000000  0.5420660000000  0.5422360000000 1.0
C      1  0.4751170000000  0.5174200000000  0.5548870000000 1.0
C      1  0.4978030000000  0.4320690000000  0.5122520000000 1.0
C      1  0.5307850000000  0.5564640000000  0.4963870000000 1.0
C      1  0.4644860000000  0.4446420000000  0.4667550000000 1.0
C      1  0.5340310000000  0.5603970000000  0.5233110000000 1.0
C      1  0.4680630000000  0.5187930000000  0.4962140000000 1.0
C      1  0.4815220000000  0.5373530000000  0.4539460000000 1.0
C      1  0.5147130000000  0.5010230000000  0.4966040000000 1.0
END
