TITL C-950523-3027-637 -1.34385685275673e-06 125000 -973.042130818543 0 0 156 (C1) n - 1
REM
REM in /home/bkarasulu/work/CARBON/AIRSS/Generating-Clusters/EDIP-Nigel-Params/with-SteepDescent/Only-C1/SD-CG/HFTN-CG
REM
REM
REM
REM
REM
REM ./C.cell (11c1c37f851c82e70ff6c80c92926a4b)
REM
REM compiler GCC version 9.2.1 20190827 (Red Hat 9.2.1-1)
REM options -cpp -mtune=generic -march=x86-64 -g -O0 -fpre-include=/usr/include/finclude/math-vector-fortran.h
REM seed 59049764 -1234221037 162220938 -859001944 -1270511349 1098544149 1525883740 1685965404 1307456313 1006531225 392944862 240563138 413562749 -997675633 -1564076670 1035394496 -1550841833 -1770654932 274530752 57437335 400570486 1934540087 368278030 2065724775 440624593 14264959 -1853799840 -1118592751 -1705792272 -2090803721 -175734817 1087897926 1474695488
REM
CELL 1.54180   50.00000   50.00000   50.00000   90.00000   90.00000   90.00000
LATT -1
SFAC C  
C      1  0.5310390000000  0.5125470000000  0.5909110000000 1.0
C      1  0.5337670000000  0.4122910000000  0.4142720000000 1.0
C      1  0.5472930000000  0.5585190000000  0.5734780000000 1.0
C      1  0.5361900000000  0.6079970000000  0.5352760000000 1.0
C      1  0.5869270000000  0.5287970000000  0.4549630000000 1.0
C      1  0.5020420000000  0.5827460000000  0.4471050000000 1.0
C      1  0.5735530000000  0.5768280000000  0.4984310000000 1.0
C      1  0.5392460000000  0.4495020000000  0.4901310000000 1.0
C      1  0.5170860000000  0.5918290000000  0.5479730000000 1.0
C      1  0.5387840000000  0.5245330000000  0.5369330000000 1.0
C      1  0.5476560000000  0.5041780000000  0.4259840000000 1.0
C      1  0.5826610000000  0.4361450000000  0.4644640000000 1.0
C      1  0.4942570000000  0.5589750000000  0.5760880000000 1.0
C      1  0.4214930000000  0.4505140000000  0.5334630000000 1.0
C      1  0.5038190000000  0.4346860000000  0.5177270000000 1.0
C      1  0.4948920000000  0.5123560000000  0.4404730000000 1.0
C      1  0.4299350000000  0.4645910000000  0.4221740000000 1.0
C      1  0.5282230000000  0.4710260000000  0.5370740000000 1.0
C      1  0.4792120000000  0.5141770000000  0.4878070000000 1.0
C      1  0.5539550000000  0.5710600000000  0.4727010000000 1.0
C      1  0.5901000000000  0.4300860000000  0.4912620000000 1.0
C      1  0.4171090000000  0.5281800000000  0.4474460000000 1.0
C      1  0.4741270000000  0.5541090000000  0.5992440000000 1.0
C      1  0.4407870000000  0.4463510000000  0.5551490000000 1.0
C      1  0.4191820000000  0.5597660000000  0.4457700000000 1.0
C      1  0.5677870000000  0.5264530000000  0.4328690000000 1.0
C      1  0.4613820000000  0.5101800000000  0.5922700000000 1.0
C      1  0.5901510000000  0.4838620000000  0.4791390000000 1.0
C      1  0.4807130000000  0.5084630000000  0.5680260000000 1.0
C      1  0.5087930000000  0.5672170000000  0.4239690000000 1.0
C      1  0.4980670000000  0.4072180000000  0.5276630000000 1.0
C      1  0.5540450000000  0.4312670000000  0.5400900000000 1.0
C      1  0.4330510000000  0.4963900000000  0.5089500000000 1.0
C      1  0.5117240000000  0.5457390000000  0.4796250000000 1.0
C      1  0.4644100000000  0.5521980000000  0.4614100000000 1.0
C      1  0.4463980000000  0.5462730000000  0.5090750000000 1.0
C      1  0.5208090000000  0.3903460000000  0.5296220000000 1.0
C      1  0.4847550000000  0.4398730000000  0.5910390000000 1.0
C      1  0.4599480000000  0.5514750000000  0.4177630000000 1.0
C      1  0.5440750000000  0.4681890000000  0.3908210000000 1.0
C      1  0.5597990000000  0.4196380000000  0.4554850000000 1.0
C      1  0.4321740000000  0.4508010000000  0.4489460000000 1.0
C      1  0.5725670000000  0.4929730000000  0.5258780000000 1.0
C      1  0.4383350000000  0.4908850000000  0.4314970000000 1.0
C      1  0.3969040000000  0.5320310000000  0.5558620000000 1.0
C      1  0.4279130000000  0.5255030000000  0.5178140000000 1.0
C      1  0.4264080000000  0.5157430000000  0.4230440000000 1.0
C      1  0.5739180000000  0.4755580000000  0.5512490000000 1.0
C      1  0.5318270000000  0.6062780000000  0.5086070000000 1.0
C      1  0.4014920000000  0.4844700000000  0.4816970000000 1.0
C      1  0.5588730000000  0.5420480000000  0.4866010000000 1.0
C      1  0.4464420000000  0.5538470000000  0.5851750000000 1.0
C      1  0.4724620000000  0.5806870000000  0.4710520000000 1.0
C      1  0.5990430000000  0.5295680000000  0.5006850000000 1.0
C      1  0.4965940000000  0.4360810000000  0.5659010000000 1.0
C      1  0.5311020000000  0.4991230000000  0.4938730000000 1.0
C      1  0.4416520000000  0.5448830000000  0.4803980000000 1.0
C      1  0.4882290000000  0.5942660000000  0.5436980000000 1.0
C      1  0.5929790000000  0.4947110000000  0.5656380000000 1.0
C      1  0.3956210000000  0.4880180000000  0.5107690000000 1.0
C      1  0.4346450000000  0.5735620000000  0.5333080000000 1.0
C      1  0.6122080000000  0.5038370000000  0.5454530000000 1.0
C      1  0.5149350000000  0.4388880000000  0.4482240000000 1.0
C      1  0.4190200000000  0.4575640000000  0.4769080000000 1.0
C      1  0.4054650000000  0.5087220000000  0.4660590000000 1.0
C      1  0.4889770000000  0.4649620000000  0.4989190000000 1.0
C      1  0.4472820000000  0.5903700000000  0.5129280000000 1.0
C      1  0.4159580000000  0.5153590000000  0.5681120000000 1.0
C      1  0.4445770000000  0.5695950000000  0.4335110000000 1.0
C      1  0.5934370000000  0.5544520000000  0.4645160000000 1.0
C      1  0.4729970000000  0.4703340000000  0.4361150000000 1.0
C      1  0.4969540000000  0.4825290000000  0.5750800000000 1.0
C      1  0.5096200000000  0.4208220000000  0.4258750000000 1.0
C      1  0.4980340000000  0.5017900000000  0.5274750000000 1.0
C      1  0.5261120000000  0.4855100000000  0.5824700000000 1.0
C      1  0.4988790000000  0.5320110000000  0.5634710000000 1.0
C      1  0.5530460000000  0.5434740000000  0.5176080000000 1.0
C      1  0.4481940000000  0.5687640000000  0.5587990000000 1.0
C      1  0.5032900000000  0.5262000000000  0.3963050000000 1.0
C      1  0.4220980000000  0.5674940000000  0.4751940000000 1.0
C      1  0.4431280000000  0.5888870000000  0.4826080000000 1.0
C      1  0.4556760000000  0.4800190000000  0.5951000000000 1.0
C      1  0.5827580000000  0.4749740000000  0.5049070000000 1.0
C      1  0.4760310000000  0.5738600000000  0.5586370000000 1.0
C      1  0.4164580000000  0.4261570000000  0.5179380000000 1.0
C      1  0.5871620000000  0.5409070000000  0.5526520000000 1.0
C      1  0.4762230000000  0.4599590000000  0.5275630000000 1.0
C      1  0.4453070000000  0.4115090000000  0.4876100000000 1.0
C      1  0.4704880000000  0.5091500000000  0.4201510000000 1.0
C      1  0.4373310000000  0.5259840000000  0.5848870000000 1.0
C      1  0.5786570000000  0.5206220000000  0.5731420000000 1.0
C      1  0.4937920000000  0.3978340000000  0.4796700000000 1.0
C      1  0.5149720000000  0.5952590000000  0.4895300000000 1.0
C      1  0.4039570000000  0.5336140000000  0.5297210000000 1.0
C      1  0.4934290000000  0.4753890000000  0.3925090000000 1.0
C      1  0.5452670000000  0.4398420000000  0.5676120000000 1.0
C      1  0.5214410000000  0.5740040000000  0.5710970000000 1.0
C      1  0.5339190000000  0.4275430000000  0.4695420000000 1.0
C      1  0.5693510000000  0.5658990000000  0.5534830000000 1.0
C      1  0.4410470000000  0.4659940000000  0.4971300000000 1.0
C      1  0.4189760000000  0.4879730000000  0.5592740000000 1.0
C      1  0.5897150000000  0.5125210000000  0.4782910000000 1.0
C      1  0.5213030000000  0.4027390000000  0.4822220000000 1.0
C      1  0.4705010000000  0.5056630000000  0.5384990000000 1.0
C      1  0.5093890000000  0.5285540000000  0.5357050000000 1.0
C      1  0.4397100000000  0.4711640000000  0.5712320000000 1.0
C      1  0.5581680000000  0.5705510000000  0.5260080000000 1.0
C      1  0.4558490000000  0.4240750000000  0.5430560000000 1.0
C      1  0.5445680000000  0.4700140000000  0.5628530000000 1.0
C      1  0.4807610000000  0.5270370000000  0.6099610000000 1.0
C      1  0.5445410000000  0.4801580000000  0.4469550000000 1.0
C      1  0.5329120000000  0.4451890000000  0.5201500000000 1.0
C      1  0.5802580000000  0.4462130000000  0.5395890000000 1.0
C      1  0.5990820000000  0.5588690000000  0.4924360000000 1.0
C      1  0.4525000000000  0.4817850000000  0.5315650000000 1.0
C      1  0.5471230000000  0.4764770000000  0.4789170000000 1.0
C      1  0.4878790000000  0.5313970000000  0.4652540000000 1.0
C      1  0.5530590000000  0.4925730000000  0.3995310000000 1.0
C      1  0.5343000000000  0.5262920000000  0.4812560000000 1.0
C      1  0.4832050000000  0.5035950000000  0.3930290000000 1.0
C      1  0.5201500000000  0.4721230000000  0.4065010000000 1.0
C      1  0.5570400000000  0.5515010000000  0.4249360000000 1.0
C      1  0.5293890000000  0.5481200000000  0.4304640000000 1.0
C      1  0.5907210000000  0.4488490000000  0.5121950000000 1.0
C      1  0.5481730000000  0.5275540000000  0.5699090000000 1.0
C      1  0.5194310000000  0.5213310000000  0.4228350000000 1.0
C      1  0.4994670000000  0.4943000000000  0.4991970000000 1.0
C      1  0.4396300000000  0.4088510000000  0.5244030000000 1.0
C      1  0.4613160000000  0.4514060000000  0.4550340000000 1.0
C      1  0.5569090000000  0.4146090000000  0.4280090000000 1.0
C      1  0.4886650000000  0.5517160000000  0.4084180000000 1.0
C      1  0.4194740000000  0.4281490000000  0.4887620000000 1.0
C      1  0.5229100000000  0.5749740000000  0.4688450000000 1.0
C      1  0.5210570000000  0.4281520000000  0.5763970000000 1.0
C      1  0.4469790000000  0.4550680000000  0.4013460000000 1.0
C      1  0.5788530000000  0.4656910000000  0.4587250000000 1.0
C      1  0.4653570000000  0.4631020000000  0.4821000000000 1.0
C      1  0.5425030000000  0.4975940000000  0.5230770000000 1.0
C      1  0.4691210000000  0.4072490000000  0.4707770000000 1.0
C      1  0.5191360000000  0.4674430000000  0.4375130000000 1.0
C      1  0.4726990000000  0.4255450000000  0.4500930000000 1.0
C      1  0.5086070000000  0.5226240000000  0.6055250000000 1.0
C      1  0.5927670000000  0.5200850000000  0.5292720000000 1.0
C      1  0.4895720000000  0.5823400000000  0.4975430000000 1.0
C      1  0.4824010000000  0.4675340000000  0.5966660000000 1.0
C      1  0.4980930000000  0.4637530000000  0.5506680000000 1.0
C      1  0.4751800000000  0.4569260000000  0.4088200000000 1.0
C      1  0.4056850000000  0.4748990000000  0.5357060000000 1.0
C      1  0.4427480000000  0.5321520000000  0.4060430000000 1.0
C      1  0.4978470000000  0.5529220000000  0.5073200000000 1.0
C      1  0.5328710000000  0.3917740000000  0.5051700000000 1.0
C      1  0.4874120000000  0.4304270000000  0.4110670000000 1.0
C      1  0.4755310000000  0.5988140000000  0.5175080000000 1.0
C      1  0.4968720000000  0.4836760000000  0.4475060000000 1.0
C      1  0.4735210000000  0.5334720000000  0.5106150000000 1.0
C      1  0.4822160000000  0.4147450000000  0.5509270000000 1.0
END
