TITL C-951335-1172-314 5.75083401366126e-08 125000 -169.779153874915 0 0 30 (C1) n - 1
REM
REM in /home/bkarasulu/work/CARBON/AIRSS/Generating-Clusters/EDIP-Nigel-Params/with-SteepDescent/Only-C1/SD-CG/HFTN-CG
REM
REM
REM
REM
REM
REM ./C.cell (11c1c37f851c82e70ff6c80c92926a4b)
REM
REM compiler GCC version 9.2.1 20190827 (Red Hat 9.2.1-1)
REM options -cpp -mtune=generic -march=x86-64 -g -O0 -fpre-include=/usr/include/finclude/math-vector-fortran.h
REM seed -1641806865 -1044180980 -384099321 -1379899185 -658572318 -21501067 -908015451 1687977237 -549785890 1678563290 1173537795 1294505134 465267744 -2104637306 461576966 -1126722616 529872236 -1322645182 1291305404 -1673013611 1219774540 -864000607 1301606904 -778327772 -407597946 -441166247 799043630 14808965 267643135 1901971899 1497730424 287582294 -1058517188
REM
CELL 1.54180   50.00000   50.00000   50.00000   90.00000   90.00000   90.00000
LATT -1
SFAC C  
C      1  0.4780870000000  0.4678400000000  0.4488590000000 1.0
C      1  0.4086140000000  0.5043890000000  0.5053910000000 1.0
C      1  0.5257750000000  0.4567450000000  0.4634580000000 1.0
C      1  0.4921460000000  0.5253170000000  0.5151300000000 1.0
C      1  0.5156670000000  0.5957510000000  0.5020300000000 1.0
C      1  0.4202960000000  0.5275120000000  0.4966350000000 1.0
C      1  0.5408430000000  0.4297620000000  0.5110000000000 1.0
C      1  0.4463040000000  0.5200890000000  0.4884040000000 1.0
C      1  0.5415760000000  0.4689530000000  0.4823340000000 1.0
C      1  0.5519050000000  0.4940000000000  0.5394540000000 1.0
C      1  0.4575170000000  0.4815930000000  0.4583320000000 1.0
C      1  0.5023940000000  0.4575290000000  0.4508970000000 1.0
C      1  0.4656710000000  0.5140600000000  0.5096930000000 1.0
C      1  0.4421170000000  0.4916820000000  0.4796680000000 1.0
C      1  0.5479380000000  0.4559140000000  0.5068990000000 1.0
C      1  0.5313190000000  0.5119750000000  0.5355920000000 1.0
C      1  0.5058730000000  0.5029830000000  0.5260430000000 1.0
C      1  0.4662440000000  0.4859220000000  0.5162660000000 1.0
C      1  0.4433300000000  0.4692550000000  0.5113160000000 1.0
C      1  0.4167320000000  0.4777480000000  0.5053920000000 1.0
C      1  0.4912350000000  0.5877830000000  0.4938150000000 1.0
C      1  0.5578640000000  0.5193240000000  0.4726050000000 1.0
C      1  0.5584000000000  0.4709680000000  0.5275180000000 1.0
C      1  0.5117290000000  0.5468990000000  0.5163130000000 1.0
C      1  0.5497850000000  0.4947790000000  0.4781970000000 1.0
C      1  0.5360350000000  0.4049950000000  0.5154050000000 1.0
C      1  0.5352810000000  0.5393650000000  0.5302060000000 1.0
C      1  0.5030870000000  0.5743970000000  0.5158470000000 1.0
C      1  0.5655820000000  0.5432970000000  0.4681810000000 1.0
C      1  0.4906530000000  0.4791720000000  0.5291230000000 1.0
END
