TITL C-950527-2551-294 -2.10331939581114e-06 125000 -767.769913912161 0 0 123 (C1) n - 1
REM
REM in /home/bkarasulu/work/CARBON/AIRSS/Generating-Clusters/EDIP-Nigel-Params/with-SteepDescent/Only-C1/SD-CG/HFTN-CG
REM
REM
REM
REM
REM
REM ./C.cell (11c1c37f851c82e70ff6c80c92926a4b)
REM
REM compiler GCC version 9.2.1 20190827 (Red Hat 9.2.1-1)
REM options -cpp -mtune=generic -march=x86-64 -g -O0 -fpre-include=/usr/include/finclude/math-vector-fortran.h
REM seed -1176501200 1345708906 -1578155740 -213847571 -1754574495 -50271781 809612602 1529848588 -1073094265 -458796868 -1847391093 993793643 353502179 -1772179778 835560973 -1545523266 1703393350 -1925690936 1051577613 313589394 -182517628 664424734 1708982250 735627937 -1144655033 1654324656 -1125227544 -754621166 -300946659 -952614704 1175447196 323274043 1345840187
REM
CELL 1.54180   50.00000   50.00000   50.00000   90.00000   90.00000   90.00000
LATT -1
SFAC C  
C      1  0.4942190000000  0.5572120000000  0.5046940000000 1.0
C      1  0.5286850000000  0.5405310000000  0.4124950000000 1.0
C      1  0.5161190000000  0.5746010000000  0.5457340000000 1.0
C      1  0.4259500000000  0.4620570000000  0.4616030000000 1.0
C      1  0.4406440000000  0.5704190000000  0.5215960000000 1.0
C      1  0.4523520000000  0.4490550000000  0.4597030000000 1.0
C      1  0.4649950000000  0.4558740000000  0.4340040000000 1.0
C      1  0.5685370000000  0.4689450000000  0.5011820000000 1.0
C      1  0.4924280000000  0.4747860000000  0.5032600000000 1.0
C      1  0.4226950000000  0.4949730000000  0.5377940000000 1.0
C      1  0.4849180000000  0.4743320000000  0.4739560000000 1.0
C      1  0.4795080000000  0.4887120000000  0.3998450000000 1.0
C      1  0.4078380000000  0.4556340000000  0.4824440000000 1.0
C      1  0.4899790000000  0.5177530000000  0.5888970000000 1.0
C      1  0.4000810000000  0.4797900000000  0.5234920000000 1.0
C      1  0.4761740000000  0.5522920000000  0.4260000000000 1.0
C      1  0.5554610000000  0.5131950000000  0.4405820000000 1.0
C      1  0.5363580000000  0.4960920000000  0.4214190000000 1.0
C      1  0.4275920000000  0.5381700000000  0.4526730000000 1.0
C      1  0.5733430000000  0.4687230000000  0.4301420000000 1.0
C      1  0.5427170000000  0.4575800000000  0.5935090000000 1.0
C      1  0.5214630000000  0.4762530000000  0.5964100000000 1.0
C      1  0.4783580000000  0.5410580000000  0.5739470000000 1.0
C      1  0.5074220000000  0.4201600000000  0.5702270000000 1.0
C      1  0.5540950000000  0.5039600000000  0.5764480000000 1.0
C      1  0.4152960000000  0.5335110000000  0.5089350000000 1.0
C      1  0.5867410000000  0.5600030000000  0.4847170000000 1.0
C      1  0.4477730000000  0.5475630000000  0.4744500000000 1.0
C      1  0.4568980000000  0.4917360000000  0.4705160000000 1.0
C      1  0.5030430000000  0.5831810000000  0.5187180000000 1.0
C      1  0.5000950000000  0.5484840000000  0.5533200000000 1.0
C      1  0.4661140000000  0.5212210000000  0.4659620000000 1.0
C      1  0.5336830000000  0.4484840000000  0.4143460000000 1.0
C      1  0.4650240000000  0.4835020000000  0.4242510000000 1.0
C      1  0.5265500000000  0.5139620000000  0.4001340000000 1.0
C      1  0.5615530000000  0.4557900000000  0.4521250000000 1.0
C      1  0.5384840000000  0.5380470000000  0.4897220000000 1.0
C      1  0.5541410000000  0.5422070000000  0.4291570000000 1.0
C      1  0.5622800000000  0.5708400000000  0.4731050000000 1.0
C      1  0.5231970000000  0.4105070000000  0.5214210000000 1.0
C      1  0.5087330000000  0.5023260000000  0.5428220000000 1.0
C      1  0.5133980000000  0.4510620000000  0.4610900000000 1.0
C      1  0.5451360000000  0.5663080000000  0.5436130000000 1.0
C      1  0.5504770000000  0.4713240000000  0.4117800000000 1.0
C      1  0.5474240000000  0.5213710000000  0.5183340000000 1.0
C      1  0.4291520000000  0.4863410000000  0.5656940000000 1.0
C      1  0.5161400000000  0.5622680000000  0.4533520000000 1.0
C      1  0.5208240000000  0.5088490000000  0.5175300000000 1.0
C      1  0.5230360000000  0.4782450000000  0.5520480000000 1.0
C      1  0.4333420000000  0.4579510000000  0.5672700000000 1.0
C      1  0.5462840000000  0.5626080000000  0.4495950000000 1.0
C      1  0.4885600000000  0.4558280000000  0.5262070000000 1.0
C      1  0.4606790000000  0.4855210000000  0.5638100000000 1.0
C      1  0.5295710000000  0.4901910000000  0.4756920000000 1.0
C      1  0.4415460000000  0.5455230000000  0.5052200000000 1.0
C      1  0.5912590000000  0.5214200000000  0.5521580000000 1.0
C      1  0.5208450000000  0.5964570000000  0.4983870000000 1.0
C      1  0.4189010000000  0.5267780000000  0.5380180000000 1.0
C      1  0.4945120000000  0.4042870000000  0.5141320000000 1.0
C      1  0.4863500000000  0.4412350000000  0.4235600000000 1.0
C      1  0.4707390000000  0.5909190000000  0.4883160000000 1.0
C      1  0.4306110000000  0.4387560000000  0.5200930000000 1.0
C      1  0.4419440000000  0.4232320000000  0.4997880000000 1.0
C      1  0.4471660000000  0.4876250000000  0.5212050000000 1.0
C      1  0.4955060000000  0.4690090000000  0.5853300000000 1.0
C      1  0.5199720000000  0.5262490000000  0.5586570000000 1.0
C      1  0.5163650000000  0.4556920000000  0.5355270000000 1.0
C      1  0.5014910000000  0.5884240000000  0.4513070000000 1.0
C      1  0.4743470000000  0.5774880000000  0.4424970000000 1.0
C      1  0.4583080000000  0.5749580000000  0.4671410000000 1.0
C      1  0.5666280000000  0.4888980000000  0.5254480000000 1.0
C      1  0.4949670000000  0.5225500000000  0.4672530000000 1.0
C      1  0.4727470000000  0.4960880000000  0.5362600000000 1.0
C      1  0.3908770000000  0.4941470000000  0.5011380000000 1.0
C      1  0.4734840000000  0.4365610000000  0.5464740000000 1.0
C      1  0.4873830000000  0.4193700000000  0.4887900000000 1.0
C      1  0.4770980000000  0.4915770000000  0.5874350000000 1.0
C      1  0.5704060000000  0.4318200000000  0.5308960000000 1.0
C      1  0.5859070000000  0.4865450000000  0.4719240000000 1.0
C      1  0.5478840000000  0.5146470000000  0.4711300000000 1.0
C      1  0.5806870000000  0.4943630000000  0.4430740000000 1.0
C      1  0.5526700000000  0.4815140000000  0.5556590000000 1.0
C      1  0.4362530000000  0.5591610000000  0.5486750000000 1.0
C      1  0.5252940000000  0.4287550000000  0.5465570000000 1.0
C      1  0.4786760000000  0.4070050000000  0.5394680000000 1.0
C      1  0.4935430000000  0.3967930000000  0.5617020000000 1.0
C      1  0.4994720000000  0.5076590000000  0.3957500000000 1.0
C      1  0.5612340000000  0.4403280000000  0.5057250000000 1.0
C      1  0.5852440000000  0.5632080000000  0.5131820000000 1.0
C      1  0.4517310000000  0.5323880000000  0.4317050000000 1.0
C      1  0.5104660000000  0.4553050000000  0.4307430000000 1.0
C      1  0.4255440000000  0.4887280000000  0.4491140000000 1.0
C      1  0.5098860000000  0.5458120000000  0.4798810000000 1.0
C      1  0.4440880000000  0.4421350000000  0.5458840000000 1.0
C      1  0.5394550000000  0.4629660000000  0.4682570000000 1.0
C      1  0.4595940000000  0.5903150000000  0.5147650000000 1.0
C      1  0.4600330000000  0.4268790000000  0.4788750000000 1.0
C      1  0.5084980000000  0.4867370000000  0.4304040000000 1.0
C      1  0.5880880000000  0.5261510000000  0.5035660000000 1.0
C      1  0.4141370000000  0.5093930000000  0.4916540000000 1.0
C      1  0.5605380000000  0.5764600000000  0.5204550000000 1.0
C      1  0.4641850000000  0.5266740000000  0.5298340000000 1.0
C      1  0.5461560000000  0.5362200000000  0.5459570000000 1.0
C      1  0.5733280000000  0.5092200000000  0.4842360000000 1.0
C      1  0.5266210000000  0.5061500000000  0.5912850000000 1.0
C      1  0.5043880000000  0.4951140000000  0.4603350000000 1.0
C      1  0.4866850000000  0.4414560000000  0.5758230000000 1.0
C      1  0.5596010000000  0.4558180000000  0.5707800000000 1.0
C      1  0.4529000000000  0.5358050000000  0.5563870000000 1.0
C      1  0.4078390000000  0.4540660000000  0.5106890000000 1.0
C      1  0.5343270000000  0.4259120000000  0.4984730000000 1.0
C      1  0.4134410000000  0.5130900000000  0.4611540000000 1.0
C      1  0.5547950000000  0.4317730000000  0.5541600000000 1.0
C      1  0.5054860000000  0.5454570000000  0.4308820000000 1.0
C      1  0.4420820000000  0.4980650000000  0.4953370000000 1.0
C      1  0.5672150000000  0.5273610000000  0.5648470000000 1.0
C      1  0.5889280000000  0.5089770000000  0.5274840000000 1.0
C      1  0.4494950000000  0.5069030000000  0.4167900000000 1.0
C      1  0.4978270000000  0.6010160000000  0.4782010000000 1.0
C      1  0.5194870000000  0.4856540000000  0.5027130000000 1.0
C      1  0.5441030000000  0.5761770000000  0.4961760000000 1.0
C      1  0.4900910000000  0.5391790000000  0.5269000000000 1.0
C      1  0.5130870000000  0.4262170000000  0.4766050000000 1.0
END
