TITL C-951337-3020-3 -3.79671341825549e-06 125000 -1153.24829932551 0 0 184 (C1) n - 1
REM
REM in /home/bkarasulu/work/CARBON/AIRSS/Generating-Clusters/EDIP-Nigel-Params/with-SteepDescent/Only-C1/SD-CG/HFTN-CG
REM
REM
REM
REM
REM
REM ./C.cell (11c1c37f851c82e70ff6c80c92926a4b)
REM
REM compiler GCC version 9.2.1 20190827 (Red Hat 9.2.1-1)
REM options -cpp -mtune=generic -march=x86-64 -g -O0 -fpre-include=/usr/include/finclude/math-vector-fortran.h
REM seed 937167586 -1204163064 492215330 985180777 368796658 996763684 -1555433500 885294349 1044968666 -591883795 -1919983849 -1594344829 497547810 448315503 -1706751559 2064595331 909421961 -1554523046 -541018735 -13263196 1396136943 1459854572 1802298455 1566690726 166695191 -2096022333 -98565751 -29931441 1013045425 -834736123 879973254 1166427343 -1056594246
REM
CELL 1.54180   50.00000   50.00000   50.00000   90.00000   90.00000   90.00000
LATT -1
SFAC C  
C      1  0.4900450000000  0.5502260000000  0.3911280000000 1.0
C      1  0.5393940000000  0.4615180000000  0.5474110000000 1.0
C      1  0.4729660000000  0.4928120000000  0.5258510000000 1.0
C      1  0.4347690000000  0.4790210000000  0.5850670000000 1.0
C      1  0.4019040000000  0.4759590000000  0.4996100000000 1.0
C      1  0.5576630000000  0.5358290000000  0.5871400000000 1.0
C      1  0.4346600000000  0.5157170000000  0.4966690000000 1.0
C      1  0.4749640000000  0.4415580000000  0.4280740000000 1.0
C      1  0.4462860000000  0.5211570000000  0.6085680000000 1.0
C      1  0.5834720000000  0.5653930000000  0.5407370000000 1.0
C      1  0.5662900000000  0.4565880000000  0.4261880000000 1.0
C      1  0.5330380000000  0.4485310000000  0.5034310000000 1.0
C      1  0.5645550000000  0.5773450000000  0.5581260000000 1.0
C      1  0.5275450000000  0.4647720000000  0.4539260000000 1.0
C      1  0.4095370000000  0.5454650000000  0.4606080000000 1.0
C      1  0.4603530000000  0.4099110000000  0.4645090000000 1.0
C      1  0.5160740000000  0.5320930000000  0.4405720000000 1.0
C      1  0.4907730000000  0.4550370000000  0.5508600000000 1.0
C      1  0.4013040000000  0.4854090000000  0.5271690000000 1.0
C      1  0.3949350000000  0.5232870000000  0.4784980000000 1.0
C      1  0.5305930000000  0.4927430000000  0.4100960000000 1.0
C      1  0.5850950000000  0.4592110000000  0.4504210000000 1.0
C      1  0.4996570000000  0.3966180000000  0.4633970000000 1.0
C      1  0.5072190000000  0.4713290000000  0.4119970000000 1.0
C      1  0.4632520000000  0.5440600000000  0.5435000000000 1.0
C      1  0.5731540000000  0.4323740000000  0.5644170000000 1.0
C      1  0.4349930000000  0.5658290000000  0.5698840000000 1.0
C      1  0.5602460000000  0.4894370000000  0.4780360000000 1.0
C      1  0.5442860000000  0.3800600000000  0.4768830000000 1.0
C      1  0.4604410000000  0.4588740000000  0.4091600000000 1.0
C      1  0.4548100000000  0.5848740000000  0.5581530000000 1.0
C      1  0.6057450000000  0.5285260000000  0.4748900000000 1.0
C      1  0.4181080000000  0.5540820000000  0.5469710000000 1.0
C      1  0.5331580000000  0.5790600000000  0.4605350000000 1.0
C      1  0.5732980000000  0.5824490000000  0.4903740000000 1.0
C      1  0.4887200000000  0.5305120000000  0.5031610000000 1.0
C      1  0.4472300000000  0.5430260000000  0.4979200000000 1.0
C      1  0.5241030000000  0.4221840000000  0.4904380000000 1.0
C      1  0.4631400000000  0.5844410000000  0.4286130000000 1.0
C      1  0.4112570000000  0.4613130000000  0.4356760000000 1.0
C      1  0.3945810000000  0.5137770000000  0.5281000000000 1.0
C      1  0.4768930000000  0.5570080000000  0.5956000000000 1.0
C      1  0.4979040000000  0.4086870000000  0.5528750000000 1.0
C      1  0.5670370000000  0.4211820000000  0.4887130000000 1.0
C      1  0.5536810000000  0.4521790000000  0.5721940000000 1.0
C      1  0.5836450000000  0.4935100000000  0.5651330000000 1.0
C      1  0.4680810000000  0.5282410000000  0.4576640000000 1.0
C      1  0.4491800000000  0.4594370000000  0.4666050000000 1.0
C      1  0.4439650000000  0.5108470000000  0.4614930000000 1.0
C      1  0.5192860000000  0.5460380000000  0.6160420000000 1.0
C      1  0.4308450000000  0.5609580000000  0.4796660000000 1.0
C      1  0.4070220000000  0.5070600000000  0.4281510000000 1.0
C      1  0.6031050000000  0.4558620000000  0.4998220000000 1.0
C      1  0.4927590000000  0.5129480000000  0.4524850000000 1.0
C      1  0.5342700000000  0.5624440000000  0.5389510000000 1.0
C      1  0.5321170000000  0.4381880000000  0.5314210000000 1.0
C      1  0.4805550000000  0.4768280000000  0.3976280000000 1.0
C      1  0.4335310000000  0.5076310000000  0.5506990000000 1.0
C      1  0.5132120000000  0.4704740000000  0.5074630000000 1.0
C      1  0.4420010000000  0.5578210000000  0.5258390000000 1.0
C      1  0.5230960000000  0.5418340000000  0.4896790000000 1.0
C      1  0.5133560000000  0.5961170000000  0.5582890000000 1.0
C      1  0.4651200000000  0.4691180000000  0.4894180000000 1.0
C      1  0.4371800000000  0.4732690000000  0.4228780000000 1.0
C      1  0.5293850000000  0.5100430000000  0.5442910000000 1.0
C      1  0.4327890000000  0.4115220000000  0.4784030000000 1.0
C      1  0.5059020000000  0.5906550000000  0.4540040000000 1.0
C      1  0.5467070000000  0.5354950000000  0.5334340000000 1.0
C      1  0.4017640000000  0.4944320000000  0.4755640000000 1.0
C      1  0.5135340000000  0.4718750000000  0.5595110000000 1.0
C      1  0.4241510000000  0.4766600000000  0.5569370000000 1.0
C      1  0.5920130000000  0.4548230000000  0.5267200000000 1.0
C      1  0.6065720000000  0.4992630000000  0.4720430000000 1.0
C      1  0.6136590000000  0.4835770000000  0.4968170000000 1.0
C      1  0.4886270000000  0.5343730000000  0.5330120000000 1.0
C      1  0.4837510000000  0.5832310000000  0.5145370000000 1.0
C      1  0.5030360000000  0.4328000000000  0.5354480000000 1.0
C      1  0.4955350000000  0.4229690000000  0.4202210000000 1.0
C      1  0.5723650000000  0.5346890000000  0.4370310000000 1.0
C      1  0.5926640000000  0.5214010000000  0.5166510000000 1.0
C      1  0.4085400000000  0.4478800000000  0.4971920000000 1.0
C      1  0.4951440000000  0.5226680000000  0.3899310000000 1.0
C      1  0.5334290000000  0.4924270000000  0.4626460000000 1.0
C      1  0.4904570000000  0.5750080000000  0.4346580000000 1.0
C      1  0.5603720000000  0.4637220000000  0.4972780000000 1.0
C      1  0.5413990000000  0.5022320000000  0.5745760000000 1.0
C      1  0.4781230000000  0.3961520000000  0.4417790000000 1.0
C      1  0.4726620000000  0.5080890000000  0.6154750000000 1.0
C      1  0.4678430000000  0.5569360000000  0.4679240000000 1.0
C      1  0.5867710000000  0.4426690000000  0.4777810000000 1.0
C      1  0.4217750000000  0.5760270000000  0.4405220000000 1.0
C      1  0.5234680000000  0.4404900000000  0.5908530000000 1.0
C      1  0.4262670000000  0.4964420000000  0.4075530000000 1.0
C      1  0.5451230000000  0.3968780000000  0.5300760000000 1.0
C      1  0.5363790000000  0.5093350000000  0.4370540000000 1.0
C      1  0.4091310000000  0.5255910000000  0.5510710000000 1.0
C      1  0.5775030000000  0.5362090000000  0.5405450000000 1.0
C      1  0.4806100000000  0.4045410000000  0.4995480000000 1.0
C      1  0.4220040000000  0.4391150000000  0.4726160000000 1.0
C      1  0.4049450000000  0.4379060000000  0.4495260000000 1.0
C      1  0.4998160000000  0.4598930000000  0.4593800000000 1.0
C      1  0.5665360000000  0.5111680000000  0.5003530000000 1.0
C      1  0.5382600000000  0.4182280000000  0.4481630000000 1.0
C      1  0.5525430000000  0.5813140000000  0.4391670000000 1.0
C      1  0.5391970000000  0.4454380000000  0.4341140000000 1.0
C      1  0.5028970000000  0.5048840000000  0.4798500000000 1.0
C      1  0.5005930000000  0.4235350000000  0.5822500000000 1.0
C      1  0.6094940000000  0.4978440000000  0.5229740000000 1.0
C      1  0.5756140000000  0.5042900000000  0.4318870000000 1.0
C      1  0.5283120000000  0.5952330000000  0.5095770000000 1.0
C      1  0.5012250000000  0.6040530000000  0.5033900000000 1.0
C      1  0.5794850000000  0.5230400000000  0.5674490000000 1.0
C      1  0.4581870000000  0.4010640000000  0.5196660000000 1.0
C      1  0.5060510000000  0.5549110000000  0.5438600000000 1.0
C      1  0.5853140000000  0.5705520000000  0.4681870000000 1.0
C      1  0.4530470000000  0.5986800000000  0.5318170000000 1.0
C      1  0.5454500000000  0.5894510000000  0.4865680000000 1.0
C      1  0.5571180000000  0.4815950000000  0.5238060000000 1.0
C      1  0.4436690000000  0.5375640000000  0.4220190000000 1.0
C      1  0.4460120000000  0.5919430000000  0.4523080000000 1.0
C      1  0.4680570000000  0.4646390000000  0.5338120000000 1.0
C      1  0.5159890000000  0.4691030000000  0.5885750000000 1.0
C      1  0.5572240000000  0.5573080000000  0.4248010000000 1.0
C      1  0.4318460000000  0.4102060000000  0.5080350000000 1.0
C      1  0.5658920000000  0.4130350000000  0.5182920000000 1.0
C      1  0.4904410000000  0.4319900000000  0.5073380000000 1.0
C      1  0.5832780000000  0.4882250000000  0.4572570000000 1.0
C      1  0.5842140000000  0.5780210000000  0.5157640000000 1.0
C      1  0.5970000000000  0.4797670000000  0.5418740000000 1.0
C      1  0.5566480000000  0.4036280000000  0.4673350000000 1.0
C      1  0.5281030000000  0.5493490000000  0.4626010000000 1.0
C      1  0.4711730000000  0.4794310000000  0.6159130000000 1.0
C      1  0.4151540000000  0.4310160000000  0.5191480000000 1.0
C      1  0.3990240000000  0.4857200000000  0.4470680000000 1.0
C      1  0.4943080000000  0.4755250000000  0.4851310000000 1.0
C      1  0.4248980000000  0.5259130000000  0.4426150000000 1.0
C      1  0.5892360000000  0.5449070000000  0.4580480000000 1.0
C      1  0.4526640000000  0.4828140000000  0.4474650000000 1.0
C      1  0.5384200000000  0.5262260000000  0.6101270000000 1.0
C      1  0.4643930000000  0.4741260000000  0.5881750000000 1.0
C      1  0.4786700000000  0.5056860000000  0.5715500000000 1.0
C      1  0.4394860000000  0.5660300000000  0.4174290000000 1.0
C      1  0.5501850000000  0.5646820000000  0.5792820000000 1.0
C      1  0.4556900000000  0.5245960000000  0.5649640000000 1.0
C      1  0.4512440000000  0.5442410000000  0.5885240000000 1.0
C      1  0.5061020000000  0.5585280000000  0.4135760000000 1.0
C      1  0.4739890000000  0.5052140000000  0.3978720000000 1.0
C      1  0.6100520000000  0.5390720000000  0.5007280000000 1.0
C      1  0.4468460000000  0.5167390000000  0.4008310000000 1.0
C      1  0.5133530000000  0.4238150000000  0.4633780000000 1.0
C      1  0.4900410000000  0.5795110000000  0.5455710000000 1.0
C      1  0.4763890000000  0.4446400000000  0.5758470000000 1.0
C      1  0.5356760000000  0.5518750000000  0.4065570000000 1.0
C      1  0.4210000000000  0.5793140000000  0.5006530000000 1.0
C      1  0.5343100000000  0.6009760000000  0.5374770000000 1.0
C      1  0.4664650000000  0.4071620000000  0.5480740000000 1.0
C      1  0.5177250000000  0.3900900000000  0.5350860000000 1.0
C      1  0.4927900000000  0.5073980000000  0.5444650000000 1.0
C      1  0.5208290000000  0.5025120000000  0.6001710000000 1.0
C      1  0.5229350000000  0.5131490000000  0.3892800000000 1.0
C      1  0.4669590000000  0.4494730000000  0.5093900000000 1.0
C      1  0.4899080000000  0.6034190000000  0.4756940000000 1.0
C      1  0.5222090000000  0.5751030000000  0.5797230000000 1.0
C      1  0.5464690000000  0.5323340000000  0.5047210000000 1.0
C      1  0.5630900000000  0.4797140000000  0.5803440000000 1.0
C      1  0.4845450000000  0.4830570000000  0.4407640000000 1.0
C      1  0.4456250000000  0.5035810000000  0.5228330000000 1.0
C      1  0.5041920000000  0.5635380000000  0.6002420000000 1.0
C      1  0.4876330000000  0.5588170000000  0.4924210000000 1.0
C      1  0.4627560000000  0.4369020000000  0.4536430000000 1.0
C      1  0.5300760000000  0.4932160000000  0.5179520000000 1.0
C      1  0.5413800000000  0.5337210000000  0.3858700000000 1.0
C      1  0.5170380000000  0.3760540000000  0.4811450000000 1.0
C      1  0.4526480000000  0.4305710000000  0.5625560000000 1.0
C      1  0.4061450000000  0.5281260000000  0.5045240000000 1.0
C      1  0.5168640000000  0.4426330000000  0.4131170000000 1.0
C      1  0.5613970000000  0.4837040000000  0.4127920000000 1.0
C      1  0.4279150000000  0.5016600000000  0.5998700000000 1.0
C      1  0.4937710000000  0.5162100000000  0.5953560000000 1.0
C      1  0.5796400000000  0.4311100000000  0.5371940000000 1.0
C      1  0.4435830000000  0.5961240000000  0.5038490000000 1.0
C      1  0.4601770000000  0.5968490000000  0.4779980000000 1.0
C      1  0.4419410000000  0.4542750000000  0.5455510000000 1.0
C      1  0.5076290000000  0.3907320000000  0.5062740000000 1.0
END
