TITL C-951336-9012-479 9.19303540378914e-07 125000 -346.151981770275 0 0 57 (C1) n - 1
REM
REM in /home/bkarasulu/work/CARBON/AIRSS/Generating-Clusters/EDIP-Nigel-Params/with-SteepDescent/Only-C1/SD-CG/HFTN-CG
REM
REM
REM
REM
REM
REM ./C.cell (11c1c37f851c82e70ff6c80c92926a4b)
REM
REM compiler GCC version 9.2.1 20190827 (Red Hat 9.2.1-1)
REM options -cpp -mtune=generic -march=x86-64 -g -O0 -fpre-include=/usr/include/finclude/math-vector-fortran.h
REM seed -2084468958 -977571514 -79731372 -1117726929 -153329791 1836881900 -1010086668 449836752 -714084542 404297514 467263594 -318659779 1247530406 -1288331679 1776288623 -2078989909 -1986772525 -74845447 1776629053 1478951638 -143683023 -880387244 -427476887 696792104 1958148553 -1064028786 -629245292 -1297547822 -505547189 1084539041 945079623 1963874799 1237222264
REM
CELL 1.54180   50.00000   50.00000   50.00000   90.00000   90.00000   90.00000
LATT -1
SFAC C  
C      1  0.4691890000000  0.4444710000000  0.4819540000000 1.0
C      1  0.4901040000000  0.5418330000000  0.4732420000000 1.0
C      1  0.4771240000000  0.4973230000000  0.5080570000000 1.0
C      1  0.4589840000000  0.4686050000000  0.5629290000000 1.0
C      1  0.4593200000000  0.4733660000000  0.4818640000000 1.0
C      1  0.4470250000000  0.5140710000000  0.5575940000000 1.0
C      1  0.5749900000000  0.5114850000000  0.4662690000000 1.0
C      1  0.5032220000000  0.5280980000000  0.4496210000000 1.0
C      1  0.5121760000000  0.5247400000000  0.5388870000000 1.0
C      1  0.4628900000000  0.5458020000000  0.5256900000000 1.0
C      1  0.5481560000000  0.5478470000000  0.5206520000000 1.0
C      1  0.5478450000000  0.4982850000000  0.5377030000000 1.0
C      1  0.4594710000000  0.5397160000000  0.5544160000000 1.0
C      1  0.4577250000000  0.4821050000000  0.4534930000000 1.0
C      1  0.5305610000000  0.4413980000000  0.4539610000000 1.0
C      1  0.5073910000000  0.5331130000000  0.4954880000000 1.0
C      1  0.4322850000000  0.5069250000000  0.5110670000000 1.0
C      1  0.5577220000000  0.4384510000000  0.4603090000000 1.0
C      1  0.5214060000000  0.4672200000000  0.4430220000000 1.0
C      1  0.4858910000000  0.5663800000000  0.5268970000000 1.0
C      1  0.4841790000000  0.5159520000000  0.4334190000000 1.0
C      1  0.4446760000000  0.5269830000000  0.4576180000000 1.0
C      1  0.4864170000000  0.4445500000000  0.4588000000000 1.0
C      1  0.4353360000000  0.4784140000000  0.5007750000000 1.0
C      1  0.4952550000000  0.4727080000000  0.4557050000000 1.0
C      1  0.5447260000000  0.4727820000000  0.4933110000000 1.0
C      1  0.5277810000000  0.5119900000000  0.4593390000000 1.0
C      1  0.5059340000000  0.5055390000000  0.5054920000000 1.0
C      1  0.5645430000000  0.4630710000000  0.4724010000000 1.0
C      1  0.4341110000000  0.4633990000000  0.5500610000000 1.0
C      1  0.5513490000000  0.5298910000000  0.4661150000000 1.0
C      1  0.5581370000000  0.4929420000000  0.5103020000000 1.0
C      1  0.5002660000000  0.5782810000000  0.4993630000000 1.0
C      1  0.4995610000000  0.5044930000000  0.5615490000000 1.0
C      1  0.5665470000000  0.5394970000000  0.4996180000000 1.0
C      1  0.5421440000000  0.5271650000000  0.5420160000000 1.0
C      1  0.5234030000000  0.4829620000000  0.5468330000000 1.0
C      1  0.4919720000000  0.4507270000000  0.5237830000000 1.0
C      1  0.4264660000000  0.5084980000000  0.5387260000000 1.0
C      1  0.4910420000000  0.5710300000000  0.4736630000000 1.0
C      1  0.4889290000000  0.4336190000000  0.5011580000000 1.0
C      1  0.4617450000000  0.5331420000000  0.4787340000000 1.0
C      1  0.5767510000000  0.5119180000000  0.4972680000000 1.0
C      1  0.5189610000000  0.5560820000000  0.5093360000000 1.0
C      1  0.4692490000000  0.4953190000000  0.5619640000000 1.0
C      1  0.5393060000000  0.4908230000000  0.4411120000000 1.0
C      1  0.5086460000000  0.4286350000000  0.4681920000000 1.0
C      1  0.5377930000000  0.4510750000000  0.5112830000000 1.0
C      1  0.5670280000000  0.4851630000000  0.4525460000000 1.0
C      1  0.5190430000000  0.4893720000000  0.4814460000000 1.0
C      1  0.5018580000000  0.5520800000000  0.5488360000000 1.0
C      1  0.5185560000000  0.4597120000000  0.5296030000000 1.0
C      1  0.4710380000000  0.4712580000000  0.5263600000000 1.0
C      1  0.4580720000000  0.5218040000000  0.5060710000000 1.0
C      1  0.4585640000000  0.5082890000000  0.4421200000000 1.0
C      1  0.4844620000000  0.5400070000000  0.5690090000000 1.0
C      1  0.4426780000000  0.4595940000000  0.5229560000000 1.0
END
