TITL C-950532-2784-119 -1.39613311402747e-06 125000 -413.150316076091 0 0 68 (C1) n - 1
REM
REM in /home/bkarasulu/work/CARBON/AIRSS/Generating-Clusters/EDIP-Nigel-Params/with-SteepDescent/Only-C1/SD-CG/HFTN-CG
REM
REM
REM
REM
REM
REM ./C.cell (11c1c37f851c82e70ff6c80c92926a4b)
REM
REM compiler GCC version 9.2.1 20190827 (Red Hat 9.2.1-1)
REM options -cpp -mtune=generic -march=x86-64 -g -O0 -fpre-include=/usr/include/finclude/math-vector-fortran.h
REM seed 1977098915 491782961 -1222679019 -124804438 -2043385290 -657996462 768182356 -2078639507 -164978521 -59291505 -536414441 -1626397481 1856146167 -289733230 832979722 -1037526116 1050644129 -674465703 -502735679 -115423040 586196588 303890708 -46551831 171952739 -1129336093 1187693501 915719743 -23168303 225211984 1068103000 2133031232 -1254971909 -1533115958
REM
CELL 1.54180   50.00000   50.00000   50.00000   90.00000   90.00000   90.00000
LATT -1
SFAC C  
C      1  0.5125700000000  0.4664790000000  0.4289320000000 1.0
C      1  0.4173110000000  0.5164050000000  0.5370840000000 1.0
C      1  0.5587520000000  0.4706240000000  0.4371000000000 1.0
C      1  0.4680270000000  0.4345100000000  0.5362890000000 1.0
C      1  0.4451290000000  0.4776160000000  0.5489110000000 1.0
C      1  0.5362910000000  0.4801400000000  0.4240680000000 1.0
C      1  0.4795720000000  0.4342070000000  0.4894090000000 1.0
C      1  0.4721080000000  0.4801970000000  0.5573610000000 1.0
C      1  0.5860670000000  0.5355550000000  0.4918670000000 1.0
C      1  0.4244030000000  0.5352080000000  0.4730050000000 1.0
C      1  0.4572740000000  0.5001400000000  0.4575790000000 1.0
C      1  0.5398770000000  0.5380970000000  0.5634000000000 1.0
C      1  0.5592070000000  0.5431770000000  0.4512690000000 1.0
C      1  0.5009990000000  0.4177850000000  0.4966270000000 1.0
C      1  0.5318910000000  0.5492670000000  0.4482850000000 1.0
C      1  0.4703120000000  0.4865000000000  0.5013770000000 1.0
C      1  0.5240100000000  0.4320810000000  0.4908270000000 1.0
C      1  0.4282900000000  0.4700170000000  0.5272100000000 1.0
C      1  0.4768990000000  0.5616580000000  0.5384140000000 1.0
C      1  0.4801120000000  0.5759120000000  0.5028640000000 1.0
C      1  0.4928280000000  0.4808670000000  0.5207260000000 1.0
C      1  0.5448110000000  0.5132020000000  0.4868610000000 1.0
C      1  0.4918090000000  0.5650540000000  0.4781460000000 1.0
C      1  0.5561030000000  0.5642600000000  0.5126540000000 1.0
C      1  0.4794490000000  0.4845200000000  0.4737180000000 1.0
C      1  0.5462860000000  0.4889620000000  0.5500460000000 1.0
C      1  0.5198480000000  0.5547150000000  0.4759640000000 1.0
C      1  0.4494720000000  0.5571920000000  0.5302760000000 1.0
C      1  0.5171460000000  0.5257090000000  0.4843350000000 1.0
C      1  0.4346050000000  0.5090280000000  0.4753210000000 1.0
C      1  0.5323120000000  0.4512890000000  0.5110680000000 1.0
C      1  0.4594270000000  0.4356730000000  0.5098470000000 1.0
C      1  0.5160930000000  0.4536870000000  0.5367450000000 1.0
C      1  0.5142040000000  0.5003520000000  0.5796820000000 1.0
C      1  0.5404940000000  0.5106550000000  0.5697640000000 1.0
C      1  0.4766680000000  0.5229770000000  0.4521040000000 1.0
C      1  0.4929240000000  0.5435050000000  0.5545950000000 1.0
C      1  0.5724830000000  0.4616770000000  0.4859890000000 1.0
C      1  0.5718580000000  0.4643120000000  0.4594640000000 1.0
C      1  0.4791650000000  0.4541640000000  0.4654530000000 1.0
C      1  0.5650190000000  0.4846320000000  0.5282840000000 1.0
C      1  0.5008900000000  0.5058550000000  0.5325400000000 1.0
C      1  0.5034160000000  0.5119920000000  0.4594840000000 1.0
C      1  0.4489260000000  0.4797980000000  0.4380120000000 1.0
C      1  0.5374150000000  0.5689780000000  0.4937810000000 1.0
C      1  0.4393500000000  0.4548880000000  0.5035500000000 1.0
C      1  0.5166860000000  0.4720380000000  0.5816840000000 1.0
C      1  0.5035630000000  0.4487080000000  0.4481550000000 1.0
C      1  0.5205990000000  0.5458830000000  0.5446330000000 1.0
C      1  0.5183040000000  0.5252770000000  0.4368420000000 1.0
C      1  0.4414810000000  0.5296350000000  0.5309720000000 1.0
C      1  0.4328460000000  0.4555100000000  0.4756710000000 1.0
C      1  0.5204120000000  0.5257170000000  0.5221820000000 1.0
C      1  0.5244450000000  0.4386040000000  0.4637050000000 1.0
C      1  0.5317340000000  0.4656540000000  0.5585480000000 1.0
C      1  0.5588900000000  0.4628990000000  0.5100780000000 1.0
C      1  0.4511700000000  0.5694500000000  0.5031750000000 1.0
C      1  0.4173520000000  0.4951460000000  0.5180750000000 1.0
C      1  0.4855480000000  0.4538610000000  0.5478220000000 1.0
C      1  0.4510920000000  0.4562730000000  0.4538640000000 1.0
C      1  0.5672650000000  0.5263320000000  0.4725250000000 1.0
C      1  0.4435610000000  0.5034130000000  0.5028170000000 1.0
C      1  0.4713090000000  0.5483570000000  0.4660330000000 1.0
C      1  0.4464700000000  0.5513290000000  0.4800640000000 1.0
C      1  0.5503230000000  0.5166590000000  0.5157650000000 1.0
C      1  0.5697150000000  0.5398480000000  0.5146580000000 1.0
C      1  0.5341120000000  0.5076610000000  0.4220330000000 1.0
C      1  0.4910170000000  0.5082260000000  0.5604080000000 1.0
END
