TITL C-950530-3293-67 -2.63595684657325e-06 125000 -898.677220797405 0 0 144 (C1) n - 1
REM
REM in /home/bkarasulu/work/CARBON/AIRSS/Generating-Clusters/EDIP-Nigel-Params/with-SteepDescent/Only-C1/SD-CG/HFTN-CG
REM
REM
REM
REM
REM
REM ./C.cell (11c1c37f851c82e70ff6c80c92926a4b)
REM
REM compiler GCC version 9.2.1 20190827 (Red Hat 9.2.1-1)
REM options -cpp -mtune=generic -march=x86-64 -g -O0 -fpre-include=/usr/include/finclude/math-vector-fortran.h
REM seed -2031132417 -1554828453 1828292179 -2069972187 -1497993651 1736041278 -1213767700 -47505151 97261187 1735783362 1340457657 -2138416884 -553575873 -1181771993 -421842522 -455040986 -67798819 -1960416755 111478767 -811170965 684085757 -2041928220 1455396161 -1081492166 343013320 1953389162 1374736152 -1479482122 604311894 914510521 680852106 -751222772 -18414674
REM
CELL 1.54180   50.00000   50.00000   50.00000   90.00000   90.00000   90.00000
LATT -1
SFAC C  
C      1  0.5108760000000  0.5894280000000  0.5423290000000 1.0
C      1  0.5518570000000  0.4932290000000  0.5032650000000 1.0
C      1  0.5809490000000  0.4834300000000  0.5132690000000 1.0
C      1  0.5502830000000  0.5747340000000  0.4589390000000 1.0
C      1  0.4614100000000  0.5866160000000  0.4364120000000 1.0
C      1  0.4782190000000  0.4388450000000  0.4436080000000 1.0
C      1  0.4149810000000  0.4783990000000  0.5498670000000 1.0
C      1  0.4996730000000  0.4003200000000  0.5343900000000 1.0
C      1  0.5178960000000  0.5135080000000  0.5621690000000 1.0
C      1  0.5068650000000  0.5732030000000  0.4426370000000 1.0
C      1  0.4646790000000  0.4651830000000  0.4078800000000 1.0
C      1  0.4504550000000  0.4763770000000  0.5087310000000 1.0
C      1  0.5809670000000  0.4580220000000  0.4738370000000 1.0
C      1  0.5298510000000  0.4868260000000  0.6151850000000 1.0
C      1  0.4168790000000  0.5270050000000  0.5311320000000 1.0
C      1  0.5248490000000  0.4171510000000  0.5381770000000 1.0
C      1  0.5746820000000  0.5042660000000  0.5577450000000 1.0
C      1  0.4555900000000  0.5135290000000  0.4109720000000 1.0
C      1  0.5931600000000  0.5261430000000  0.5144840000000 1.0
C      1  0.5325640000000  0.4694870000000  0.4716590000000 1.0
C      1  0.4202720000000  0.4823050000000  0.4399590000000 1.0
C      1  0.5479430000000  0.5220970000000  0.4523620000000 1.0
C      1  0.4822830000000  0.6044480000000  0.4752840000000 1.0
C      1  0.5770500000000  0.5237710000000  0.4458060000000 1.0
C      1  0.4822470000000  0.4629310000000  0.4628020000000 1.0
C      1  0.5659360000000  0.4504840000000  0.4494870000000 1.0
C      1  0.5450520000000  0.5064430000000  0.6009460000000 1.0
C      1  0.4684170000000  0.5770240000000  0.5362300000000 1.0
C      1  0.4742140000000  0.5567970000000  0.5841080000000 1.0
C      1  0.4063320000000  0.5313660000000  0.4854650000000 1.0
C      1  0.4716290000000  0.4823190000000  0.5610390000000 1.0
C      1  0.5505590000000  0.5654880000000  0.5205030000000 1.0
C      1  0.5200290000000  0.4813500000000  0.5550300000000 1.0
C      1  0.5670070000000  0.4570690000000  0.5463740000000 1.0
C      1  0.5519230000000  0.4271920000000  0.4423220000000 1.0
C      1  0.5272640000000  0.4653630000000  0.5017990000000 1.0
C      1  0.6025080000000  0.5009540000000  0.5035220000000 1.0
C      1  0.5328520000000  0.5243840000000  0.4235750000000 1.0
C      1  0.5706230000000  0.4698670000000  0.5907730000000 1.0
C      1  0.4485270000000  0.5747650000000  0.4613240000000 1.0
C      1  0.4917190000000  0.5590070000000  0.5275820000000 1.0
C      1  0.4733870000000  0.4510780000000  0.4904250000000 1.0
C      1  0.4876740000000  0.5974880000000  0.4469880000000 1.0
C      1  0.5376090000000  0.4331930000000  0.5140400000000 1.0
C      1  0.4959460000000  0.5242570000000  0.5416440000000 1.0
C      1  0.5079370000000  0.5055980000000  0.5898740000000 1.0
C      1  0.4104580000000  0.5450020000000  0.5099610000000 1.0
C      1  0.4894330000000  0.3972850000000  0.4707240000000 1.0
C      1  0.4493380000000  0.5265340000000  0.5648070000000 1.0
C      1  0.5042670000000  0.6130880000000  0.4898630000000 1.0
C      1  0.4680160000000  0.5363110000000  0.6025980000000 1.0
C      1  0.4327100000000  0.5293610000000  0.4453970000000 1.0
C      1  0.4982290000000  0.5039730000000  0.4950640000000 1.0
C      1  0.4630940000000  0.5339570000000  0.4837500000000 1.0
C      1  0.5403120000000  0.5204850000000  0.5104640000000 1.0
C      1  0.4246890000000  0.4662370000000  0.5207400000000 1.0
C      1  0.5092480000000  0.5519580000000  0.4676230000000 1.0
C      1  0.4954460000000  0.4756200000000  0.5396080000000 1.0
C      1  0.4609070000000  0.5088670000000  0.6033330000000 1.0
C      1  0.4888280000000  0.4793100000000  0.4109810000000 1.0
C      1  0.5612480000000  0.5524240000000  0.5449060000000 1.0
C      1  0.4436620000000  0.4231880000000  0.5275510000000 1.0
C      1  0.5639430000000  0.4746210000000  0.4329970000000 1.0
C      1  0.5011000000000  0.5580560000000  0.5778200000000 1.0
C      1  0.5100190000000  0.5232980000000  0.5122400000000 1.0
C      1  0.5530900000000  0.4925460000000  0.4717460000000 1.0
C      1  0.4507170000000  0.5459710000000  0.4602650000000 1.0
C      1  0.5679010000000  0.4974360000000  0.5860220000000 1.0
C      1  0.5477560000000  0.5552100000000  0.5689020000000 1.0
C      1  0.4844840000000  0.5080550000000  0.4112870000000 1.0
C      1  0.5584650000000  0.5467550000000  0.3975610000000 1.0
C      1  0.5094050000000  0.4737150000000  0.4548200000000 1.0
C      1  0.5232410000000  0.5427200000000  0.5714690000000 1.0
C      1  0.4956570000000  0.5570010000000  0.4199550000000 1.0
C      1  0.4549540000000  0.5650490000000  0.5620090000000 1.0
C      1  0.4376680000000  0.5082490000000  0.5855510000000 1.0
C      1  0.4531280000000  0.5038090000000  0.5202190000000 1.0
C      1  0.4504270000000  0.5816980000000  0.5116850000000 1.0
C      1  0.5905450000000  0.5358280000000  0.4671260000000 1.0
C      1  0.5157040000000  0.3970820000000  0.4586950000000 1.0
C      1  0.5274040000000  0.5834880000000  0.5196150000000 1.0
C      1  0.4307260000000  0.4474350000000  0.4768430000000 1.0
C      1  0.5848690000000  0.4953120000000  0.4423330000000 1.0
C      1  0.5837870000000  0.4476530000000  0.5010170000000 1.0
C      1  0.4906330000000  0.5521900000000  0.4955440000000 1.0
C      1  0.4401360000000  0.4850690000000  0.4798860000000 1.0
C      1  0.4546380000000  0.4281930000000  0.4824380000000 1.0
C      1  0.4630110000000  0.5846710000000  0.4851150000000 1.0
C      1  0.4021850000000  0.4900650000000  0.4597820000000 1.0
C      1  0.4259440000000  0.5682420000000  0.5105700000000 1.0
C      1  0.5020990000000  0.5283850000000  0.4258330000000 1.0
C      1  0.4873550000000  0.4073650000000  0.5067560000000 1.0
C      1  0.3970520000000  0.4882350000000  0.5082440000000 1.0
C      1  0.4562910000000  0.4084870000000  0.5062040000000 1.0
C      1  0.5137390000000  0.4311580000000  0.5627520000000 1.0
C      1  0.5553650000000  0.3920590000000  0.4890450000000 1.0
C      1  0.4813920000000  0.4911570000000  0.5898640000000 1.0
C      1  0.5911570000000  0.4853060000000  0.4703430000000 1.0
C      1  0.4022300000000  0.5011960000000  0.5341890000000 1.0
C      1  0.5825030000000  0.5422740000000  0.4931650000000 1.0
C      1  0.4554890000000  0.4492290000000  0.4287900000000 1.0
C      1  0.4229440000000  0.4383890000000  0.5137920000000 1.0
C      1  0.4864400000000  0.4657680000000  0.6043550000000 1.0
C      1  0.5054020000000  0.4367470000000  0.4291310000000 1.0
C      1  0.4809630000000  0.5124060000000  0.4722200000000 1.0
C      1  0.4002790000000  0.5034210000000  0.4841230000000 1.0
C      1  0.4597630000000  0.4534660000000  0.5681870000000 1.0
C      1  0.4674980000000  0.5644950000000  0.4156550000000 1.0
C      1  0.5403680000000  0.4765080000000  0.4145830000000 1.0
C      1  0.4941290000000  0.4364250000000  0.5061460000000 1.0
C      1  0.4820410000000  0.4088320000000  0.5569390000000 1.0
C      1  0.5532760000000  0.5450440000000  0.4984450000000 1.0
C      1  0.5280110000000  0.6014610000000  0.4973680000000 1.0
C      1  0.5565190000000  0.4528810000000  0.5733870000000 1.0
C      1  0.5013420000000  0.4794980000000  0.5088640000000 1.0
C      1  0.4288800000000  0.4845920000000  0.5735940000000 1.0
C      1  0.4913090000000  0.4452440000000  0.5347010000000 1.0
C      1  0.5378310000000  0.5029820000000  0.4021410000000 1.0
C      1  0.5453080000000  0.5645370000000  0.4128910000000 1.0
C      1  0.4636510000000  0.4897130000000  0.4599230000000 1.0
C      1  0.4485510000000  0.5422180000000  0.4127450000000 1.0
C      1  0.4998280000000  0.5268790000000  0.4549790000000 1.0
C      1  0.5122910000000  0.4664870000000  0.4255960000000 1.0
C      1  0.5655000000000  0.4396800000000  0.5226030000000 1.0
C      1  0.5403350000000  0.4152410000000  0.4909070000000 1.0
C      1  0.4406020000000  0.5168750000000  0.4957220000000 1.0
C      1  0.4672750000000  0.5101150000000  0.5457120000000 1.0
C      1  0.5248200000000  0.4207470000000  0.4439630000000 1.0
C      1  0.5460800000000  0.5951200000000  0.4773530000000 1.0
C      1  0.4708070000000  0.4455880000000  0.5927990000000 1.0
C      1  0.5266610000000  0.4575260000000  0.5737370000000 1.0
C      1  0.5354320000000  0.5793610000000  0.4344700000000 1.0
C      1  0.5829650000000  0.4808580000000  0.5428950000000 1.0
C      1  0.4269380000000  0.5413590000000  0.5534390000000 1.0
C      1  0.5779580000000  0.5283670000000  0.5406570000000 1.0
C      1  0.5602160000000  0.5193970000000  0.3950600000000 1.0
C      1  0.4662000000000  0.4327830000000  0.5473260000000 1.0
C      1  0.5402260000000  0.5485960000000  0.4700840000000 1.0
C      1  0.4848180000000  0.6000970000000  0.5426330000000 1.0
C      1  0.4327750000000  0.4567320000000  0.4467960000000 1.0
C      1  0.5355570000000  0.3814360000000  0.4728660000000 1.0
C      1  0.5163870000000  0.4638940000000  0.6024270000000 1.0
C      1  0.4428240000000  0.5023570000000  0.4370660000000 1.0
C      1  0.4692810000000  0.4152670000000  0.4597010000000 1.0
END
