TITL C-950533-5798-521 4.80671697506211e-07 125000 -397.374322763212 0 0 64 (C1) n - 1
REM
REM in /home/bkarasulu/work/CARBON/AIRSS/Generating-Clusters/EDIP-Nigel-Params/with-SteepDescent/Only-C1/SD-CG/HFTN-CG
REM
REM
REM
REM
REM
REM ./C.cell (11c1c37f851c82e70ff6c80c92926a4b)
REM
REM compiler GCC version 9.2.1 20190827 (Red Hat 9.2.1-1)
REM options -cpp -mtune=generic -march=x86-64 -g -O0 -fpre-include=/usr/include/finclude/math-vector-fortran.h
REM seed -1039852587 1307210445 1171862971 388626929 -1044850302 -356772172 1871845322 606125716 585556149 1839542078 1053311341 -1852803154 633338956 1344340068 1750245204 -1496224670 -470224683 2139183622 -1155954971 -1941910129 153162546 -1631872425 -949773455 258269266 943733652 169227766 -314055209 459475905 -1360871648 1768182832 -1688978250 2043566611 889671547
REM
CELL 1.54180   50.00000   50.00000   50.00000   90.00000   90.00000   90.00000
LATT -1
SFAC C  
C      1  0.4595420000000  0.4955940000000  0.4914060000000 1.0
C      1  0.5371520000000  0.5160240000000  0.5514120000000 1.0
C      1  0.4857040000000  0.5489670000000  0.5621010000000 1.0
C      1  0.4978970000000  0.5728520000000  0.5094460000000 1.0
C      1  0.5474520000000  0.4457950000000  0.4813020000000 1.0
C      1  0.5320480000000  0.5306680000000  0.4442170000000 1.0
C      1  0.5175490000000  0.5771910000000  0.5287760000000 1.0
C      1  0.4181390000000  0.5160860000000  0.5043450000000 1.0
C      1  0.5251920000000  0.4325250000000  0.4675420000000 1.0
C      1  0.4930170000000  0.5007210000000  0.4494330000000 1.0
C      1  0.5069190000000  0.5588760000000  0.4845900000000 1.0
C      1  0.4769980000000  0.4707330000000  0.4923900000000 1.0
C      1  0.5063520000000  0.4786930000000  0.5534910000000 1.0
C      1  0.5522800000000  0.4691730000000  0.5455330000000 1.0
C      1  0.5474850000000  0.5497880000000  0.5047150000000 1.0
C      1  0.5032350000000  0.5101840000000  0.5127470000000 1.0
C      1  0.5093030000000  0.5068180000000  0.5446630000000 1.0
C      1  0.4844950000000  0.5554030000000  0.4636310000000 1.0
C      1  0.5573800000000  0.4974240000000  0.5410440000000 1.0
C      1  0.5426880000000  0.5431670000000  0.5503710000000 1.0
C      1  0.5221260000000  0.4625090000000  0.4351670000000 1.0
C      1  0.5665300000000  0.4890720000000  0.4984440000000 1.0
C      1  0.5594550000000  0.4611730000000  0.5025310000000 1.0
C      1  0.5055470000000  0.5234920000000  0.4330390000000 1.0
C      1  0.4720560000000  0.5148390000000  0.5123960000000 1.0
C      1  0.4637150000000  0.5576690000000  0.5462510000000 1.0
C      1  0.4932620000000  0.5500440000000  0.4363130000000 1.0
C      1  0.5334700000000  0.5169850000000  0.4711060000000 1.0
C      1  0.4574530000000  0.4829020000000  0.5479390000000 1.0
C      1  0.5754460000000  0.5046470000000  0.5204320000000 1.0
C      1  0.5638400000000  0.4504030000000  0.5280220000000 1.0
C      1  0.5541290000000  0.5688880000000  0.4848400000000 1.0
C      1  0.4626120000000  0.5381560000000  0.4721720000000 1.0
C      1  0.4660860000000  0.5093090000000  0.4646390000000 1.0
C      1  0.4945370000000  0.4741500000000  0.4337770000000 1.0
C      1  0.4864320000000  0.5213550000000  0.5576290000000 1.0
C      1  0.5043000000000  0.4844740000000  0.4963380000000 1.0
C      1  0.5148550000000  0.4934230000000  0.4699110000000 1.0
C      1  0.5227830000000  0.5335400000000  0.4950880000000 1.0
C      1  0.5590040000000  0.5016960000000  0.4738820000000 1.0
C      1  0.4300410000000  0.4920820000000  0.4971270000000 1.0
C      1  0.4744830000000  0.4544490000000  0.4399020000000 1.0
C      1  0.5008960000000  0.4227380000000  0.4808270000000 1.0
C      1  0.4235840000000  0.4712990000000  0.5144330000000 1.0
C      1  0.4809060000000  0.4662190000000  0.5515880000000 1.0
C      1  0.4899440000000  0.4311440000000  0.5070480000000 1.0
C      1  0.4817620000000  0.4383160000000  0.5500380000000 1.0
C      1  0.5287640000000  0.4632770000000  0.5588420000000 1.0
C      1  0.4593270000000  0.5410170000000  0.5023150000000 1.0
C      1  0.5361200000000  0.4743340000000  0.4586440000000 1.0
C      1  0.4341350000000  0.4709430000000  0.5391470000000 1.0
C      1  0.5300000000000  0.5723520000000  0.4706660000000 1.0
C      1  0.4569920000000  0.4611300000000  0.4613600000000 1.0
C      1  0.5414180000000  0.5624210000000  0.5305670000000 1.0
C      1  0.4715440000000  0.5634750000000  0.5177180000000 1.0
C      1  0.4787330000000  0.4233410000000  0.4620510000000 1.0
C      1  0.5234610000000  0.4344160000000  0.4390500000000 1.0
C      1  0.4314060000000  0.5382630000000  0.5144970000000 1.0
C      1  0.4418150000000  0.5357780000000  0.5430840000000 1.0
C      1  0.4963280000000  0.4225560000000  0.5330550000000 1.0
C      1  0.4627250000000  0.5122690000000  0.5418050000000 1.0
C      1  0.4556180000000  0.4358750000000  0.4754150000000 1.0
C      1  0.4621980000000  0.4370010000000  0.5034700000000 1.0
C      1  0.5293290000000  0.5598990000000  0.4442810000000 1.0
END
