TITL C-951337-3020-606 -5.77549487103661e-07 125000 -862.585399949422 0 0 137 (C1) n - 1
REM
REM in /home/bkarasulu/work/CARBON/AIRSS/Generating-Clusters/EDIP-Nigel-Params/with-SteepDescent/Only-C1/SD-CG/HFTN-CG
REM
REM
REM
REM
REM
REM ./C.cell (11c1c37f851c82e70ff6c80c92926a4b)
REM
REM compiler GCC version 9.2.1 20190827 (Red Hat 9.2.1-1)
REM options -cpp -mtune=generic -march=x86-64 -g -O0 -fpre-include=/usr/include/finclude/math-vector-fortran.h
REM seed -1625095929 751948063 1657374887 -472439857 -485751867 -1288232970 -1571879933 2086059905 586692070 -1696722549 -580037448 -870598681 444329361 -2095560787 907200611 815566282 -1398576939 -1834427636 -697275151 -361773631 -703089041 -1588035820 -5470689 -1511739218 1910772924 -1753715191 -947054794 320943727 719479607 126781638 657465090 836404466 -554171468
REM
CELL 1.54180   50.00000   50.00000   50.00000   90.00000   90.00000   90.00000
LATT -1
SFAC C  
C      1  0.5860450000000  0.5312560000000  0.4867740000000 1.0
C      1  0.4666270000000  0.5013890000000  0.4833100000000 1.0
C      1  0.5419260000000  0.4950170000000  0.4160770000000 1.0
C      1  0.5358680000000  0.5774390000000  0.5225720000000 1.0
C      1  0.4828340000000  0.4229960000000  0.5679710000000 1.0
C      1  0.4304460000000  0.5017820000000  0.5636410000000 1.0
C      1  0.5194480000000  0.5198620000000  0.4005320000000 1.0
C      1  0.5067340000000  0.4940410000000  0.5870820000000 1.0
C      1  0.5317590000000  0.4489960000000  0.4514470000000 1.0
C      1  0.5773340000000  0.5093250000000  0.5326340000000 1.0
C      1  0.5334630000000  0.5049860000000  0.5998730000000 1.0
C      1  0.5653550000000  0.5676550000000  0.5206720000000 1.0
C      1  0.5099580000000  0.4643960000000  0.4682920000000 1.0
C      1  0.5566130000000  0.5419000000000  0.4217340000000 1.0
C      1  0.5005590000000  0.4984750000000  0.4388450000000 1.0
C      1  0.5229150000000  0.5623770000000  0.4612460000000 1.0
C      1  0.4778300000000  0.5085490000000  0.5864750000000 1.0
C      1  0.5765640000000  0.5246460000000  0.4308590000000 1.0
C      1  0.4834630000000  0.6013570000000  0.5263290000000 1.0
C      1  0.4734730000000  0.5885620000000  0.4561780000000 1.0
C      1  0.5331130000000  0.4567820000000  0.5840450000000 1.0
C      1  0.4435150000000  0.5445920000000  0.4590790000000 1.0
C      1  0.5342500000000  0.4694660000000  0.4024290000000 1.0
C      1  0.4582870000000  0.4631420000000  0.5730970000000 1.0
C      1  0.5082330000000  0.5381830000000  0.4739890000000 1.0
C      1  0.4702190000000  0.5513250000000  0.5783570000000 1.0
C      1  0.4050840000000  0.5123500000000  0.5227910000000 1.0
C      1  0.5336560000000  0.4102280000000  0.5076810000000 1.0
C      1  0.4767720000000  0.4942610000000  0.5315740000000 1.0
C      1  0.4277660000000  0.4209910000000  0.4527750000000 1.0
C      1  0.4440980000000  0.5739330000000  0.5416070000000 1.0
C      1  0.5759690000000  0.5548800000000  0.4979480000000 1.0
C      1  0.5189650000000  0.5657400000000  0.5681690000000 1.0
C      1  0.5780160000000  0.4816980000000  0.5455170000000 1.0
C      1  0.4005310000000  0.5351880000000  0.4941660000000 1.0
C      1  0.4900880000000  0.5238740000000  0.4536760000000 1.0
C      1  0.4840150000000  0.3945510000000  0.5143700000000 1.0
C      1  0.5282060000000  0.5180930000000  0.4864490000000 1.0
C      1  0.4575480000000  0.4190370000000  0.5526000000000 1.0
C      1  0.5051590000000  0.4637050000000  0.5918650000000 1.0
C      1  0.5643820000000  0.4323380000000  0.5405270000000 1.0
C      1  0.5304550000000  0.5199010000000  0.5548950000000 1.0
C      1  0.4706960000000  0.5766430000000  0.5290760000000 1.0
C      1  0.5517460000000  0.4804780000000  0.5933750000000 1.0
C      1  0.4207540000000  0.4974430000000  0.4753840000000 1.0
C      1  0.4098130000000  0.4738150000000  0.4883880000000 1.0
C      1  0.5114220000000  0.5427460000000  0.5494710000000 1.0
C      1  0.5191740000000  0.5509910000000  0.5206100000000 1.0
C      1  0.4487180000000  0.4435950000000  0.4910760000000 1.0
C      1  0.5807710000000  0.4752470000000  0.4405500000000 1.0
C      1  0.5480770000000  0.5151460000000  0.5305530000000 1.0
C      1  0.5059680000000  0.4429310000000  0.5302640000000 1.0
C      1  0.4508520000000  0.5351260000000  0.5138880000000 1.0
C      1  0.4990000000000  0.4445330000000  0.4116280000000 1.0
C      1  0.4461200000000  0.5919660000000  0.4624680000000 1.0
C      1  0.5861530000000  0.5152480000000  0.5772410000000 1.0
C      1  0.4966740000000  0.6046150000000  0.5017790000000 1.0
C      1  0.4293170000000  0.5312810000000  0.5599330000000 1.0
C      1  0.4771430000000  0.4226290000000  0.4543800000000 1.0
C      1  0.5945920000000  0.4911540000000  0.4612020000000 1.0
C      1  0.5720270000000  0.4387450000000  0.4797300000000 1.0
C      1  0.4842440000000  0.4513720000000  0.5755900000000 1.0
C      1  0.5017400000000  0.4454950000000  0.4915930000000 1.0
C      1  0.5341150000000  0.5866680000000  0.5513580000000 1.0
C      1  0.5344000000000  0.4554910000000  0.5313990000000 1.0
C      1  0.4304380000000  0.5141830000000  0.4295300000000 1.0
C      1  0.5273420000000  0.4053370000000  0.5553810000000 1.0
C      1  0.5599150000000  0.4591290000000  0.4600070000000 1.0
C      1  0.5865760000000  0.4836860000000  0.4901230000000 1.0
C      1  0.5404720000000  0.5543790000000  0.5878650000000 1.0
C      1  0.5869820000000  0.5300230000000  0.5524210000000 1.0
C      1  0.5764220000000  0.5170250000000  0.4605720000000 1.0
C      1  0.5021130000000  0.4194760000000  0.4753570000000 1.0
C      1  0.4896550000000  0.5832130000000  0.4808140000000 1.0
C      1  0.4014680000000  0.5198800000000  0.4689840000000 1.0
C      1  0.4969220000000  0.5463340000000  0.5010000000000 1.0
C      1  0.4435060000000  0.5579950000000  0.5676900000000 1.0
C      1  0.5440020000000  0.5259100000000  0.5814150000000 1.0
C      1  0.5774560000000  0.4555350000000  0.5297110000000 1.0
C      1  0.5302070000000  0.4950710000000  0.4432760000000 1.0
C      1  0.4687870000000  0.5062120000000  0.4010160000000 1.0
C      1  0.5470810000000  0.5047870000000  0.4667210000000 1.0
C      1  0.4872340000000  0.4728720000000  0.4500960000000 1.0
C      1  0.4813450000000  0.5682360000000  0.4344560000000 1.0
C      1  0.5447650000000  0.4125460000000  0.5344570000000 1.0
C      1  0.4244240000000  0.4669320000000  0.4309960000000 1.0
C      1  0.5371890000000  0.4734370000000  0.5577710000000 1.0
C      1  0.4621030000000  0.4840240000000  0.4612180000000 1.0
C      1  0.5026970000000  0.4171250000000  0.5470160000000 1.0
C      1  0.5869120000000  0.4549040000000  0.5015410000000 1.0
C      1  0.4391130000000  0.5679520000000  0.4757020000000 1.0
C      1  0.5903360000000  0.5090330000000  0.5058040000000 1.0
C      1  0.4553480000000  0.5257210000000  0.4180340000000 1.0
C      1  0.4684110000000  0.5411570000000  0.4409270000000 1.0
C      1  0.4170330000000  0.4423360000000  0.4408490000000 1.0
C      1  0.4709600000000  0.5592740000000  0.5045120000000 1.0
C      1  0.4239010000000  0.4546930000000  0.5036900000000 1.0
C      1  0.5063480000000  0.4002790000000  0.4984330000000 1.0
C      1  0.5289750000000  0.5428480000000  0.4165640000000 1.0
C      1  0.5553810000000  0.4800730000000  0.4823720000000 1.0
C      1  0.5286010000000  0.4458280000000  0.4210600000000 1.0
C      1  0.4773810000000  0.4619490000000  0.5333390000000 1.0
C      1  0.4505160000000  0.4241980000000  0.4686770000000 1.0
C      1  0.5294640000000  0.4215360000000  0.4625040000000 1.0
C      1  0.5131420000000  0.5640000000000  0.4329030000000 1.0
C      1  0.4159050000000  0.5627670000000  0.4951910000000 1.0
C      1  0.4800410000000  0.4472430000000  0.4346410000000 1.0
C      1  0.4971230000000  0.4998390000000  0.4080410000000 1.0
C      1  0.5161900000000  0.4946920000000  0.5586680000000 1.0
C      1  0.4743160000000  0.4539140000000  0.5023960000000 1.0
C      1  0.4348610000000  0.4895120000000  0.4479710000000 1.0
C      1  0.5148760000000  0.4947150000000  0.5000140000000 1.0
C      1  0.4103660000000  0.5370030000000  0.5374410000000 1.0
C      1  0.4425600000000  0.5118510000000  0.4938440000000 1.0
C      1  0.5576190000000  0.5732230000000  0.5686780000000 1.0
C      1  0.4519050000000  0.4851510000000  0.3936580000000 1.0
C      1  0.5259120000000  0.5976230000000  0.5013730000000 1.0
C      1  0.5275460000000  0.5881550000000  0.4739040000000 1.0
C      1  0.4179490000000  0.4903110000000  0.5393060000000 1.0
C      1  0.4183040000000  0.5337080000000  0.4481580000000 1.0
C      1  0.4820890000000  0.5345810000000  0.5570360000000 1.0
C      1  0.5403710000000  0.5328570000000  0.5094070000000 1.0
C      1  0.5734070000000  0.5574070000000  0.5478290000000 1.0
C      1  0.4707460000000  0.5335200000000  0.6000420000000 1.0
C      1  0.4337120000000  0.4688790000000  0.4049550000000 1.0
C      1  0.5753280000000  0.4883830000000  0.5745500000000 1.0
C      1  0.5491520000000  0.4192090000000  0.4843660000000 1.0
C      1  0.5045330000000  0.4725190000000  0.3956420000000 1.0
C      1  0.4457050000000  0.4475780000000  0.5509730000000 1.0
C      1  0.5339290000000  0.4724230000000  0.5042530000000 1.0
C      1  0.4639570000000  0.4033440000000  0.5302240000000 1.0
C      1  0.4610430000000  0.5198400000000  0.5398860000000 1.0
C      1  0.5717300000000  0.4967180000000  0.4203470000000 1.0
C      1  0.4853860000000  0.4913140000000  0.5032240000000 1.0
C      1  0.4284740000000  0.5550950000000  0.5223220000000 1.0
C      1  0.4557530000000  0.4916230000000  0.5741100000000 1.0
C      1  0.4272380000000  0.4632520000000  0.5316680000000 1.0
END
