TITL C-950527-2551-464 -5.96132859837603e-06 125000 -1238.33662404176 0 0 200 (C1) n - 1
REM
REM in /home/bkarasulu/work/CARBON/AIRSS/Generating-Clusters/EDIP-Nigel-Params/with-SteepDescent/Only-C1/SD-CG/HFTN-CG
REM
REM
REM
REM
REM
REM ./C.cell (11c1c37f851c82e70ff6c80c92926a4b)
REM
REM compiler GCC version 9.2.1 20190827 (Red Hat 9.2.1-1)
REM options -cpp -mtune=generic -march=x86-64 -g -O0 -fpre-include=/usr/include/finclude/math-vector-fortran.h
REM seed 933671608 1250883780 -1894069046 -2102079791 1882809538 1932610527 1147861661 672448746 963252151 1161684053 -1157536264 547550956 1801454645 -1905716899 -1985930576 -334448971 -1301196103 -1903296232 625227886 216271332 187490332 1337288495 1312238857 -841171763 95225329 1141639662 104725117 972219406 -2146186994 -1673799110 425817252 -1569890167 168701244
REM
CELL 1.54180   50.00000   50.00000   50.00000   90.00000   90.00000   90.00000
LATT -1
SFAC C  
C      1  0.4331960000000  0.4768000000000  0.4880460000000 1.0
C      1  0.4627980000000  0.5357340000000  0.4596010000000 1.0
C      1  0.4662390000000  0.5057510000000  0.5124170000000 1.0
C      1  0.5106480000000  0.4073770000000  0.5708640000000 1.0
C      1  0.4564580000000  0.4846190000000  0.5317810000000 1.0
C      1  0.4393870000000  0.4866140000000  0.5601360000000 1.0
C      1  0.5956690000000  0.4405080000000  0.5071770000000 1.0
C      1  0.5652450000000  0.5253050000000  0.4655830000000 1.0
C      1  0.5922720000000  0.4659250000000  0.5223090000000 1.0
C      1  0.5361520000000  0.5282110000000  0.4560170000000 1.0
C      1  0.5437600000000  0.5176660000000  0.5161770000000 1.0
C      1  0.3899920000000  0.5334670000000  0.4750070000000 1.0
C      1  0.4336580000000  0.5599540000000  0.5453780000000 1.0
C      1  0.5272300000000  0.5024630000000  0.3870880000000 1.0
C      1  0.5544260000000  0.4852860000000  0.4526840000000 1.0
C      1  0.4547130000000  0.4860180000000  0.4654580000000 1.0
C      1  0.5519410000000  0.5868640000000  0.5480480000000 1.0
C      1  0.5215990000000  0.4497800000000  0.4313140000000 1.0
C      1  0.4376120000000  0.5245980000000  0.5907960000000 1.0
C      1  0.4922230000000  0.4855570000000  0.5654260000000 1.0
C      1  0.4051470000000  0.4235680000000  0.5066790000000 1.0
C      1  0.5663090000000  0.5063690000000  0.4154000000000 1.0
C      1  0.4796050000000  0.4240930000000  0.4811020000000 1.0
C      1  0.5046180000000  0.4986260000000  0.4251840000000 1.0
C      1  0.4622550000000  0.4595120000000  0.5971620000000 1.0
C      1  0.4847050000000  0.5772020000000  0.4795510000000 1.0
C      1  0.5363060000000  0.5031860000000  0.5507580000000 1.0
C      1  0.5145930000000  0.5552420000000  0.3863800000000 1.0
C      1  0.3845540000000  0.4937090000000  0.4937800000000 1.0
C      1  0.4431850000000  0.5223200000000  0.5036570000000 1.0
C      1  0.6202870000000  0.5165440000000  0.5228220000000 1.0
C      1  0.5666380000000  0.5089930000000  0.4944890000000 1.0
C      1  0.4856590000000  0.5601410000000  0.5522490000000 1.0
C      1  0.5442590000000  0.5210600000000  0.4027830000000 1.0
C      1  0.4855460000000  0.5221880000000  0.4730360000000 1.0
C      1  0.5137740000000  0.4509660000000  0.5940640000000 1.0
C      1  0.3938180000000  0.5362480000000  0.5233180000000 1.0
C      1  0.5618450000000  0.4910840000000  0.5465890000000 1.0
C      1  0.4090030000000  0.4551380000000  0.5562370000000 1.0
C      1  0.5376200000000  0.5499350000000  0.4015510000000 1.0
C      1  0.3834960000000  0.4685880000000  0.5116300000000 1.0
C      1  0.4999270000000  0.4974700000000  0.6061920000000 1.0
C      1  0.5773850000000  0.5348190000000  0.5554050000000 1.0
C      1  0.4448950000000  0.5438740000000  0.4829360000000 1.0
C      1  0.4576010000000  0.4409860000000  0.5738900000000 1.0
C      1  0.4362610000000  0.5715780000000  0.4399410000000 1.0
C      1  0.5555710000000  0.5501740000000  0.5938090000000 1.0
C      1  0.4819440000000  0.5148390000000  0.5578050000000 1.0
C      1  0.4570400000000  0.5551200000000  0.5631960000000 1.0
C      1  0.4806540000000  0.5501100000000  0.6068110000000 1.0
C      1  0.5041000000000  0.6034620000000  0.5404420000000 1.0
C      1  0.5932910000000  0.5560400000000  0.5433900000000 1.0
C      1  0.4470940000000  0.4528200000000  0.5041620000000 1.0
C      1  0.5652020000000  0.5658760000000  0.5082960000000 1.0
C      1  0.6023780000000  0.4951020000000  0.4481440000000 1.0
C      1  0.5508910000000  0.4904150000000  0.5895130000000 1.0
C      1  0.3880920000000  0.4447810000000  0.4933030000000 1.0
C      1  0.5609540000000  0.4062000000000  0.5205880000000 1.0
C      1  0.5088860000000  0.5253760000000  0.4418170000000 1.0
C      1  0.4380780000000  0.4168710000000  0.4664150000000 1.0
C      1  0.5311770000000  0.5358400000000  0.6052130000000 1.0
C      1  0.5384480000000  0.5694400000000  0.4236420000000 1.0
C      1  0.5181630000000  0.3890470000000  0.5278490000000 1.0
C      1  0.4613100000000  0.5132160000000  0.4155300000000 1.0
C      1  0.3826540000000  0.5232590000000  0.5013290000000 1.0
C      1  0.4882840000000  0.4239040000000  0.5117930000000 1.0
C      1  0.5876280000000  0.4197600000000  0.5267790000000 1.0
C      1  0.4765670000000  0.4904710000000  0.3845180000000 1.0
C      1  0.4988670000000  0.5714050000000  0.4030690000000 1.0
C      1  0.5072610000000  0.5315650000000  0.4911330000000 1.0
C      1  0.4442190000000  0.4090330000000  0.5327520000000 1.0
C      1  0.4160260000000  0.5529680000000  0.4743180000000 1.0
C      1  0.5627980000000  0.5730440000000  0.4399590000000 1.0
C      1  0.4071300000000  0.4526160000000  0.4458230000000 1.0
C      1  0.5824760000000  0.5157130000000  0.4393330000000 1.0
C      1  0.5843150000000  0.5093670000000  0.5416370000000 1.0
C      1  0.5300000000000  0.5949820000000  0.5291420000000 1.0
C      1  0.4785540000000  0.4949740000000  0.4823780000000 1.0
C      1  0.4284680000000  0.4353180000000  0.5221890000000 1.0
C      1  0.4547680000000  0.4376470000000  0.4798060000000 1.0
C      1  0.5471140000000  0.4009360000000  0.4948130000000 1.0
C      1  0.4569950000000  0.3959570000000  0.4578200000000 1.0
C      1  0.4144320000000  0.5377960000000  0.5413940000000 1.0
C      1  0.5867610000000  0.5484680000000  0.4965540000000 1.0
C      1  0.5761520000000  0.5783180000000  0.5330480000000 1.0
C      1  0.5850220000000  0.5537930000000  0.4431000000000 1.0
C      1  0.5037440000000  0.3884910000000  0.4711880000000 1.0
C      1  0.5704940000000  0.4577330000000  0.4296260000000 1.0
C      1  0.4743620000000  0.4300180000000  0.4157070000000 1.0
C      1  0.4808510000000  0.4516820000000  0.5575870000000 1.0
C      1  0.4359250000000  0.5864620000000  0.5332890000000 1.0
C      1  0.4787540000000  0.5183610000000  0.6122970000000 1.0
C      1  0.6058550000000  0.5437850000000  0.5188490000000 1.0
C      1  0.4273360000000  0.4309130000000  0.4411420000000 1.0
C      1  0.5077880000000  0.5510790000000  0.5933710000000 1.0
C      1  0.5181010000000  0.6056420000000  0.4817740000000 1.0
C      1  0.4409490000000  0.5894800000000  0.5027110000000 1.0
C      1  0.5810960000000  0.4213930000000  0.4670750000000 1.0
C      1  0.5766500000000  0.5322510000000  0.5844300000000 1.0
C      1  0.5132890000000  0.4562110000000  0.4743000000000 1.0
C      1  0.4497870000000  0.5124540000000  0.4445770000000 1.0
C      1  0.5071160000000  0.4371200000000  0.5675180000000 1.0
C      1  0.5631040000000  0.4668010000000  0.5293880000000 1.0
C      1  0.5478970000000  0.4880370000000  0.4834340000000 1.0
C      1  0.4854400000000  0.5212710000000  0.5280440000000 1.0
C      1  0.5470410000000  0.4363190000000  0.4325480000000 1.0
C      1  0.5279320000000  0.5064270000000  0.6029080000000 1.0
C      1  0.4157770000000  0.4768520000000  0.4316580000000 1.0
C      1  0.4879540000000  0.4528870000000  0.4032130000000 1.0
C      1  0.4204030000000  0.4042630000000  0.4889030000000 1.0
C      1  0.4543310000000  0.5270730000000  0.5670160000000 1.0
C      1  0.4159520000000  0.4751000000000  0.5742850000000 1.0
C      1  0.5123380000000  0.5710010000000  0.4651650000000 1.0
C      1  0.4050900000000  0.4712870000000  0.5314720000000 1.0
C      1  0.6201730000000  0.4998120000000  0.4960050000000 1.0
C      1  0.5063300000000  0.4771320000000  0.5185180000000 1.0
C      1  0.4921190000000  0.4103280000000  0.4275300000000 1.0
C      1  0.5644900000000  0.4777870000000  0.4079140000000 1.0
C      1  0.4527860000000  0.5067320000000  0.6059330000000 1.0
C      1  0.5373170000000  0.6028380000000  0.5021390000000 1.0
C      1  0.4229950000000  0.5249260000000  0.4422470000000 1.0
C      1  0.4036640000000  0.4595500000000  0.4734070000000 1.0
C      1  0.6086230000000  0.4673450000000  0.5472050000000 1.0
C      1  0.5627870000000  0.4557040000000  0.5905480000000 1.0
C      1  0.5287830000000  0.4793990000000  0.4327340000000 1.0
C      1  0.4591930000000  0.5674690000000  0.4935240000000 1.0
C      1  0.5067830000000  0.5640050000000  0.5087980000000 1.0
C      1  0.4407270000000  0.3916100000000  0.5078320000000 1.0
C      1  0.5368490000000  0.4746670000000  0.3951770000000 1.0
C      1  0.3849410000000  0.5092530000000  0.4581930000000 1.0
C      1  0.4783750000000  0.6247700000000  0.4785370000000 1.0
C      1  0.5211420000000  0.3880850000000  0.4958990000000 1.0
C      1  0.5338270000000  0.5420870000000  0.5512510000000 1.0
C      1  0.5378430000000  0.5496110000000  0.5188660000000 1.0
C      1  0.4694560000000  0.5954220000000  0.5770820000000 1.0
C      1  0.4493260000000  0.4920240000000  0.3970560000000 1.0
C      1  0.4214770000000  0.5023810000000  0.5031810000000 1.0
C      1  0.6196530000000  0.5032480000000  0.4684710000000 1.0
C      1  0.4381260000000  0.4697010000000  0.4140880000000 1.0
C      1  0.4773040000000  0.6121420000000  0.5287890000000 1.0
C      1  0.4856970000000  0.5507850000000  0.5244900000000 1.0
C      1  0.4586910000000  0.4862210000000  0.5846010000000 1.0
C      1  0.5182420000000  0.4262930000000  0.5163700000000 1.0
C      1  0.5156980000000  0.4824170000000  0.5469830000000 1.0
C      1  0.6113020000000  0.4970540000000  0.5490780000000 1.0
C      1  0.5227810000000  0.4541860000000  0.5019030000000 1.0
C      1  0.5578350000000  0.4063240000000  0.4687100000000 1.0
C      1  0.5950620000000  0.5535580000000  0.4699020000000 1.0
C      1  0.4808360000000  0.4767360000000  0.4228410000000 1.0
C      1  0.4605440000000  0.5825630000000  0.4293190000000 1.0
C      1  0.4713640000000  0.5633880000000  0.4107150000000 1.0
C      1  0.4950100000000  0.3944210000000  0.5483200000000 1.0
C      1  0.4590140000000  0.5689360000000  0.5907110000000 1.0
C      1  0.5546370000000  0.4419660000000  0.5445760000000 1.0
C      1  0.4154450000000  0.5000000000000  0.5333450000000 1.0
C      1  0.5743490000000  0.5060180000000  0.5941900000000 1.0
C      1  0.5177190000000  0.5783520000000  0.5830290000000 1.0
C      1  0.4177100000000  0.5869700000000  0.4558540000000 1.0
C      1  0.5449640000000  0.3927800000000  0.5412590000000 1.0
C      1  0.5043220000000  0.5391040000000  0.5649620000000 1.0
C      1  0.4916420000000  0.5535490000000  0.4427520000000 1.0
C      1  0.5658200000000  0.4324620000000  0.5720390000000 1.0
C      1  0.5923180000000  0.4337080000000  0.5539210000000 1.0
C      1  0.5187880000000  0.5055970000000  0.5034680000000 1.0
C      1  0.5768620000000  0.4427350000000  0.4851550000000 1.0
C      1  0.4745720000000  0.4134500000000  0.5366380000000 1.0
C      1  0.4277630000000  0.5481500000000  0.4239180000000 1.0
C      1  0.5171650000000  0.4494660000000  0.4022080000000 1.0
C      1  0.5123710000000  0.5855740000000  0.4249290000000 1.0
C      1  0.5025240000000  0.4816030000000  0.4701440000000 1.0
C      1  0.4032840000000  0.5040080000000  0.4365390000000 1.0
C      1  0.5520230000000  0.4625650000000  0.4994750000000 1.0
C      1  0.4479520000000  0.4424540000000  0.4228890000000 1.0
C      1  0.4654780000000  0.6105770000000  0.5011130000000 1.0
C      1  0.4994900000000  0.5060240000000  0.3954430000000 1.0
C      1  0.5602690000000  0.5885480000000  0.4627530000000 1.0
C      1  0.4741450000000  0.4644500000000  0.4503960000000 1.0
C      1  0.4754920000000  0.3811800000000  0.4730820000000 1.0
C      1  0.5120430000000  0.4013150000000  0.4462930000000 1.0
C      1  0.4950500000000  0.4399470000000  0.4583360000000 1.0
C      1  0.5392240000000  0.4568770000000  0.6053120000000 1.0
C      1  0.5431900000000  0.5667520000000  0.5695100000000 1.0
C      1  0.4712380000000  0.6215190000000  0.4518570000000 1.0
C      1  0.4764330000000  0.4627610000000  0.5273090000000 1.0
C      1  0.4960380000000  0.5869830000000  0.5639530000000 1.0
C      1  0.4926050000000  0.4676960000000  0.6054000000000 1.0
C      1  0.5841060000000  0.4724230000000  0.4532890000000 1.0
C      1  0.5589850000000  0.5887610000000  0.4905800000000 1.0
C      1  0.4152860000000  0.5841560000000  0.4849300000000 1.0
C      1  0.4816420000000  0.5956220000000  0.4452930000000 1.0
C      1  0.5394160000000  0.4124120000000  0.4475140000000 1.0
C      1  0.5928850000000  0.4919690000000  0.5047090000000 1.0
C      1  0.5279850000000  0.5469780000000  0.4758560000000 1.0
C      1  0.4307110000000  0.4336130000000  0.5595970000000 1.0
C      1  0.4565510000000  0.6029780000000  0.5484790000000 1.0
C      1  0.5410250000000  0.4052130000000  0.5674240000000 1.0
C      1  0.5053960000000  0.6303080000000  0.4814700000000 1.0
C      1  0.4693100000000  0.3910250000000  0.4993700000000 1.0
C      1  0.5252800000000  0.4394600000000  0.5436560000000 1.0
C      1  0.4517010000000  0.5406800000000  0.4067420000000 1.0
END
