TITL C-950531-5884-365 -4.28882840038586e-06 125000 -1161.04042797127 0 0 183 (C1) n - 1
REM
REM in /home/bkarasulu/work/CARBON/AIRSS/Generating-Clusters/EDIP-Nigel-Params/with-SteepDescent/Only-C1/SD-CG/HFTN-CG
REM
REM
REM
REM
REM
REM ./C.cell (11c1c37f851c82e70ff6c80c92926a4b)
REM
REM compiler GCC version 9.2.1 20190827 (Red Hat 9.2.1-1)
REM options -cpp -mtune=generic -march=x86-64 -g -O0 -fpre-include=/usr/include/finclude/math-vector-fortran.h
REM seed 276182281 -31353397 -26256445 -820376539 252832949 1056472070 -1307256136 -274733711 -613274166 282257211 -1860073665 -348464805 -402745623 1196042001 966311244 1189283745 -1885465653 1992484566 558472035 610048439 1990429635 -219761981 -1867132340 2038740468 -1052893440 -93520103 1839943971 -651623509 285253325 -422645295 1577629561 -1396311253 -392247589
REM
CELL 1.54180   50.00000   50.00000   50.00000   90.00000   90.00000   90.00000
LATT -1
SFAC C  
C      1  0.5776090000000  0.5813820000000  0.4889680000000 1.0
C      1  0.5174820000000  0.4724580000000  0.4986980000000 1.0
C      1  0.5614640000000  0.4473820000000  0.4628460000000 1.0
C      1  0.5428230000000  0.4047050000000  0.4644630000000 1.0
C      1  0.5431400000000  0.5200010000000  0.4451270000000 1.0
C      1  0.5583800000000  0.4533020000000  0.5336730000000 1.0
C      1  0.5166820000000  0.5316520000000  0.4362420000000 1.0
C      1  0.4011250000000  0.4920820000000  0.4756400000000 1.0
C      1  0.4499320000000  0.5762590000000  0.4502610000000 1.0
C      1  0.4970730000000  0.5465140000000  0.5865780000000 1.0
C      1  0.5021060000000  0.5232610000000  0.4793780000000 1.0
C      1  0.4643730000000  0.5636340000000  0.4281810000000 1.0
C      1  0.4336480000000  0.5790560000000  0.4911720000000 1.0
C      1  0.4075720000000  0.4647550000000  0.5619830000000 1.0
C      1  0.5558860000000  0.4831930000000  0.5293960000000 1.0
C      1  0.4501510000000  0.5439170000000  0.4117880000000 1.0
C      1  0.4836190000000  0.5621220000000  0.5206200000000 1.0
C      1  0.5750110000000  0.4473060000000  0.5579690000000 1.0
C      1  0.4981990000000  0.4012060000000  0.5433430000000 1.0
C      1  0.4876940000000  0.4844260000000  0.6131120000000 1.0
C      1  0.4731620000000  0.5489990000000  0.5442960000000 1.0
C      1  0.5377730000000  0.5310030000000  0.3863760000000 1.0
C      1  0.5150450000000  0.5557600000000  0.4183590000000 1.0
C      1  0.5491170000000  0.5979240000000  0.4594800000000 1.0
C      1  0.4919930000000  0.5742900000000  0.4267410000000 1.0
C      1  0.4745500000000  0.5257690000000  0.5857900000000 1.0
C      1  0.4919990000000  0.4387990000000  0.5954220000000 1.0
C      1  0.4742230000000  0.4059430000000  0.5612900000000 1.0
C      1  0.4715650000000  0.4344350000000  0.5057340000000 1.0
C      1  0.5599260000000  0.5627310000000  0.5568350000000 1.0
C      1  0.4656040000000  0.4612140000000  0.4935870000000 1.0
C      1  0.5749180000000  0.5175140000000  0.5618040000000 1.0
C      1  0.5287880000000  0.4433250000000  0.5342880000000 1.0
C      1  0.5862010000000  0.5603780000000  0.4512220000000 1.0
C      1  0.4304020000000  0.4911000000000  0.4293950000000 1.0
C      1  0.4143480000000  0.5153000000000  0.4338340000000 1.0
C      1  0.5742530000000  0.5410270000000  0.5434510000000 1.0
C      1  0.5338640000000  0.5015140000000  0.3882850000000 1.0
C      1  0.5990430000000  0.5732490000000  0.4725240000000 1.0
C      1  0.6117760000000  0.4904420000000  0.5009430000000 1.0
C      1  0.4660900000000  0.5157160000000  0.4518460000000 1.0
C      1  0.4455700000000  0.4613240000000  0.5952080000000 1.0
C      1  0.4266060000000  0.5643310000000  0.4676140000000 1.0
C      1  0.4604730000000  0.4097700000000  0.4570130000000 1.0
C      1  0.5180800000000  0.5971660000000  0.5499400000000 1.0
C      1  0.4260610000000  0.5778720000000  0.5185020000000 1.0
C      1  0.5286550000000  0.5184420000000  0.6055690000000 1.0
C      1  0.5037050000000  0.6049360000000  0.5249790000000 1.0
C      1  0.4540460000000  0.5307270000000  0.4757780000000 1.0
C      1  0.5186880000000  0.5232770000000  0.5228750000000 1.0
C      1  0.5532190000000  0.4556080000000  0.4049830000000 1.0
C      1  0.4292290000000  0.4227190000000  0.5221300000000 1.0
C      1  0.5293460000000  0.5201320000000  0.4932020000000 1.0
C      1  0.4749060000000  0.4613520000000  0.6006170000000 1.0
C      1  0.4485160000000  0.4945660000000  0.4045380000000 1.0
C      1  0.5557550000000  0.4840920000000  0.3971870000000 1.0
C      1  0.4329690000000  0.4493420000000  0.5687270000000 1.0
C      1  0.4570980000000  0.5745380000000  0.5836440000000 1.0
C      1  0.5228890000000  0.4443330000000  0.5031020000000 1.0
C      1  0.4341360000000  0.4884240000000  0.5937040000000 1.0
C      1  0.5133960000000  0.4412230000000  0.4539140000000 1.0
C      1  0.5992880000000  0.4729900000000  0.4813090000000 1.0
C      1  0.5579920000000  0.5437060000000  0.4052900000000 1.0
C      1  0.4388120000000  0.4878280000000  0.5351070000000 1.0
C      1  0.6094770000000  0.5139250000000  0.4588000000000 1.0
C      1  0.5676470000000  0.4015030000000  0.4508670000000 1.0
C      1  0.4408500000000  0.4088800000000  0.4763640000000 1.0
C      1  0.3830490000000  0.4884800000000  0.5260790000000 1.0
C      1  0.4842400000000  0.5046030000000  0.4954520000000 1.0
C      1  0.5209900000000  0.5958740000000  0.4710190000000 1.0
C      1  0.4661110000000  0.5582260000000  0.4860520000000 1.0
C      1  0.5136170000000  0.5536100000000  0.5267340000000 1.0
C      1  0.4906040000000  0.4754280000000  0.4862600000000 1.0
C      1  0.5102620000000  0.5433660000000  0.3905150000000 1.0
C      1  0.5532630000000  0.5274920000000  0.5912680000000 1.0
C      1  0.5515000000000  0.4987600000000  0.5552400000000 1.0
C      1  0.4057370000000  0.5168810000000  0.4610490000000 1.0
C      1  0.4443990000000  0.4274560000000  0.5480390000000 1.0
C      1  0.4903000000000  0.5204120000000  0.3889530000000 1.0
C      1  0.4120280000000  0.4453790000000  0.5108870000000 1.0
C      1  0.5103460000000  0.4888220000000  0.4471020000000 1.0
C      1  0.5313640000000  0.4695630000000  0.5951190000000 1.0
C      1  0.4640730000000  0.5198940000000  0.4026800000000 1.0
C      1  0.5609670000000  0.4299180000000  0.5748540000000 1.0
C      1  0.5765710000000  0.4547380000000  0.4868600000000 1.0
C      1  0.4344020000000  0.4429680000000  0.4304520000000 1.0
C      1  0.4802970000000  0.4153640000000  0.5867970000000 1.0
C      1  0.4760260000000  0.5040980000000  0.5651350000000 1.0
C      1  0.4063300000000  0.5428480000000  0.4746000000000 1.0
C      1  0.4687450000000  0.4656600000000  0.4409460000000 1.0
C      1  0.4114820000000  0.5533300000000  0.5248520000000 1.0
C      1  0.5840870000000  0.5307850000000  0.4571180000000 1.0
C      1  0.5117230000000  0.5404270000000  0.6109350000000 1.0
C      1  0.4724100000000  0.4356780000000  0.5364710000000 1.0
C      1  0.5382880000000  0.4920210000000  0.4567040000000 1.0
C      1  0.4866970000000  0.5748860000000  0.5873760000000 1.0
C      1  0.4954890000000  0.4664950000000  0.4564230000000 1.0
C      1  0.5763400000000  0.4976870000000  0.4128540000000 1.0
C      1  0.6029820000000  0.4848350000000  0.4544070000000 1.0
C      1  0.4477480000000  0.5331440000000  0.5956950000000 1.0
C      1  0.4929470000000  0.5100410000000  0.5221610000000 1.0
C      1  0.5897760000000  0.5448560000000  0.5203780000000 1.0
C      1  0.5353380000000  0.5721090000000  0.5143450000000 1.0
C      1  0.4634220000000  0.3881820000000  0.5128360000000 1.0
C      1  0.5130200000000  0.4929200000000  0.5973800000000 1.0
C      1  0.4953240000000  0.5514110000000  0.4802490000000 1.0
C      1  0.4243400000000  0.5380810000000  0.4211410000000 1.0
C      1  0.3872100000000  0.4944390000000  0.4994110000000 1.0
C      1  0.4761570000000  0.5923170000000  0.5196530000000 1.0
C      1  0.4972020000000  0.5148630000000  0.4510600000000 1.0
C      1  0.5036140000000  0.4178930000000  0.4399510000000 1.0
C      1  0.5827070000000  0.4766150000000  0.4326640000000 1.0
C      1  0.4430380000000  0.4810220000000  0.4863390000000 1.0
C      1  0.4501740000000  0.4121930000000  0.5031490000000 1.0
C      1  0.4541220000000  0.5091530000000  0.4961530000000 1.0
C      1  0.5441740000000  0.5825520000000  0.5407630000000 1.0
C      1  0.5081580000000  0.4643130000000  0.5548700000000 1.0
C      1  0.3993940000000  0.5427890000000  0.5018250000000 1.0
C      1  0.5889580000000  0.4706480000000  0.5695720000000 1.0
C      1  0.5671390000000  0.5231300000000  0.4260150000000 1.0
C      1  0.3835210000000  0.5099050000000  0.5439040000000 1.0
C      1  0.6188240000000  0.5158370000000  0.4874140000000 1.0
C      1  0.4451140000000  0.5597650000000  0.6049560000000 1.0
C      1  0.4119620000000  0.4915980000000  0.5747890000000 1.0
C      1  0.5753370000000  0.4282510000000  0.4452350000000 1.0
C      1  0.4711400000000  0.6005760000000  0.4916910000000 1.0
C      1  0.4047980000000  0.5174500000000  0.5603700000000 1.0
C      1  0.3938390000000  0.4624640000000  0.5352750000000 1.0
C      1  0.4724900000000  0.5200210000000  0.5400960000000 1.0
C      1  0.5190350000000  0.5442150000000  0.5637870000000 1.0
C      1  0.5305290000000  0.4416710000000  0.3965560000000 1.0
C      1  0.4260890000000  0.5364470000000  0.5449870000000 1.0
C      1  0.5668390000000  0.6056310000000  0.4796700000000 1.0
C      1  0.4230690000000  0.4760670000000  0.5111410000000 1.0
C      1  0.5987100000000  0.4924800000000  0.5264450000000 1.0
C      1  0.4582110000000  0.4271450000000  0.4336230000000 1.0
C      1  0.4073160000000  0.4657980000000  0.4651080000000 1.0
C      1  0.5254280000000  0.4148410000000  0.5464560000000 1.0
C      1  0.5966120000000  0.4957570000000  0.5554030000000 1.0
C      1  0.5362940000000  0.4339880000000  0.4707430000000 1.0
C      1  0.5693680000000  0.4384360000000  0.5102770000000 1.0
C      1  0.4799220000000  0.4612480000000  0.5462370000000 1.0
C      1  0.4862120000000  0.4307690000000  0.4203650000000 1.0
C      1  0.4648510000000  0.4709860000000  0.4039960000000 1.0
C      1  0.5764740000000  0.4424650000000  0.4188970000000 1.0
C      1  0.5529250000000  0.4794560000000  0.5785540000000 1.0
C      1  0.4455940000000  0.5153190000000  0.5277650000000 1.0
C      1  0.5383540000000  0.3956140000000  0.4923900000000 1.0
C      1  0.4427150000000  0.5094060000000  0.6119580000000 1.0
C      1  0.4574630000000  0.4776920000000  0.5576150000000 1.0
C      1  0.4986250000000  0.4271110000000  0.4933450000000 1.0
C      1  0.5437840000000  0.5519010000000  0.5783200000000 1.0
C      1  0.4680120000000  0.5021650000000  0.6225430000000 1.0
C      1  0.5030900000000  0.4457770000000  0.4004130000000 1.0
C      1  0.4891650000000  0.4049280000000  0.4625670000000 1.0
C      1  0.5385110000000  0.4924520000000  0.4876870000000 1.0
C      1  0.4517290000000  0.4890080000000  0.4519400000000 1.0
C      1  0.5681030000000  0.4946100000000  0.5023940000000 1.0
C      1  0.4911320000000  0.3884600000000  0.5177990000000 1.0
C      1  0.5219390000000  0.5960890000000  0.5024060000000 1.0
C      1  0.5571590000000  0.5708760000000  0.4469710000000 1.0
C      1  0.5069610000000  0.3974360000000  0.4941210000000 1.0
C      1  0.5445110000000  0.5664300000000  0.4191990000000 1.0
C      1  0.6086990000000  0.5379320000000  0.5019230000000 1.0
C      1  0.4176730000000  0.4645130000000  0.4374440000000 1.0
C      1  0.4478890000000  0.5858090000000  0.5365510000000 1.0
C      1  0.5551080000000  0.4142190000000  0.5060460000000 1.0
C      1  0.5565350000000  0.4709640000000  0.4464590000000 1.0
C      1  0.4495710000000  0.5623930000000  0.5555440000000 1.0
C      1  0.5020200000000  0.5929660000000  0.5725490000000 1.0
C      1  0.4941200000000  0.5960950000000  0.4480970000000 1.0
C      1  0.5163960000000  0.4474960000000  0.5808280000000 1.0
C      1  0.5701910000000  0.5271360000000  0.4881410000000 1.0
C      1  0.5569140000000  0.5593730000000  0.4942080000000 1.0
C      1  0.5246500000000  0.5141510000000  0.5534590000000 1.0
C      1  0.5052670000000  0.4945020000000  0.5669480000000 1.0
C      1  0.5336220000000  0.4235870000000  0.5738210000000 1.0
C      1  0.5052330000000  0.4954720000000  0.3874710000000 1.0
C      1  0.4909220000000  0.4704080000000  0.3923150000000 1.0
C      1  0.5419550000000  0.5525030000000  0.4660810000000 1.0
C      1  0.5141990000000  0.5660180000000  0.4638010000000 1.0
C      1  0.4039030000000  0.4437160000000  0.4826230000000 1.0
C      1  0.4686780000000  0.5954990000000  0.4635410000000 1.0
END
