TITL C-951344-124-562 -6.43025467214171e-06 125000 -903.726443656477 0 0 146 (C1) n - 1
REM
REM in /home/bkarasulu/work/CARBON/AIRSS/Generating-Clusters/EDIP-Nigel-Params/with-SteepDescent/Only-C1/SD-CG/HFTN-CG
REM
REM
REM
REM
REM
REM ./C.cell (11c1c37f851c82e70ff6c80c92926a4b)
REM
REM compiler GCC version 9.2.1 20190827 (Red Hat 9.2.1-1)
REM options -cpp -mtune=generic -march=x86-64 -g -O0 -fpre-include=/usr/include/finclude/math-vector-fortran.h
REM seed -1503286158 -284477746 -50530138 -973468226 1233891834 -1808618923 -711437406 1091411305 -2070763045 -1846032566 346771406 1623374245 399994459 -633435266 -1811600577 -2124683798 1219147527 947447309 -205720280 -1251385436 -2030098573 -1105971540 -704889350 875978625 -275536305 -1817222492 -1047464974 1750215536 665714471 -659653843 -1739815614 1005546233 -817627590
REM
CELL 1.54180   50.00000   50.00000   50.00000   90.00000   90.00000   90.00000
LATT -1
SFAC C  
C      1  0.5440450000000  0.4228870000000  0.5070260000000 1.0
C      1  0.4702440000000  0.4843830000000  0.4443480000000 1.0
C      1  0.4899170000000  0.5415960000000  0.4950760000000 1.0
C      1  0.4311940000000  0.5075430000000  0.5510650000000 1.0
C      1  0.5630460000000  0.4980820000000  0.5769170000000 1.0
C      1  0.3951800000000  0.4911690000000  0.4634430000000 1.0
C      1  0.5223310000000  0.5299030000000  0.5751450000000 1.0
C      1  0.4032940000000  0.5404770000000  0.4773630000000 1.0
C      1  0.4065420000000  0.5393560000000  0.4494690000000 1.0
C      1  0.5400660000000  0.4394500000000  0.4254900000000 1.0
C      1  0.5721550000000  0.4715210000000  0.4439900000000 1.0
C      1  0.4170930000000  0.4919470000000  0.4433850000000 1.0
C      1  0.5003080000000  0.5115290000000  0.4295690000000 1.0
C      1  0.4797610000000  0.5700620000000  0.4348980000000 1.0
C      1  0.5897430000000  0.4591250000000  0.4912300000000 1.0
C      1  0.4729550000000  0.4576580000000  0.6007860000000 1.0
C      1  0.4625810000000  0.5507970000000  0.4501960000000 1.0
C      1  0.5485680000000  0.5812200000000  0.4655930000000 1.0
C      1  0.4006080000000  0.5000010000000  0.5113910000000 1.0
C      1  0.4623860000000  0.5702260000000  0.5229140000000 1.0
C      1  0.5123690000000  0.4596940000000  0.3952520000000 1.0
C      1  0.4845510000000  0.4554680000000  0.4747120000000 1.0
C      1  0.5502990000000  0.4189090000000  0.4417250000000 1.0
C      1  0.4251230000000  0.4301910000000  0.5097060000000 1.0
C      1  0.5772380000000  0.5200030000000  0.5625880000000 1.0
C      1  0.5263960000000  0.3992600000000  0.4729950000000 1.0
C      1  0.4227790000000  0.5207850000000  0.4357510000000 1.0
C      1  0.4409120000000  0.5286530000000  0.5052020000000 1.0
C      1  0.4650410000000  0.4642870000000  0.4117580000000 1.0
C      1  0.4705360000000  0.5157870000000  0.4163010000000 1.0
C      1  0.5166640000000  0.5612510000000  0.5335750000000 1.0
C      1  0.5604420000000  0.4823110000000  0.5198840000000 1.0
C      1  0.4561210000000  0.4575010000000  0.4847930000000 1.0
C      1  0.4525000000000  0.5384070000000  0.5834720000000 1.0
C      1  0.5769550000000  0.4736270000000  0.5414300000000 1.0
C      1  0.4106730000000  0.4513100000000  0.5224030000000 1.0
C      1  0.5083470000000  0.5907630000000  0.4983340000000 1.0
C      1  0.5722580000000  0.5627150000000  0.4635180000000 1.0
C      1  0.5692500000000  0.4220570000000  0.4631340000000 1.0
C      1  0.5999790000000  0.5069610000000  0.5081240000000 1.0
C      1  0.4149770000000  0.4467370000000  0.4633990000000 1.0
C      1  0.4784330000000  0.5236080000000  0.5435070000000 1.0
C      1  0.5520800000000  0.4388260000000  0.5540480000000 1.0
C      1  0.5108720000000  0.4318800000000  0.5053530000000 1.0
C      1  0.4948780000000  0.5043880000000  0.6135780000000 1.0
C      1  0.5215220000000  0.4118490000000  0.5365610000000 1.0
C      1  0.5793680000000  0.4867030000000  0.4979100000000 1.0
C      1  0.5649350000000  0.4295060000000  0.5278510000000 1.0
C      1  0.5796000000000  0.5452060000000  0.4873430000000 1.0
C      1  0.4727880000000  0.5718920000000  0.5512920000000 1.0
C      1  0.4993600000000  0.4331480000000  0.4629520000000 1.0
C      1  0.5422450000000  0.5123950000000  0.4514330000000 1.0
C      1  0.4191240000000  0.5593110000000  0.5437770000000 1.0
C      1  0.4444520000000  0.4794310000000  0.5006440000000 1.0
C      1  0.4514550000000  0.4371090000000  0.5755060000000 1.0
C      1  0.5086600000000  0.5109880000000  0.5483180000000 1.0
C      1  0.5016180000000  0.3958300000000  0.4860720000000 1.0
C      1  0.5547150000000  0.4975170000000  0.4751070000000 1.0
C      1  0.5239890000000  0.4318010000000  0.5577060000000 1.0
C      1  0.4911090000000  0.4234870000000  0.4364510000000 1.0
C      1  0.5492300000000  0.6102370000000  0.5212520000000 1.0
C      1  0.4596770000000  0.5010820000000  0.5447160000000 1.0
C      1  0.4544630000000  0.4352860000000  0.5474890000000 1.0
C      1  0.5832340000000  0.4989690000000  0.4415740000000 1.0
C      1  0.5866710000000  0.4410660000000  0.5132370000000 1.0
C      1  0.4837920000000  0.5916620000000  0.4535260000000 1.0
C      1  0.4768880000000  0.5895790000000  0.5022490000000 1.0
C      1  0.5495630000000  0.4660750000000  0.4261540000000 1.0
C      1  0.4266880000000  0.4627430000000  0.4419550000000 1.0
C      1  0.4170010000000  0.4837650000000  0.5640240000000 1.0
C      1  0.5632320000000  0.5478920000000  0.5320210000000 1.0
C      1  0.5402110000000  0.5293150000000  0.4105290000000 1.0
C      1  0.4581780000000  0.4911740000000  0.4077120000000 1.0
C      1  0.5007960000000  0.5610010000000  0.4187550000000 1.0
C      1  0.5048650000000  0.5177680000000  0.5009160000000 1.0
C      1  0.4747130000000  0.5450430000000  0.5654560000000 1.0
C      1  0.5333660000000  0.5024830000000  0.5841730000000 1.0
C      1  0.4698540000000  0.5061220000000  0.4719940000000 1.0
C      1  0.4997680000000  0.4858930000000  0.4460650000000 1.0
C      1  0.4494000000000  0.4487320000000  0.4296160000000 1.0
C      1  0.5540220000000  0.5288290000000  0.4908830000000 1.0
C      1  0.5334360000000  0.5488390000000  0.4791910000000 1.0
C      1  0.4546200000000  0.4153710000000  0.4705110000000 1.0
C      1  0.5206330000000  0.5069470000000  0.4064890000000 1.0
C      1  0.4618670000000  0.4235760000000  0.4409080000000 1.0
C      1  0.4643160000000  0.5893150000000  0.4759320000000 1.0
C      1  0.4457690000000  0.5055730000000  0.4870110000000 1.0
C      1  0.5316860000000  0.4784010000000  0.4051540000000 1.0
C      1  0.4731100000000  0.4171140000000  0.5195750000000 1.0
C      1  0.3985430000000  0.4658290000000  0.4784530000000 1.0
C      1  0.5070470000000  0.6076760000000  0.4528340000000 1.0
C      1  0.5736880000000  0.5465160000000  0.4407020000000 1.0
C      1  0.4798380000000  0.5338960000000  0.4676100000000 1.0
C      1  0.5385190000000  0.4663230000000  0.5077430000000 1.0
C      1  0.4500820000000  0.5315870000000  0.4308640000000 1.0
C      1  0.5630840000000  0.5209650000000  0.4318570000000 1.0
C      1  0.4951220000000  0.4043350000000  0.5312590000000 1.0
C      1  0.5702690000000  0.5441230000000  0.5749610000000 1.0
C      1  0.4762370000000  0.4085690000000  0.4911750000000 1.0
C      1  0.5832440000000  0.5612440000000  0.5124060000000 1.0
C      1  0.6005750000000  0.5089180000000  0.4611170000000 1.0
C      1  0.5529740000000  0.4057210000000  0.4841610000000 1.0
C      1  0.4966330000000  0.5419970000000  0.5857820000000 1.0
C      1  0.5492380000000  0.5249860000000  0.5192880000000 1.0
C      1  0.5235300000000  0.5966270000000  0.4724290000000 1.0
C      1  0.4132680000000  0.4608980000000  0.5482730000000 1.0
C      1  0.5646780000000  0.4484690000000  0.5778100000000 1.0
C      1  0.4988950000000  0.5791840000000  0.5473690000000 1.0
C      1  0.4816530000000  0.5273270000000  0.6057590000000 1.0
C      1  0.5494260000000  0.5952100000000  0.5444900000000 1.0
C      1  0.4883410000000  0.4947910000000  0.4953650000000 1.0
C      1  0.4007950000000  0.5403930000000  0.5346050000000 1.0
C      1  0.5437130000000  0.5521590000000  0.5716540000000 1.0
C      1  0.4760740000000  0.4530020000000  0.5378480000000 1.0
C      1  0.5137210000000  0.5615050000000  0.5017890000000 1.0
C      1  0.5433090000000  0.5661430000000  0.5454470000000 1.0
C      1  0.4361630000000  0.4358230000000  0.4825320000000 1.0
C      1  0.5115640000000  0.4791940000000  0.5450030000000 1.0
C      1  0.5242910000000  0.5488520000000  0.4280510000000 1.0
C      1  0.4296600000000  0.5330010000000  0.5673840000000 1.0
C      1  0.5973360000000  0.5210610000000  0.5366430000000 1.0
C      1  0.6018280000000  0.5245100000000  0.4843240000000 1.0
C      1  0.4500430000000  0.4634210000000  0.5854020000000 1.0
C      1  0.5204680000000  0.5235710000000  0.5245730000000 1.0
C      1  0.4666250000000  0.4807490000000  0.5238840000000 1.0
C      1  0.5156560000000  0.4368210000000  0.4110270000000 1.0
C      1  0.5754550000000  0.4729580000000  0.5692750000000 1.0
C      1  0.5040560000000  0.4775890000000  0.4748020000000 1.0
C      1  0.4181320000000  0.5187170000000  0.5256800000000 1.0
C      1  0.4988650000000  0.4632650000000  0.5896390000000 1.0
C      1  0.5127720000000  0.4665560000000  0.5187840000000 1.0
C      1  0.3936980000000  0.5126600000000  0.4850460000000 1.0
C      1  0.5767520000000  0.4512910000000  0.4662720000000 1.0
C      1  0.4129160000000  0.4738090000000  0.5039830000000 1.0
C      1  0.5028090000000  0.4546160000000  0.5605400000000 1.0
C      1  0.5285920000000  0.4379270000000  0.4681240000000 1.0
C      1  0.5210080000000  0.5334430000000  0.4540380000000 1.0
C      1  0.4454930000000  0.5666450000000  0.4701810000000 1.0
C      1  0.4321730000000  0.5709920000000  0.5201280000000 1.0
C      1  0.5128550000000  0.4873530000000  0.6003160000000 1.0
C      1  0.5343240000000  0.4696950000000  0.4791570000000 1.0
C      1  0.4261140000000  0.4775020000000  0.5900120000000 1.0
C      1  0.4277030000000  0.5537780000000  0.4921640000000 1.0
C      1  0.4683260000000  0.5405260000000  0.5165530000000 1.0
C      1  0.5219110000000  0.6056890000000  0.5206090000000 1.0
C      1  0.6022410000000  0.5492540000000  0.5310030000000 1.0
END
