TITL C-950534-5965-161 -2.99112028691332e-06 125000 -653.044167584818 0 0 104 (C1) n - 1
REM
REM in /home/bkarasulu/work/CARBON/AIRSS/Generating-Clusters/EDIP-Nigel-Params/with-SteepDescent/Only-C1/SD-CG/HFTN-CG
REM
REM
REM
REM
REM
REM ./C.cell (11c1c37f851c82e70ff6c80c92926a4b)
REM
REM compiler GCC version 9.2.1 20190827 (Red Hat 9.2.1-1)
REM options -cpp -mtune=generic -march=x86-64 -g -O0 -fpre-include=/usr/include/finclude/math-vector-fortran.h
REM seed 831449268 751625289 2081919522 731870202 1319994233 -994105142 -156131937 -871304543 2139917345 -2100813099 -426060729 1205195359 69614015 -1204335424 -292032885 -1386830962 864150947 -770280307 1564794818 1899369255 -974443782 920016048 2145282509 -601804828 -2033597890 1765783777 1957309313 2031568776 -467160152 75481971 20405172 689260646 -2130441284
REM
CELL 1.54180   50.00000   50.00000   50.00000   90.00000   90.00000   90.00000
LATT -1
SFAC C  
C      1  0.4758450000000  0.4228040000000  0.4514470000000 1.0
C      1  0.4811390000000  0.4521600000000  0.5040850000000 1.0
C      1  0.5828980000000  0.4929210000000  0.4907410000000 1.0
C      1  0.5388300000000  0.4177790000000  0.4747200000000 1.0
C      1  0.5229570000000  0.5640810000000  0.5813540000000 1.0
C      1  0.5285090000000  0.4318490000000  0.4485810000000 1.0
C      1  0.5831010000000  0.5247670000000  0.4496980000000 1.0
C      1  0.4921810000000  0.4277740000000  0.4920330000000 1.0
C      1  0.4254410000000  0.4741750000000  0.4579110000000 1.0
C      1  0.5410690000000  0.4721160000000  0.4787400000000 1.0
C      1  0.4695700000000  0.4138990000000  0.4794080000000 1.0
C      1  0.3993330000000  0.5050650000000  0.5053140000000 1.0
C      1  0.5314740000000  0.4525480000000  0.5669400000000 1.0
C      1  0.4985560000000  0.5797260000000  0.5084620000000 1.0
C      1  0.5501170000000  0.4882490000000  0.4382390000000 1.0
C      1  0.5732070000000  0.5425240000000  0.4695480000000 1.0
C      1  0.4427850000000  0.4368310000000  0.5218880000000 1.0
C      1  0.5178670000000  0.4396950000000  0.5459960000000 1.0
C      1  0.4888240000000  0.4373500000000  0.5512050000000 1.0
C      1  0.5782640000000  0.5241540000000  0.5271580000000 1.0
C      1  0.4775340000000  0.4970000000000  0.5307550000000 1.0
C      1  0.4976520000000  0.5370870000000  0.5529070000000 1.0
C      1  0.4634840000000  0.4923510000000  0.5585070000000 1.0
C      1  0.4432620000000  0.5729900000000  0.5228340000000 1.0
C      1  0.4102070000000  0.5320100000000  0.5124410000000 1.0
C      1  0.5705200000000  0.5703670000000  0.5212450000000 1.0
C      1  0.4391450000000  0.4803150000000  0.5023140000000 1.0
C      1  0.5191810000000  0.5593270000000  0.5518980000000 1.0
C      1  0.5633090000000  0.4567650000000  0.4668740000000 1.0
C      1  0.4699060000000  0.4470830000000  0.5306920000000 1.0
C      1  0.5245440000000  0.5316370000000  0.4183840000000 1.0
C      1  0.5290390000000  0.5010980000000  0.4203390000000 1.0
C      1  0.5113050000000  0.4711140000000  0.4740370000000 1.0
C      1  0.5041370000000  0.5191790000000  0.5855910000000 1.0
C      1  0.4197200000000  0.4946710000000  0.4823440000000 1.0
C      1  0.5780090000000  0.5499820000000  0.5390140000000 1.0
C      1  0.5485220000000  0.5564230000000  0.4787990000000 1.0
C      1  0.5869500000000  0.4778120000000  0.4649310000000 1.0
C      1  0.4187270000000  0.5472850000000  0.4889600000000 1.0
C      1  0.5360270000000  0.5050660000000  0.5133820000000 1.0
C      1  0.5518760000000  0.4967800000000  0.5688160000000 1.0
C      1  0.5497150000000  0.4514970000000  0.4404790000000 1.0
C      1  0.4827340000000  0.4487970000000  0.5760880000000 1.0
C      1  0.5449550000000  0.5600160000000  0.5109290000000 1.0
C      1  0.4340270000000  0.5249410000000  0.4754140000000 1.0
C      1  0.5908130000000  0.4999500000000  0.5371830000000 1.0
C      1  0.5521680000000  0.4963690000000  0.4898930000000 1.0
C      1  0.4436230000000  0.4829820000000  0.4359430000000 1.0
C      1  0.5192920000000  0.4178170000000  0.4981730000000 1.0
C      1  0.4377480000000  0.4759800000000  0.5532350000000 1.0
C      1  0.5014570000000  0.4916640000000  0.4296120000000 1.0
C      1  0.5748750000000  0.4847960000000  0.5563370000000 1.0
C      1  0.5003730000000  0.4731860000000  0.5012260000000 1.0
C      1  0.5316150000000  0.4784150000000  0.5778250000000 1.0
C      1  0.4544420000000  0.5205960000000  0.5684940000000 1.0
C      1  0.4804490000000  0.5107960000000  0.4193420000000 1.0
C      1  0.4358710000000  0.5256180000000  0.5271230000000 1.0
C      1  0.4851370000000  0.5389880000000  0.5029100000000 1.0
C      1  0.4581270000000  0.5565230000000  0.4505570000000 1.0
C      1  0.4320070000000  0.4441260000000  0.4611720000000 1.0
C      1  0.5921270000000  0.4793490000000  0.5157390000000 1.0
C      1  0.5036150000000  0.5673520000000  0.4616550000000 1.0
C      1  0.4812470000000  0.4769810000000  0.5780750000000 1.0
C      1  0.5403440000000  0.5320330000000  0.5252890000000 1.0
C      1  0.5557290000000  0.5471810000000  0.5578380000000 1.0
C      1  0.4861000000000  0.5805900000000  0.4833030000000 1.0
C      1  0.4519000000000  0.4360150000000  0.4398280000000 1.0
C      1  0.4541610000000  0.5039370000000  0.5128140000000 1.0
C      1  0.5468210000000  0.5142390000000  0.4669330000000 1.0
C      1  0.4688890000000  0.5443750000000  0.5559400000000 1.0
C      1  0.4855920000000  0.5560260000000  0.4399870000000 1.0
C      1  0.5060520000000  0.4908030000000  0.5835520000000 1.0
C      1  0.5181990000000  0.5198290000000  0.4671980000000 1.0
C      1  0.5267870000000  0.5364930000000  0.5893710000000 1.0
C      1  0.4606250000000  0.5664900000000  0.4783100000000 1.0
C      1  0.5642770000000  0.4317510000000  0.4847800000000 1.0
C      1  0.4919050000000  0.4627290000000  0.4281410000000 1.0
C      1  0.4948570000000  0.5366540000000  0.4191390000000 1.0
C      1  0.4277530000000  0.5199480000000  0.5552900000000 1.0
C      1  0.5794010000000  0.4971010000000  0.4424760000000 1.0
C      1  0.5334320000000  0.5676410000000  0.4551690000000 1.0
C      1  0.5007250000000  0.4449740000000  0.4520500000000 1.0
C      1  0.5098040000000  0.5439020000000  0.4819940000000 1.0
C      1  0.5389220000000  0.5523760000000  0.4318170000000 1.0
C      1  0.4442820000000  0.4294050000000  0.4895890000000 1.0
C      1  0.4564130000000  0.4609130000000  0.4868060000000 1.0
C      1  0.5318140000000  0.4315040000000  0.5210850000000 1.0
C      1  0.5596180000000  0.4379180000000  0.5141630000000 1.0
C      1  0.4281160000000  0.4635580000000  0.5258560000000 1.0
C      1  0.5516980000000  0.5251120000000  0.5773310000000 1.0
C      1  0.4736880000000  0.5025570000000  0.4666450000000 1.0
C      1  0.4373680000000  0.5696020000000  0.4951950000000 1.0
C      1  0.4592370000000  0.5078790000000  0.4408170000000 1.0
C      1  0.4614270000000  0.4604620000000  0.4261340000000 1.0
C      1  0.4977470000000  0.5219550000000  0.5268090000000 1.0
C      1  0.4633130000000  0.5197660000000  0.4887750000000 1.0
C      1  0.4416530000000  0.5319180000000  0.4467740000000 1.0
C      1  0.4141210000000  0.4935970000000  0.5546480000000 1.0
C      1  0.5145850000000  0.4870880000000  0.5225900000000 1.0
C      1  0.3987570000000  0.4884070000000  0.5294780000000 1.0
C      1  0.5213110000000  0.5745820000000  0.5241030000000 1.0
C      1  0.4567950000000  0.5480430000000  0.5284350000000 1.0
C      1  0.5014640000000  0.4966530000000  0.4601770000000 1.0
C      1  0.5728730000000  0.4604460000000  0.5274340000000 1.0
END
