TITL C-950531-5884-269 1.8342107817969e-06 125000 -941.498670779242 0 0 153 (C1) n - 1
REM
REM in /home/bkarasulu/work/CARBON/AIRSS/Generating-Clusters/EDIP-Nigel-Params/with-SteepDescent/Only-C1/SD-CG/HFTN-CG
REM
REM
REM
REM
REM
REM ./C.cell (11c1c37f851c82e70ff6c80c92926a4b)
REM
REM compiler GCC version 9.2.1 20190827 (Red Hat 9.2.1-1)
REM options -cpp -mtune=generic -march=x86-64 -g -O0 -fpre-include=/usr/include/finclude/math-vector-fortran.h
REM seed 2032238295 -1798978833 900925401 -1757099453 1811835593 888447358 1675994214 -1989949496 633139169 -92705929 -493552769 -468118669 206948961 -1295302942 1931843492 -1108816067 -525440819 -1112013657 -1736331042 -1748444088 -1199678923 800745160 -87849314 682008882 970812918 -1388839240 481440365 644700567 171598903 -1741778277 -1855213383 1275080547 278565214
REM
CELL 1.54180   50.00000   50.00000   50.00000   90.00000   90.00000   90.00000
LATT -1
SFAC C  
C      1  0.4587160000000  0.5914680000000  0.4383810000000 1.0
C      1  0.5884980000000  0.4935420000000  0.5352780000000 1.0
C      1  0.5248690000000  0.5759290000000  0.4535350000000 1.0
C      1  0.4217830000000  0.4956450000000  0.4387240000000 1.0
C      1  0.5840920000000  0.5085300000000  0.5594760000000 1.0
C      1  0.3947070000000  0.4944420000000  0.5117510000000 1.0
C      1  0.4467350000000  0.5367550000000  0.4220840000000 1.0
C      1  0.4367310000000  0.5397240000000  0.5747390000000 1.0
C      1  0.4860010000000  0.3924740000000  0.5290840000000 1.0
C      1  0.5433100000000  0.5542100000000  0.4766760000000 1.0
C      1  0.4256070000000  0.5437220000000  0.4464800000000 1.0
C      1  0.5313190000000  0.5321430000000  0.4405240000000 1.0
C      1  0.4530560000000  0.5572100000000  0.5039810000000 1.0
C      1  0.4635010000000  0.5263910000000  0.4561430000000 1.0
C      1  0.4258750000000  0.5848510000000  0.5106790000000 1.0
C      1  0.4658640000000  0.4981210000000  0.5480260000000 1.0
C      1  0.4779810000000  0.5772360000000  0.4246350000000 1.0
C      1  0.5145340000000  0.3977170000000  0.5208980000000 1.0
C      1  0.5914800000000  0.4681930000000  0.4487840000000 1.0
C      1  0.5140050000000  0.4973220000000  0.5576700000000 1.0
C      1  0.5380380000000  0.4466460000000  0.4955440000000 1.0
C      1  0.5158250000000  0.4984430000000  0.4096020000000 1.0
C      1  0.4648470000000  0.5359080000000  0.4848790000000 1.0
C      1  0.5277070000000  0.5765120000000  0.5302700000000 1.0
C      1  0.5718640000000  0.5127840000000  0.4578580000000 1.0
C      1  0.5029160000000  0.5929470000000  0.5409270000000 1.0
C      1  0.5761070000000  0.5619930000000  0.5421750000000 1.0
C      1  0.6027840000000  0.5542100000000  0.4990980000000 1.0
C      1  0.4686890000000  0.4737630000000  0.5312360000000 1.0
C      1  0.5654260000000  0.5550540000000  0.4539430000000 1.0
C      1  0.4113220000000  0.5384370000000  0.5083650000000 1.0
C      1  0.5968430000000  0.4945520000000  0.4609870000000 1.0
C      1  0.5287950000000  0.4520860000000  0.4643780000000 1.0
C      1  0.5099540000000  0.4661100000000  0.5585640000000 1.0
C      1  0.5153570000000  0.5077080000000  0.5865620000000 1.0
C      1  0.6027140000000  0.5049560000000  0.5134920000000 1.0
C      1  0.4442630000000  0.5898950000000  0.4616030000000 1.0
C      1  0.4919520000000  0.5121030000000  0.5449660000000 1.0
C      1  0.5482860000000  0.5345540000000  0.4186390000000 1.0
C      1  0.4958600000000  0.4500730000000  0.4119870000000 1.0
C      1  0.4729350000000  0.5899420000000  0.5296630000000 1.0
C      1  0.5006830000000  0.5843190000000  0.5674600000000 1.0
C      1  0.4694840000000  0.4508990000000  0.4841180000000 1.0
C      1  0.5236540000000  0.4218580000000  0.5652980000000 1.0
C      1  0.5588570000000  0.5139670000000  0.4858090000000 1.0
C      1  0.4777670000000  0.4846160000000  0.5822350000000 1.0
C      1  0.4664260000000  0.4187410000000  0.4409970000000 1.0
C      1  0.5437230000000  0.4897950000000  0.4887510000000 1.0
C      1  0.4988360000000  0.4094780000000  0.5745550000000 1.0
C      1  0.4645430000000  0.4741290000000  0.5008730000000 1.0
C      1  0.4224050000000  0.4669640000000  0.4467240000000 1.0
C      1  0.4732130000000  0.4613790000000  0.4006150000000 1.0
C      1  0.5530120000000  0.4955100000000  0.4388520000000 1.0
C      1  0.5216870000000  0.3992600000000  0.4915730000000 1.0
C      1  0.5583290000000  0.4693990000000  0.5785910000000 1.0
C      1  0.5695690000000  0.5253480000000  0.5117930000000 1.0
C      1  0.4703510000000  0.5168040000000  0.5065510000000 1.0
C      1  0.5223610000000  0.5455700000000  0.5237070000000 1.0
C      1  0.4031400000000  0.4715770000000  0.5276910000000 1.0
C      1  0.5191430000000  0.4671060000000  0.4150200000000 1.0
C      1  0.5089800000000  0.4466050000000  0.5033090000000 1.0
C      1  0.5373680000000  0.5888200000000  0.5045640000000 1.0
C      1  0.4531990000000  0.4978030000000  0.4588030000000 1.0
C      1  0.4822930000000  0.4301810000000  0.5877290000000 1.0
C      1  0.4215620000000  0.4526710000000  0.5160940000000 1.0
C      1  0.4956890000000  0.5565270000000  0.5647610000000 1.0
C      1  0.4502880000000  0.6007050000000  0.5095270000000 1.0
C      1  0.4133740000000  0.5183780000000  0.4565300000000 1.0
C      1  0.5581950000000  0.5713740000000  0.4946290000000 1.0
C      1  0.5013350000000  0.4335120000000  0.5289350000000 1.0
C      1  0.5406740000000  0.4275150000000  0.4374640000000 1.0
C      1  0.5146780000000  0.4156490000000  0.4434080000000 1.0
C      1  0.4460570000000  0.4343500000000  0.4772840000000 1.0
C      1  0.4189000000000  0.5161830000000  0.5703930000000 1.0
C      1  0.4648000000000  0.5573060000000  0.4067320000000 1.0
C      1  0.4973660000000  0.4767150000000  0.6005380000000 1.0
C      1  0.4835920000000  0.4539430000000  0.5464140000000 1.0
C      1  0.5997960000000  0.5606820000000  0.4710140000000 1.0
C      1  0.4558820000000  0.5802140000000  0.5515650000000 1.0
C      1  0.5327150000000  0.4554660000000  0.5378120000000 1.0
C      1  0.5597200000000  0.4556730000000  0.5529290000000 1.0
C      1  0.5809100000000  0.5374310000000  0.5588760000000 1.0
C      1  0.5155790000000  0.5881770000000  0.4833610000000 1.0
C      1  0.4572640000000  0.5011260000000  0.5906250000000 1.0
C      1  0.5440000000000  0.4526100000000  0.4232500000000 1.0
C      1  0.5462020000000  0.5268480000000  0.5339870000000 1.0
C      1  0.5490700000000  0.5725220000000  0.5519310000000 1.0
C      1  0.5049430000000  0.4950490000000  0.4580910000000 1.0
C      1  0.4547500000000  0.6050340000000  0.4824850000000 1.0
C      1  0.5017930000000  0.4115060000000  0.4709880000000 1.0
C      1  0.5764550000000  0.5555020000000  0.5123550000000 1.0
C      1  0.5652920000000  0.4697060000000  0.4346990000000 1.0
C      1  0.4127400000000  0.5660300000000  0.4920510000000 1.0
C      1  0.5784620000000  0.4453800000000  0.5140100000000 1.0
C      1  0.4922710000000  0.4255130000000  0.4276370000000 1.0
C      1  0.4491230000000  0.4474140000000  0.4457460000000 1.0
C      1  0.4185100000000  0.4705870000000  0.4754200000000 1.0
C      1  0.5043590000000  0.4490020000000  0.5987640000000 1.0
C      1  0.5729580000000  0.4930540000000  0.5800080000000 1.0
C      1  0.5427520000000  0.5103370000000  0.4041240000000 1.0
C      1  0.5522790000000  0.5752360000000  0.4354570000000 1.0
C      1  0.4512170000000  0.5158230000000  0.5279530000000 1.0
C      1  0.4624170000000  0.5292480000000  0.5865200000000 1.0
C      1  0.4928880000000  0.5392010000000  0.5883090000000 1.0
C      1  0.4342510000000  0.4912700000000  0.5769220000000 1.0
C      1  0.4361940000000  0.4612570000000  0.5727530000000 1.0
C      1  0.4129790000000  0.4512390000000  0.5589670000000 1.0
C      1  0.4405580000000  0.4908740000000  0.4860770000000 1.0
C      1  0.4802070000000  0.5642940000000  0.5154540000000 1.0
C      1  0.5065850000000  0.5129820000000  0.4822100000000 1.0
C      1  0.4370430000000  0.5417920000000  0.5255390000000 1.0
C      1  0.6015210000000  0.5435380000000  0.4484000000000 1.0
C      1  0.3923730000000  0.5204750000000  0.5247910000000 1.0
C      1  0.4228910000000  0.4329690000000  0.5373360000000 1.0
C      1  0.4855860000000  0.3923680000000  0.5569090000000 1.0
C      1  0.5359750000000  0.4997540000000  0.5381650000000 1.0
C      1  0.4654620000000  0.4106630000000  0.5191600000000 1.0
C      1  0.4950910000000  0.5420950000000  0.5383340000000 1.0
C      1  0.4876380000000  0.5415870000000  0.3970550000000 1.0
C      1  0.4374610000000  0.5584130000000  0.5514580000000 1.0
C      1  0.4972480000000  0.4412410000000  0.4775340000000 1.0
C      1  0.5260150000000  0.5358550000000  0.5899600000000 1.0
C      1  0.5577000000000  0.4234580000000  0.5203780000000 1.0
C      1  0.4959820000000  0.4964530000000  0.5046250000000 1.0
C      1  0.4495200000000  0.4210640000000  0.5434040000000 1.0
C      1  0.5815750000000  0.4648280000000  0.5352970000000 1.0
C      1  0.5467290000000  0.4154600000000  0.4924790000000 1.0
C      1  0.4211320000000  0.4454800000000  0.4889320000000 1.0
C      1  0.5974760000000  0.4463860000000  0.4650730000000 1.0
C      1  0.3979890000000  0.5186990000000  0.5520270000000 1.0
C      1  0.4549670000000  0.4076240000000  0.4902080000000 1.0
C      1  0.4979050000000  0.5648670000000  0.4903710000000 1.0
C      1  0.5267800000000  0.4848010000000  0.5135800000000 1.0
C      1  0.4733330000000  0.4011780000000  0.4663040000000 1.0
C      1  0.4989340000000  0.5626510000000  0.4403880000000 1.0
C      1  0.5100000000000  0.5138310000000  0.4361290000000 1.0
C      1  0.4155980000000  0.5129950000000  0.4875550000000 1.0
C      1  0.5301220000000  0.4444350000000  0.5837530000000 1.0
C      1  0.4731630000000  0.4767180000000  0.4492580000000 1.0
C      1  0.6097790000000  0.5165920000000  0.4480830000000 1.0
C      1  0.4632470000000  0.5073900000000  0.4104320000000 1.0
C      1  0.5520950000000  0.5614160000000  0.4107860000000 1.0
C      1  0.4890340000000  0.5127140000000  0.3967840000000 1.0
C      1  0.4295790000000  0.5651690000000  0.4673840000000 1.0
C      1  0.4881040000000  0.5339070000000  0.4353550000000 1.0
C      1  0.5352710000000  0.4118700000000  0.5396850000000 1.0
C      1  0.4638530000000  0.4797180000000  0.4197100000000 1.0
C      1  0.5946910000000  0.4434810000000  0.4916170000000 1.0
C      1  0.5178380000000  0.5422150000000  0.4924590000000 1.0
C      1  0.5321840000000  0.4821550000000  0.4617580000000 1.0
C      1  0.4622200000000  0.4411870000000  0.5654260000000 1.0
C      1  0.6129820000000  0.5292040000000  0.5055430000000 1.0
C      1  0.5441130000000  0.5457600000000  0.5676160000000 1.0
END
