TITL C-951336-9012-163 1.44172449616416e-06 125000 -814.289948488034 0 0 131 (C1) n - 1
REM
REM in /home/bkarasulu/work/CARBON/AIRSS/Generating-Clusters/EDIP-Nigel-Params/with-SteepDescent/Only-C1/SD-CG/HFTN-CG
REM
REM
REM
REM
REM
REM ./C.cell (11c1c37f851c82e70ff6c80c92926a4b)
REM
REM compiler GCC version 9.2.1 20190827 (Red Hat 9.2.1-1)
REM options -cpp -mtune=generic -march=x86-64 -g -O0 -fpre-include=/usr/include/finclude/math-vector-fortran.h
REM seed 358883359 1868168793 797962189 1211387931 1459526363 -1304051016 1234999255 -1150588038 127459184 -570065684 251552157 -637091677 -450482359 670993485 -545827267 1536473869 2082895948 1622601043 -251044824 285539460 -996279016 -898540750 292693630 -845669105 -1282890672 2063945821 1551123633 1350625331 403943791 -233593666 778995051 2145519261 941636011
REM
CELL 1.54180   50.00000   50.00000   50.00000   90.00000   90.00000   90.00000
LATT -1
SFAC C  
C      1  0.4370280000000  0.5408310000000  0.6048410000000 1.0
C      1  0.5045150000000  0.4443520000000  0.4043580000000 1.0
C      1  0.4379760000000  0.4307510000000  0.4727760000000 1.0
C      1  0.5182620000000  0.5019230000000  0.4079460000000 1.0
C      1  0.4583620000000  0.4702860000000  0.4904320000000 1.0
C      1  0.4667290000000  0.5861500000000  0.5371100000000 1.0
C      1  0.4224050000000  0.5189540000000  0.5205830000000 1.0
C      1  0.5676640000000  0.5791280000000  0.4876270000000 1.0
C      1  0.4180060000000  0.5481270000000  0.4849150000000 1.0
C      1  0.5602140000000  0.4642780000000  0.5546460000000 1.0
C      1  0.5071370000000  0.5033390000000  0.5384450000000 1.0
C      1  0.5784210000000  0.5463640000000  0.5343070000000 1.0
C      1  0.5304710000000  0.5352400000000  0.4789400000000 1.0
C      1  0.4054530000000  0.4685020000000  0.5252980000000 1.0
C      1  0.4599750000000  0.4687930000000  0.4399810000000 1.0
C      1  0.4684730000000  0.5372890000000  0.5295110000000 1.0
C      1  0.5310530000000  0.5269800000000  0.4073280000000 1.0
C      1  0.5349140000000  0.4802260000000  0.4166220000000 1.0
C      1  0.4468960000000  0.4812010000000  0.4160320000000 1.0
C      1  0.5316340000000  0.4637770000000  0.5644230000000 1.0
C      1  0.4585610000000  0.4877120000000  0.4646600000000 1.0
C      1  0.4917150000000  0.4932770000000  0.3983540000000 1.0
C      1  0.5002950000000  0.5689720000000  0.4412610000000 1.0
C      1  0.5315440000000  0.4079330000000  0.4797690000000 1.0
C      1  0.4300380000000  0.5549050000000  0.4590500000000 1.0
C      1  0.5180840000000  0.5812730000000  0.5215690000000 1.0
C      1  0.4946550000000  0.4992090000000  0.5106420000000 1.0
C      1  0.4577600000000  0.5879060000000  0.4851860000000 1.0
C      1  0.6200140000000  0.5146960000000  0.5000800000000 1.0
C      1  0.5599110000000  0.4838780000000  0.4296400000000 1.0
C      1  0.5550970000000  0.5130620000000  0.5602810000000 1.0
C      1  0.4674260000000  0.4231490000000  0.5184090000000 1.0
C      1  0.4113930000000  0.5202940000000  0.4920280000000 1.0
C      1  0.5227720000000  0.4831270000000  0.5852620000000 1.0
C      1  0.5392640000000  0.5071440000000  0.5837880000000 1.0
C      1  0.5328490000000  0.4691060000000  0.5164900000000 1.0
C      1  0.4504370000000  0.5606180000000  0.5369850000000 1.0
C      1  0.4954110000000  0.5223900000000  0.5957370000000 1.0
C      1  0.4311690000000  0.4548610000000  0.4884200000000 1.0
C      1  0.4312540000000  0.4869860000000  0.5656350000000 1.0
C      1  0.5850500000000  0.4558770000000  0.4614050000000 1.0
C      1  0.5155450000000  0.4690950000000  0.4754830000000 1.0
C      1  0.5821460000000  0.5846610000000  0.4646340000000 1.0
C      1  0.5251830000000  0.5710470000000  0.4527100000000 1.0
C      1  0.5624160000000  0.5406350000000  0.5566510000000 1.0
C      1  0.4973910000000  0.5421680000000  0.5191610000000 1.0
C      1  0.5977260000000  0.4809600000000  0.4657580000000 1.0
C      1  0.4363100000000  0.5107280000000  0.5812620000000 1.0
C      1  0.4387120000000  0.4383230000000  0.5592710000000 1.0
C      1  0.5641680000000  0.4970090000000  0.4906060000000 1.0
C      1  0.5171920000000  0.4737800000000  0.5400630000000 1.0
C      1  0.4839330000000  0.5953420000000  0.4894390000000 1.0
C      1  0.5773640000000  0.4394550000000  0.4845970000000 1.0
C      1  0.5259370000000  0.5491740000000  0.5667360000000 1.0
C      1  0.4408330000000  0.5865170000000  0.5088470000000 1.0
C      1  0.4901200000000  0.4655130000000  0.3942830000000 1.0
C      1  0.5232510000000  0.5362370000000  0.5369480000000 1.0
C      1  0.4680340000000  0.4792140000000  0.5430980000000 1.0
C      1  0.5072300000000  0.4813950000000  0.4502910000000 1.0
C      1  0.4446880000000  0.4611390000000  0.5744760000000 1.0
C      1  0.5478280000000  0.5556430000000  0.4435590000000 1.0
C      1  0.5735050000000  0.5605910000000  0.4544600000000 1.0
C      1  0.6074690000000  0.4671490000000  0.5134930000000 1.0
C      1  0.5296850000000  0.4522170000000  0.4149110000000 1.0
C      1  0.4387010000000  0.5292030000000  0.4453280000000 1.0
C      1  0.5208340000000  0.4360070000000  0.5662540000000 1.0
C      1  0.4826070000000  0.4483400000000  0.5081340000000 1.0
C      1  0.4866600000000  0.4131700000000  0.5394760000000 1.0
C      1  0.4521010000000  0.5179570000000  0.5108020000000 1.0
C      1  0.6101730000000  0.4959810000000  0.5182980000000 1.0
C      1  0.4171920000000  0.4998050000000  0.4717250000000 1.0
C      1  0.5001810000000  0.5643220000000  0.5677580000000 1.0
C      1  0.4363940000000  0.5133530000000  0.6088040000000 1.0
C      1  0.4667580000000  0.4279800000000  0.4719250000000 1.0
C      1  0.3914470000000  0.4762140000000  0.5018400000000 1.0
C      1  0.4180180000000  0.4916300000000  0.5390010000000 1.0
C      1  0.4657040000000  0.4905860000000  0.5137340000000 1.0
C      1  0.4238490000000  0.4475280000000  0.5157280000000 1.0
C      1  0.5544920000000  0.5538200000000  0.4972320000000 1.0
C      1  0.5643090000000  0.4432760000000  0.5336710000000 1.0
C      1  0.4697770000000  0.5262400000000  0.5568600000000 1.0
C      1  0.5193050000000  0.4875630000000  0.4972990000000 1.0
C      1  0.4183710000000  0.5663700000000  0.5079610000000 1.0
C      1  0.4212830000000  0.4900630000000  0.4234810000000 1.0
C      1  0.4729480000000  0.5676660000000  0.4418180000000 1.0
C      1  0.4174270000000  0.5084810000000  0.4438720000000 1.0
C      1  0.5232220000000  0.5171520000000  0.4519870000000 1.0
C      1  0.5183440000000  0.3993790000000  0.5029560000000 1.0
C      1  0.5673650000000  0.4911740000000  0.5460090000000 1.0
C      1  0.5436580000000  0.5281790000000  0.4336090000000 1.0
C      1  0.5829480000000  0.4512620000000  0.5109200000000 1.0
C      1  0.4650480000000  0.5041100000000  0.4070950000000 1.0
C      1  0.4838220000000  0.5008980000000  0.5572340000000 1.0
C      1  0.5830040000000  0.5059520000000  0.4684630000000 1.0
C      1  0.5410930000000  0.5602710000000  0.5248700000000 1.0
C      1  0.5030710000000  0.5488910000000  0.4897670000000 1.0
C      1  0.5332140000000  0.4397350000000  0.5104590000000 1.0
C      1  0.4951750000000  0.5795220000000  0.5425310000000 1.0
C      1  0.4749360000000  0.4620700000000  0.5788380000000 1.0
C      1  0.4933070000000  0.4917010000000  0.5858970000000 1.0
C      1  0.4904190000000  0.4588470000000  0.5372810000000 1.0
C      1  0.5573850000000  0.4194900000000  0.4820150000000 1.0
C      1  0.5794990000000  0.4934820000000  0.5181900000000 1.0
C      1  0.4889710000000  0.5247110000000  0.4469560000000 1.0
C      1  0.4793860000000  0.5416650000000  0.4701380000000 1.0
C      1  0.5232550000000  0.5302060000000  0.5902660000000 1.0
C      1  0.4207700000000  0.5482810000000  0.5318060000000 1.0
C      1  0.5134980000000  0.4054080000000  0.5298400000000 1.0
C      1  0.4914640000000  0.4368730000000  0.5595460000000 1.0
C      1  0.5379820000000  0.5092000000000  0.4926050000000 1.0
C      1  0.4803380000000  0.5432330000000  0.5789940000000 1.0
C      1  0.5340890000000  0.4211060000000  0.5442860000000 1.0
C      1  0.5673430000000  0.5098170000000  0.4406640000000 1.0
C      1  0.4083080000000  0.4730300000000  0.4791440000000 1.0
C      1  0.5495320000000  0.4368250000000  0.4284610000000 1.0
C      1  0.5762430000000  0.5361270000000  0.5075970000000 1.0
C      1  0.5661260000000  0.4574630000000  0.4395500000000 1.0
C      1  0.4854170000000  0.4985650000000  0.4611780000000 1.0
C      1  0.4887820000000  0.4578680000000  0.4364940000000 1.0
C      1  0.4887240000000  0.4316750000000  0.4528220000000 1.0
C      1  0.5082180000000  0.4433430000000  0.4899290000000 1.0
C      1  0.4537380000000  0.5232690000000  0.4781240000000 1.0
C      1  0.4648210000000  0.5265840000000  0.4272700000000 1.0
C      1  0.5972530000000  0.5262240000000  0.4882000000000 1.0
C      1  0.5274650000000  0.5899350000000  0.4732190000000 1.0
C      1  0.4421920000000  0.4331320000000  0.5322420000000 1.0
C      1  0.4587800000000  0.5541980000000  0.5944060000000 1.0
C      1  0.4622110000000  0.4085340000000  0.4928860000000 1.0
C      1  0.5080140000000  0.5802820000000  0.4927780000000 1.0
C      1  0.4518420000000  0.5742180000000  0.4602660000000 1.0
C      1  0.5142420000000  0.4197030000000  0.4597010000000 1.0
END
