TITL C-950527-2551-332 8.23545953703296e-07 125000 -428.663731337717 0 0 70 (C1) n - 1
REM
REM in /home/bkarasulu/work/CARBON/AIRSS/Generating-Clusters/EDIP-Nigel-Params/with-SteepDescent/Only-C1/SD-CG/HFTN-CG
REM
REM
REM
REM
REM
REM ./C.cell (11c1c37f851c82e70ff6c80c92926a4b)
REM
REM compiler GCC version 9.2.1 20190827 (Red Hat 9.2.1-1)
REM options -cpp -mtune=generic -march=x86-64 -g -O0 -fpre-include=/usr/include/finclude/math-vector-fortran.h
REM seed -2087027419 -637235475 -641311646 -943746899 -828291874 -1918264638 -1729802833 683693129 1450976456 -1555443762 736395079 1293395785 -260060913 1469645255 130869045 -1830341521 1437646210 -1004500280 1413569586 -1533745251 -1216091356 1747817381 20904730 -1689007485 1082144595 -375948160 2041374326 -1796168304 -1492721129 -1528385462 -1913201837 485792870 -925342473
REM
CELL 1.54180   50.00000   50.00000   50.00000   90.00000   90.00000   90.00000
LATT -1
SFAC C  
C      1  0.5604260000000  0.4721100000000  0.4971300000000 1.0
C      1  0.5076250000000  0.5640570000000  0.5172750000000 1.0
C      1  0.4592620000000  0.5106530000000  0.4444740000000 1.0
C      1  0.5396290000000  0.5029780000000  0.5597900000000 1.0
C      1  0.5371210000000  0.4547970000000  0.5610790000000 1.0
C      1  0.4890340000000  0.5075940000000  0.4409480000000 1.0
C      1  0.4942920000000  0.5780880000000  0.4953270000000 1.0
C      1  0.5555510000000  0.5613810000000  0.4682040000000 1.0
C      1  0.4485820000000  0.4829740000000  0.4407940000000 1.0
C      1  0.5339870000000  0.4347920000000  0.5203270000000 1.0
C      1  0.4856680000000  0.4779230000000  0.5192640000000 1.0
C      1  0.5812810000000  0.5059210000000  0.5333880000000 1.0
C      1  0.4894760000000  0.4455200000000  0.4729210000000 1.0
C      1  0.5413700000000  0.4956910000000  0.4445550000000 1.0
C      1  0.5582490000000  0.5163690000000  0.4932370000000 1.0
C      1  0.5213780000000  0.4692420000000  0.4413430000000 1.0
C      1  0.4503790000000  0.5521650000000  0.5095640000000 1.0
C      1  0.5088070000000  0.5334680000000  0.4788880000000 1.0
C      1  0.4743580000000  0.4938500000000  0.4941090000000 1.0
C      1  0.4818950000000  0.4937020000000  0.5655520000000 1.0
C      1  0.4298890000000  0.4676270000000  0.4582130000000 1.0
C      1  0.4363690000000  0.4878590000000  0.4973110000000 1.0
C      1  0.4938780000000  0.5177720000000  0.5739710000000 1.0
C      1  0.5668730000000  0.4956010000000  0.5550110000000 1.0
C      1  0.4316390000000  0.4737890000000  0.5226780000000 1.0
C      1  0.5527060000000  0.4470480000000  0.5373830000000 1.0
C      1  0.5268690000000  0.4937010000000  0.4719060000000 1.0
C      1  0.5501920000000  0.5443950000000  0.5333180000000 1.0
C      1  0.4661550000000  0.5694600000000  0.4896340000000 1.0
C      1  0.5151890000000  0.5127250000000  0.5194930000000 1.0
C      1  0.5711600000000  0.4936680000000  0.4829180000000 1.0
C      1  0.4631510000000  0.4437060000000  0.5432290000000 1.0
C      1  0.5286680000000  0.5255350000000  0.5432870000000 1.0
C      1  0.4684330000000  0.5546090000000  0.4639350000000 1.0
C      1  0.4881080000000  0.5212960000000  0.5089850000000 1.0
C      1  0.5308880000000  0.4702600000000  0.4931740000000 1.0
C      1  0.4404590000000  0.4457850000000  0.5237310000000 1.0
C      1  0.4495130000000  0.4349600000000  0.4957030000000 1.0
C      1  0.4692310000000  0.5352790000000  0.5289110000000 1.0
C      1  0.5699020000000  0.5275020000000  0.5176750000000 1.0
C      1  0.5072460000000  0.5382730000000  0.5597500000000 1.0
C      1  0.5094810000000  0.4326380000000  0.5340340000000 1.0
C      1  0.5345100000000  0.5245850000000  0.4343000000000 1.0
C      1  0.4678380000000  0.4983220000000  0.5403630000000 1.0
C      1  0.4354570000000  0.5353530000000  0.4892950000000 1.0
C      1  0.5370820000000  0.5657740000000  0.5175010000000 1.0
C      1  0.5407860000000  0.5347490000000  0.4768970000000 1.0
C      1  0.4704230000000  0.4418120000000  0.4510030000000 1.0
C      1  0.4531380000000  0.5303950000000  0.4658840000000 1.0
C      1  0.4703160000000  0.4646360000000  0.4312150000000 1.0
C      1  0.5215230000000  0.4802320000000  0.5527710000000 1.0
C      1  0.4153260000000  0.4815120000000  0.4782220000000 1.0
C      1  0.5078840000000  0.5792770000000  0.4696500000000 1.0
C      1  0.4977400000000  0.5532590000000  0.4584500000000 1.0
C      1  0.4910990000000  0.5532920000000  0.5399480000000 1.0
C      1  0.4785900000000  0.4337680000000  0.4970640000000 1.0
C      1  0.4958140000000  0.4804780000000  0.4291260000000 1.0
C      1  0.4433030000000  0.4415110000000  0.4654050000000 1.0
C      1  0.5107780000000  0.4398830000000  0.5626070000000 1.0
C      1  0.5523590000000  0.5468980000000  0.4420310000000 1.0
C      1  0.4223800000000  0.5128900000000  0.5002540000000 1.0
C      1  0.5152110000000  0.4835580000000  0.5216400000000 1.0
C      1  0.4884400000000  0.4629520000000  0.5650680000000 1.0
C      1  0.4849950000000  0.4462030000000  0.5230310000000 1.0
C      1  0.5175650000000  0.4520040000000  0.4683040000000 1.0
C      1  0.5503950000000  0.5732230000000  0.4937240000000 1.0
C      1  0.5051920000000  0.5325830000000  0.4345350000000 1.0
C      1  0.4408550000000  0.4892990000000  0.5437840000000 1.0
C      1  0.4986090000000  0.5046060000000  0.4698270000000 1.0
C      1  0.5680230000000  0.4701780000000  0.5256860000000 1.0
END
