TITL C-951342-2639-61 -8.01530389951823e-07 125000 -1053.15196228543 0 0 166 (C1) n - 1
REM
REM in /home/bkarasulu/work/CARBON/AIRSS/Generating-Clusters/EDIP-Nigel-Params/with-SteepDescent/Only-C1/SD-CG/HFTN-CG
REM
REM
REM
REM
REM
REM ./C.cell (11c1c37f851c82e70ff6c80c92926a4b)
REM
REM compiler GCC version 9.2.1 20190827 (Red Hat 9.2.1-1)
REM options -cpp -mtune=generic -march=x86-64 -g -O0 -fpre-include=/usr/include/finclude/math-vector-fortran.h
REM seed 18740912 922135631 57213002 -1739566137 968896396 -2077666867 59488659 -1560661254 -2133602537 1395252174 1033368413 -1857177979 1124971170 -869653175 1177266862 850461866 245318920 116730551 -2011933181 445793163 404789767 -526744566 -1553179519 1969873695 -1947281224 2146208431 1284420395 658855772 -1423403005 1575341671 -2114367087 1772925506 1936671611
REM
CELL 1.54180   50.00000   50.00000   50.00000   90.00000   90.00000   90.00000
LATT -1
SFAC C  
C      1  0.4907230000000  0.6133910000000  0.5292820000000 1.0
C      1  0.4609140000000  0.5012480000000  0.5311440000000 1.0
C      1  0.4776770000000  0.5635990000000  0.4312830000000 1.0
C      1  0.5372540000000  0.4398550000000  0.4544420000000 1.0
C      1  0.4561600000000  0.5504670000000  0.5420130000000 1.0
C      1  0.4511680000000  0.4123270000000  0.4611620000000 1.0
C      1  0.5924750000000  0.5137840000000  0.5592470000000 1.0
C      1  0.5131870000000  0.6058050000000  0.4837190000000 1.0
C      1  0.5844200000000  0.5392930000000  0.5476540000000 1.0
C      1  0.5016520000000  0.5471650000000  0.5859410000000 1.0
C      1  0.4722420000000  0.4144080000000  0.5483330000000 1.0
C      1  0.4167070000000  0.4471650000000  0.4716790000000 1.0
C      1  0.5685040000000  0.4605080000000  0.4235820000000 1.0
C      1  0.4345770000000  0.5033730000000  0.5454550000000 1.0
C      1  0.4909870000000  0.3936420000000  0.5033300000000 1.0
C      1  0.4673630000000  0.5560660000000  0.4799580000000 1.0
C      1  0.4627290000000  0.4391540000000  0.4115350000000 1.0
C      1  0.4268610000000  0.5753130000000  0.5098310000000 1.0
C      1  0.4797960000000  0.4122010000000  0.4488450000000 1.0
C      1  0.5939600000000  0.5264550000000  0.5012010000000 1.0
C      1  0.4009090000000  0.5100170000000  0.4932800000000 1.0
C      1  0.5065630000000  0.5248690000000  0.5680690000000 1.0
C      1  0.5346790000000  0.5959070000000  0.5218910000000 1.0
C      1  0.5017590000000  0.3918650000000  0.4524200000000 1.0
C      1  0.4141610000000  0.5353390000000  0.5668000000000 1.0
C      1  0.5664570000000  0.5855200000000  0.5563900000000 1.0
C      1  0.4442310000000  0.4235220000000  0.5393250000000 1.0
C      1  0.5829620000000  0.5079660000000  0.5849450000000 1.0
C      1  0.4483560000000  0.4951520000000  0.4061130000000 1.0
C      1  0.4897600000000  0.5675060000000  0.5099980000000 1.0
C      1  0.5030360000000  0.4611550000000  0.6005390000000 1.0
C      1  0.3976500000000  0.4460650000000  0.5196920000000 1.0
C      1  0.5476550000000  0.4364410000000  0.4830590000000 1.0
C      1  0.5451500000000  0.4673720000000  0.5765590000000 1.0
C      1  0.3979660000000  0.5085100000000  0.5219480000000 1.0
C      1  0.5957460000000  0.4773330000000  0.4954740000000 1.0
C      1  0.5707430000000  0.5574690000000  0.5658710000000 1.0
C      1  0.4440040000000  0.4501350000000  0.4287350000000 1.0
C      1  0.5461160000000  0.5464320000000  0.5775690000000 1.0
C      1  0.5182060000000  0.5868060000000  0.5620650000000 1.0
C      1  0.4499030000000  0.5783830000000  0.4677400000000 1.0
C      1  0.5570140000000  0.5053250000000  0.4773330000000 1.0
C      1  0.4996130000000  0.4244000000000  0.4950890000000 1.0
C      1  0.5099220000000  0.4511320000000  0.4545500000000 1.0
C      1  0.5706320000000  0.4223780000000  0.5298110000000 1.0
C      1  0.5400140000000  0.5286860000000  0.4906480000000 1.0
C      1  0.4568880000000  0.5661250000000  0.5830240000000 1.0
C      1  0.5758010000000  0.5708850000000  0.5091970000000 1.0
C      1  0.4319570000000  0.5577730000000  0.5716910000000 1.0
C      1  0.4444050000000  0.4610400000000  0.5090460000000 1.0
C      1  0.5287190000000  0.5291020000000  0.5178300000000 1.0
C      1  0.6035050000000  0.5013050000000  0.5115080000000 1.0
C      1  0.5414470000000  0.4148730000000  0.5258600000000 1.0
C      1  0.5732540000000  0.5776620000000  0.4803980000000 1.0
C      1  0.5669670000000  0.5483640000000  0.4349990000000 1.0
C      1  0.4972420000000  0.5013110000000  0.3944740000000 1.0
C      1  0.4899300000000  0.4818870000000  0.4406900000000 1.0
C      1  0.4159370000000  0.4872530000000  0.5305910000000 1.0
C      1  0.4673100000000  0.5134770000000  0.5860920000000 1.0
C      1  0.4486630000000  0.5341800000000  0.4965820000000 1.0
C      1  0.5370870000000  0.5034600000000  0.4229220000000 1.0
C      1  0.5519790000000  0.4531060000000  0.4035130000000 1.0
C      1  0.5771790000000  0.5216020000000  0.4293740000000 1.0
C      1  0.5181110000000  0.4650680000000  0.5154820000000 1.0
C      1  0.5923030000000  0.5312300000000  0.4726800000000 1.0
C      1  0.4839190000000  0.5210810000000  0.4986670000000 1.0
C      1  0.4892490000000  0.4343830000000  0.4673610000000 1.0
C      1  0.4595510000000  0.5211620000000  0.4424360000000 1.0
C      1  0.5896550000000  0.5476760000000  0.5199860000000 1.0
C      1  0.5636380000000  0.4831150000000  0.4998090000000 1.0
C      1  0.4197520000000  0.5096190000000  0.5808360000000 1.0
C      1  0.4636140000000  0.6109170000000  0.5024970000000 1.0
C      1  0.5798030000000  0.5552120000000  0.4618130000000 1.0
C      1  0.4115150000000  0.5326550000000  0.5353860000000 1.0
C      1  0.4837700000000  0.4241700000000  0.4212390000000 1.0
C      1  0.5712560000000  0.4131010000000  0.4587180000000 1.0
C      1  0.5998480000000  0.4619810000000  0.5404180000000 1.0
C      1  0.5253130000000  0.4471650000000  0.5859270000000 1.0
C      1  0.4209780000000  0.4429990000000  0.5018720000000 1.0
C      1  0.5286870000000  0.5786800000000  0.4350910000000 1.0
C      1  0.5607270000000  0.5872000000000  0.5276220000000 1.0
C      1  0.5419600000000  0.4623050000000  0.4977330000000 1.0
C      1  0.4786000000000  0.5280070000000  0.5406570000000 1.0
C      1  0.5395100000000  0.4949270000000  0.5879320000000 1.0
C      1  0.5630850000000  0.5066550000000  0.4103480000000 1.0
C      1  0.4940090000000  0.3989750000000  0.5340930000000 1.0
C      1  0.5149880000000  0.4871790000000  0.5342560000000 1.0
C      1  0.4722350000000  0.5005210000000  0.4228410000000 1.0
C      1  0.5081520000000  0.5305930000000  0.4527630000000 1.0
C      1  0.5077550000000  0.5959010000000  0.5114400000000 1.0
C      1  0.4487770000000  0.5339440000000  0.4073420000000 1.0
C      1  0.5526640000000  0.4637090000000  0.4465350000000 1.0
C      1  0.4309060000000  0.5153670000000  0.4544660000000 1.0
C      1  0.4952050000000  0.4833110000000  0.5549470000000 1.0
C      1  0.4936760000000  0.5012010000000  0.5787920000000 1.0
C      1  0.4998320000000  0.5287830000000  0.4034720000000 1.0
C      1  0.5240920000000  0.4553990000000  0.4019140000000 1.0
C      1  0.5483270000000  0.3969140000000  0.4565120000000 1.0
C      1  0.4338270000000  0.4178650000000  0.5100270000000 1.0
C      1  0.4378820000000  0.4373130000000  0.4542120000000 1.0
C      1  0.5561380000000  0.4640000000000  0.5495870000000 1.0
C      1  0.4347470000000  0.5476200000000  0.5202670000000 1.0
C      1  0.5848850000000  0.4318920000000  0.5061270000000 1.0
C      1  0.4487020000000  0.5930440000000  0.5201380000000 1.0
C      1  0.5401570000000  0.4911390000000  0.4535590000000 1.0
C      1  0.5368200000000  0.3898080000000  0.4829420000000 1.0
C      1  0.4986950000000  0.5378830000000  0.5177440000000 1.0
C      1  0.4843440000000  0.4266170000000  0.5721250000000 1.0
C      1  0.4990610000000  0.5845450000000  0.4382660000000 1.0
C      1  0.5213640000000  0.5308760000000  0.4244160000000 1.0
C      1  0.5438110000000  0.5972110000000  0.5702040000000 1.0
C      1  0.4692050000000  0.5756900000000  0.5329250000000 1.0
C      1  0.5245060000000  0.5463700000000  0.4730140000000 1.0
C      1  0.5179740000000  0.4848940000000  0.4069050000000 1.0
C      1  0.3891010000000  0.4876520000000  0.4813550000000 1.0
C      1  0.4678730000000  0.4517160000000  0.5268780000000 1.0
C      1  0.5631930000000  0.5026290000000  0.6029740000000 1.0
C      1  0.5317000000000  0.4157000000000  0.4972230000000 1.0
C      1  0.4693200000000  0.4755550000000  0.5461460000000 1.0
C      1  0.5920190000000  0.4925510000000  0.5381680000000 1.0
C      1  0.5109340000000  0.4904990000000  0.6010680000000 1.0
C      1  0.4500340000000  0.4891810000000  0.4997950000000 1.0
C      1  0.4445390000000  0.4950400000000  0.5862970000000 1.0
C      1  0.5202810000000  0.4083390000000  0.5457140000000 1.0
C      1  0.4343770000000  0.4769090000000  0.4232390000000 1.0
C      1  0.4656800000000  0.6024600000000  0.4745800000000 1.0
C      1  0.5773390000000  0.4438250000000  0.5498100000000 1.0
C      1  0.4943990000000  0.4980960000000  0.4850910000000 1.0
C      1  0.4150980000000  0.5397360000000  0.4470570000000 1.0
C      1  0.4316210000000  0.4478180000000  0.5558220000000 1.0
C      1  0.5254430000000  0.4056670000000  0.4396480000000 1.0
C      1  0.5130580000000  0.4266740000000  0.5682040000000 1.0
C      1  0.5246160000000  0.5670560000000  0.5853410000000 1.0
C      1  0.4951460000000  0.4470650000000  0.5134940000000 1.0
C      1  0.4090050000000  0.4609940000000  0.5408750000000 1.0
C      1  0.5369990000000  0.5076610000000  0.5375550000000 1.0
C      1  0.5079430000000  0.5000530000000  0.4591250000000 1.0
C      1  0.5622470000000  0.4890690000000  0.5317380000000 1.0
C      1  0.5395600000000  0.5707930000000  0.4621020000000 1.0
C      1  0.4190940000000  0.4899530000000  0.4438730000000 1.0
C      1  0.4791710000000  0.5422190000000  0.4533130000000 1.0
C      1  0.4928550000000  0.5980150000000  0.4645120000000 1.0
C      1  0.5356820000000  0.5185570000000  0.5671450000000 1.0
C      1  0.4230150000000  0.5772050000000  0.4803790000000 1.0
C      1  0.5113460000000  0.4318800000000  0.4152230000000 1.0
C      1  0.5394990000000  0.5963320000000  0.4770840000000 1.0
C      1  0.4499360000000  0.5736490000000  0.4374410000000 1.0
C      1  0.4079030000000  0.5572790000000  0.4678480000000 1.0
C      1  0.5851740000000  0.4194470000000  0.4811940000000 1.0
C      1  0.4731060000000  0.5430420000000  0.5915360000000 1.0
C      1  0.4934590000000  0.6023310000000  0.5575390000000 1.0
C      1  0.4053930000000  0.4732090000000  0.4637760000000 1.0
C      1  0.6033060000000  0.4536190000000  0.5116520000000 1.0
C      1  0.4701060000000  0.5890850000000  0.5694690000000 1.0
C      1  0.4764430000000  0.5464540000000  0.4061720000000 1.0
C      1  0.4722180000000  0.4628510000000  0.4592320000000 1.0
C      1  0.4715220000000  0.4823510000000  0.4813080000000 1.0
C      1  0.4322520000000  0.5521520000000  0.4261810000000 1.0
C      1  0.4525190000000  0.4673320000000  0.5710300000000 1.0
C      1  0.5866030000000  0.5101550000000  0.4542640000000 1.0
C      1  0.4306540000000  0.5118180000000  0.4851200000000 1.0
C      1  0.5087890000000  0.3815430000000  0.4798750000000 1.0
C      1  0.5400680000000  0.5548150000000  0.4211370000000 1.0
C      1  0.4750010000000  0.4508980000000  0.5868270000000 1.0
C      1  0.4504950000000  0.4054880000000  0.4897320000000 1.0
C      1  0.4644510000000  0.3834040000000  0.4981560000000 1.0
END
