TITL C-951343-2256-181 -2.48700817225908e-06 125000 -1018.61533678175 0 0 163 (C1) n - 1
REM
REM in /home/bkarasulu/work/CARBON/AIRSS/Generating-Clusters/EDIP-Nigel-Params/with-SteepDescent/Only-C1/SD-CG/HFTN-CG
REM
REM
REM
REM
REM
REM ./C.cell (11c1c37f851c82e70ff6c80c92926a4b)
REM
REM compiler GCC version 9.2.1 20190827 (Red Hat 9.2.1-1)
REM options -cpp -mtune=generic -march=x86-64 -g -O0 -fpre-include=/usr/include/finclude/math-vector-fortran.h
REM seed -241508321 -273509752 2029060614 323238832 -606239821 1361015543 -800934244 -304483337 -865495812 -671350374 -698872395 -1584558398 -1812820059 -404401875 -312049007 1676359877 1035791072 641941146 -1760755403 1102299468 1793015358 369653148 1264644117 268930694 -849570924 636016904 -1511880824 720349860 1163608947 1343700222 1590811648 507049552 1438650112
REM
CELL 1.54180   50.00000   50.00000   50.00000   90.00000   90.00000   90.00000
LATT -1
SFAC C  
C      1  0.5073750000000  0.4319940000000  0.4969690000000 1.0
C      1  0.5400040000000  0.5771840000000  0.5686190000000 1.0
C      1  0.4745340000000  0.5784790000000  0.4437840000000 1.0
C      1  0.5539040000000  0.5487550000000  0.5635610000000 1.0
C      1  0.5027500000000  0.5048410000000  0.6205050000000 1.0
C      1  0.5372770000000  0.5957170000000  0.4768540000000 1.0
C      1  0.5300170000000  0.4331160000000  0.5660080000000 1.0
C      1  0.4546880000000  0.4239860000000  0.5369150000000 1.0
C      1  0.4989930000000  0.4552270000000  0.4360290000000 1.0
C      1  0.5975940000000  0.5454990000000  0.5120010000000 1.0
C      1  0.4189090000000  0.5721020000000  0.4869140000000 1.0
C      1  0.4018570000000  0.5227030000000  0.5449000000000 1.0
C      1  0.5264560000000  0.4626740000000  0.4484430000000 1.0
C      1  0.5029220000000  0.5562150000000  0.5969860000000 1.0
C      1  0.5032170000000  0.4861940000000  0.4969960000000 1.0
C      1  0.4223780000000  0.5322020000000  0.4225830000000 1.0
C      1  0.5993220000000  0.4743350000000  0.5350400000000 1.0
C      1  0.5408910000000  0.5518500000000  0.4764310000000 1.0
C      1  0.4982980000000  0.4086730000000  0.4451320000000 1.0
C      1  0.4547470000000  0.5335090000000  0.5964440000000 1.0
C      1  0.4872130000000  0.4790910000000  0.4220300000000 1.0
C      1  0.5580730000000  0.4770490000000  0.5816690000000 1.0
C      1  0.4468820000000  0.5573060000000  0.5519930000000 1.0
C      1  0.4481510000000  0.4832700000000  0.4590550000000 1.0
C      1  0.5025550000000  0.4367580000000  0.4113560000000 1.0
C      1  0.4728900000000  0.5992870000000  0.4621280000000 1.0
C      1  0.5181200000000  0.5156220000000  0.4483450000000 1.0
C      1  0.4353670000000  0.5827470000000  0.5100120000000 1.0
C      1  0.5024860000000  0.5510650000000  0.5296710000000 1.0
C      1  0.4348230000000  0.5466970000000  0.5780490000000 1.0
C      1  0.5066400000000  0.6006020000000  0.5389220000000 1.0
C      1  0.4221430000000  0.5001490000000  0.5828530000000 1.0
C      1  0.5349980000000  0.5208250000000  0.4081110000000 1.0
C      1  0.4304640000000  0.4259660000000  0.5197900000000 1.0
C      1  0.5991340000000  0.5028160000000  0.4652230000000 1.0
C      1  0.5235800000000  0.5017060000000  0.5799420000000 1.0
C      1  0.4837230000000  0.5361660000000  0.5897230000000 1.0
C      1  0.3995080000000  0.5514260000000  0.4982730000000 1.0
C      1  0.4481940000000  0.5037190000000  0.5971470000000 1.0
C      1  0.4577630000000  0.4694530000000  0.4185480000000 1.0
C      1  0.4524540000000  0.4257750000000  0.4524390000000 1.0
C      1  0.5649780000000  0.4178480000000  0.4730320000000 1.0
C      1  0.4080690000000  0.5451520000000  0.5257920000000 1.0
C      1  0.5754190000000  0.4556410000000  0.5357290000000 1.0
C      1  0.5071070000000  0.5163260000000  0.3965600000000 1.0
C      1  0.4840190000000  0.5328210000000  0.4060930000000 1.0
C      1  0.5303770000000  0.4451250000000  0.4057990000000 1.0
C      1  0.5296050000000  0.4742670000000  0.3947300000000 1.0
C      1  0.5174040000000  0.4960870000000  0.5508120000000 1.0
C      1  0.4574910000000  0.5393200000000  0.5093610000000 1.0
C      1  0.4947950000000  0.5095060000000  0.5926090000000 1.0
C      1  0.5022910000000  0.4249750000000  0.5704310000000 1.0
C      1  0.5585210000000  0.4999940000000  0.5343280000000 1.0
C      1  0.4202120000000  0.5040400000000  0.4313600000000 1.0
C      1  0.4748770000000  0.5482880000000  0.4525400000000 1.0
C      1  0.4776300000000  0.5093750000000  0.5354100000000 1.0
C      1  0.3937670000000  0.4999850000000  0.4820290000000 1.0
C      1  0.5736550000000  0.4445300000000  0.4832310000000 1.0
C      1  0.5074640000000  0.5704600000000  0.4278410000000 1.0
C      1  0.4337300000000  0.5596550000000  0.4643520000000 1.0
C      1  0.4159640000000  0.4523510000000  0.5076870000000 1.0
C      1  0.5063280000000  0.5191880000000  0.5329210000000 1.0
C      1  0.4580980000000  0.5194300000000  0.4148230000000 1.0
C      1  0.4931180000000  0.4832610000000  0.4694110000000 1.0
C      1  0.5233620000000  0.5641760000000  0.5071190000000 1.0
C      1  0.5208250000000  0.5130240000000  0.5022270000000 1.0
C      1  0.5948540000000  0.5578070000000  0.5378270000000 1.0
C      1  0.5241120000000  0.4678500000000  0.5397100000000 1.0
C      1  0.5576410000000  0.5938290000000  0.4990050000000 1.0
C      1  0.5474860000000  0.5403600000000  0.4271120000000 1.0
C      1  0.5954060000000  0.4538510000000  0.4646510000000 1.0
C      1  0.4911280000000  0.4999970000000  0.4450970000000 1.0
C      1  0.4794320000000  0.4407320000000  0.5769020000000 1.0
C      1  0.5173930000000  0.5312930000000  0.4764140000000 1.0
C      1  0.4359080000000  0.4877030000000  0.4124970000000 1.0
C      1  0.4217650000000  0.5307680000000  0.4657600000000 1.0
C      1  0.4978390000000  0.4096970000000  0.4171300000000 1.0
C      1  0.4745580000000  0.4088940000000  0.4616820000000 1.0
C      1  0.4852600000000  0.5975120000000  0.4868270000000 1.0
C      1  0.5524530000000  0.4725380000000  0.5295790000000 1.0
C      1  0.4771650000000  0.4571330000000  0.5183980000000 1.0
C      1  0.5450430000000  0.4449460000000  0.4326290000000 1.0
C      1  0.5491490000000  0.4955920000000  0.4050060000000 1.0
C      1  0.4231450000000  0.5568330000000  0.4370970000000 1.0
C      1  0.5020950000000  0.4869060000000  0.3962480000000 1.0
C      1  0.5130160000000  0.5772940000000  0.5801500000000 1.0
C      1  0.6096170000000  0.4625520000000  0.5091450000000 1.0
C      1  0.5857880000000  0.5460360000000  0.5632300000000 1.0
C      1  0.4970180000000  0.5429690000000  0.4306840000000 1.0
C      1  0.5675300000000  0.5047860000000  0.5826860000000 1.0
C      1  0.4396260000000  0.5076810000000  0.4793960000000 1.0
C      1  0.5212930000000  0.4602110000000  0.5018070000000 1.0
C      1  0.4578380000000  0.5324900000000  0.5370290000000 1.0
C      1  0.4008930000000  0.4925590000000  0.5404590000000 1.0
C      1  0.5703110000000  0.4601110000000  0.4285770000000 1.0
C      1  0.4848780000000  0.4629540000000  0.5949790000000 1.0
C      1  0.5455410000000  0.5765540000000  0.5208840000000 1.0
C      1  0.4647930000000  0.5153920000000  0.4440770000000 1.0
C      1  0.4311340000000  0.4236090000000  0.4718530000000 1.0
C      1  0.5898290000000  0.5157920000000  0.5644820000000 1.0
C      1  0.5826510000000  0.5855190000000  0.4896650000000 1.0
C      1  0.4897660000000  0.5454370000000  0.4791450000000 1.0
C      1  0.4250840000000  0.5678230000000  0.5342830000000 1.0
C      1  0.4753130000000  0.4948330000000  0.5096570000000 1.0
C      1  0.5868520000000  0.4396820000000  0.5109460000000 1.0
C      1  0.4180360000000  0.4798030000000  0.5620050000000 1.0
C      1  0.4691930000000  0.4887780000000  0.5541790000000 1.0
C      1  0.5395450000000  0.4907780000000  0.4514760000000 1.0
C      1  0.4648140000000  0.5171580000000  0.4916500000000 1.0
C      1  0.5628360000000  0.4888940000000  0.4304660000000 1.0
C      1  0.5351070000000  0.4591510000000  0.5807320000000 1.0
C      1  0.5237060000000  0.4867260000000  0.6167600000000 1.0
C      1  0.6098280000000  0.4765560000000  0.4742190000000 1.0
C      1  0.5773530000000  0.5118050000000  0.4837420000000 1.0
C      1  0.4029840000000  0.4901330000000  0.4540500000000 1.0
C      1  0.3942710000000  0.5300780000000  0.4781640000000 1.0
C      1  0.5521260000000  0.4925420000000  0.4787010000000 1.0
C      1  0.4729690000000  0.4896390000000  0.5847360000000 1.0
C      1  0.4737600000000  0.4620790000000  0.4646540000000 1.0
C      1  0.4532150000000  0.4681310000000  0.5378790000000 1.0
C      1  0.4783490000000  0.5968900000000  0.5352410000000 1.0
C      1  0.4686410000000  0.5857340000000  0.5089340000000 1.0
C      1  0.5349290000000  0.5655040000000  0.4350140000000 1.0
C      1  0.5482460000000  0.5824070000000  0.4537460000000 1.0
C      1  0.5730920000000  0.5351870000000  0.4414880000000 1.0
C      1  0.4769530000000  0.4069260000000  0.5258480000000 1.0
C      1  0.4204320000000  0.4662400000000  0.4553280000000 1.0
C      1  0.5917250000000  0.5174340000000  0.5106630000000 1.0
C      1  0.5567230000000  0.4181080000000  0.5220590000000 1.0
C      1  0.4302980000000  0.4534280000000  0.5659470000000 1.0
C      1  0.4986970000000  0.4475440000000  0.5384870000000 1.0
C      1  0.5898740000000  0.5587420000000  0.4867080000000 1.0
C      1  0.5330970000000  0.4189790000000  0.5389950000000 1.0
C      1  0.5511940000000  0.4059810000000  0.4961770000000 1.0
C      1  0.5335470000000  0.5916330000000  0.5432930000000 1.0
C      1  0.4686900000000  0.5783330000000  0.5564500000000 1.0
C      1  0.5856420000000  0.5080500000000  0.4379460000000 1.0
C      1  0.5946390000000  0.4502650000000  0.4370800000000 1.0
C      1  0.5236590000000  0.4048550000000  0.4578720000000 1.0
C      1  0.4529280000000  0.4345030000000  0.5643050000000 1.0
C      1  0.5115170000000  0.5833930000000  0.4859200000000 1.0
C      1  0.5486870000000  0.4642090000000  0.4866100000000 1.0
C      1  0.4253320000000  0.4986860000000  0.5042120000000 1.0
C      1  0.5234030000000  0.4076780000000  0.4867540000000 1.0
C      1  0.5479900000000  0.5213960000000  0.5177690000000 1.0
C      1  0.5449920000000  0.5241380000000  0.5810130000000 1.0
C      1  0.4192610000000  0.4504880000000  0.4300900000000 1.0
C      1  0.5150480000000  0.4643390000000  0.6015110000000 1.0
C      1  0.4148980000000  0.4469980000000  0.4778190000000 1.0
C      1  0.5578360000000  0.5488060000000  0.5302900000000 1.0
C      1  0.4467360000000  0.4429250000000  0.4282590000000 1.0
C      1  0.5873610000000  0.5022340000000  0.5365300000000 1.0
C      1  0.5049020000000  0.4207520000000  0.5252450000000 1.0
C      1  0.4408120000000  0.4121070000000  0.4963960000000 1.0
C      1  0.4675800000000  0.4001880000000  0.4983960000000 1.0
C      1  0.4945030000000  0.5639290000000  0.5589500000000 1.0
C      1  0.5704060000000  0.5401280000000  0.4720380000000 1.0
C      1  0.3934780000000  0.4787580000000  0.5137500000000 1.0
C      1  0.5485210000000  0.4174460000000  0.4478080000000 1.0
C      1  0.4133050000000  0.5263530000000  0.5724420000000 1.0
C      1  0.4795310000000  0.5572040000000  0.5071500000000 1.0
C      1  0.4749350000000  0.4395250000000  0.4884280000000 1.0
C      1  0.4368660000000  0.4732280000000  0.5123020000000 1.0
END
