TITL C-951341-1326-467 -1.76362686918374e-06 125000 -775.731964539896 0 0 126 (C1) n - 1
REM
REM in /home/bkarasulu/work/CARBON/AIRSS/Generating-Clusters/EDIP-Nigel-Params/with-SteepDescent/Only-C1/SD-CG/HFTN-CG
REM
REM
REM
REM
REM
REM ./C.cell (11c1c37f851c82e70ff6c80c92926a4b)
REM
REM compiler GCC version 9.2.1 20190827 (Red Hat 9.2.1-1)
REM options -cpp -mtune=generic -march=x86-64 -g -O0 -fpre-include=/usr/include/finclude/math-vector-fortran.h
REM seed 1257455638 -1882087043 -1220985685 -1539121047 727952481 -1749936241 131327382 1880784519 848138736 647631750 290632246 716887340 72370449 -1878028487 -1796451554 -1548725276 1512732037 495044490 -1839692193 -765851787 2005326251 1831974644 -1514493628 -1903952536 1933668991 -1314278532 2002910877 -1998215728 -1138929926 -872195246 1851443677 -12005563 -1256876669
REM
CELL 1.54180   50.00000   50.00000   50.00000   90.00000   90.00000   90.00000
LATT -1
SFAC C  
C      1  0.5043760000000  0.4509100000000  0.4663740000000 1.0
C      1  0.4255240000000  0.5352790000000  0.4833560000000 1.0
C      1  0.4626520000000  0.5804370000000  0.5587950000000 1.0
C      1  0.4912340000000  0.5922390000000  0.4544640000000 1.0
C      1  0.5584800000000  0.4973660000000  0.5758960000000 1.0
C      1  0.4604020000000  0.4240450000000  0.5421740000000 1.0
C      1  0.5879210000000  0.5259810000000  0.4803430000000 1.0
C      1  0.4309730000000  0.4637960000000  0.5461090000000 1.0
C      1  0.3944210000000  0.4888970000000  0.5085790000000 1.0
C      1  0.5027690000000  0.5820450000000  0.4827120000000 1.0
C      1  0.5099400000000  0.5245510000000  0.5886520000000 1.0
C      1  0.5027790000000  0.4964940000000  0.4504300000000 1.0
C      1  0.4507810000000  0.5051700000000  0.5636900000000 1.0
C      1  0.4975230000000  0.5562430000000  0.5311740000000 1.0
C      1  0.4779900000000  0.4046970000000  0.4417640000000 1.0
C      1  0.5658490000000  0.5696770000000  0.4920580000000 1.0
C      1  0.4329490000000  0.4756770000000  0.4485260000000 1.0
C      1  0.4277310000000  0.4809830000000  0.4782080000000 1.0
C      1  0.4792320000000  0.5262490000000  0.4043880000000 1.0
C      1  0.4681340000000  0.4582410000000  0.5832990000000 1.0
C      1  0.4323810000000  0.4323570000000  0.4725250000000 1.0
C      1  0.4867280000000  0.4544810000000  0.5595640000000 1.0
C      1  0.4047820000000  0.5055090000000  0.5506670000000 1.0
C      1  0.5773520000000  0.4659580000000  0.5395840000000 1.0
C      1  0.4478210000000  0.4768760000000  0.5252890000000 1.0
C      1  0.4244600000000  0.4896830000000  0.5627770000000 1.0
C      1  0.4680270000000  0.5548500000000  0.5723010000000 1.0
C      1  0.4712890000000  0.4889760000000  0.5840510000000 1.0
C      1  0.5766840000000  0.4931990000000  0.5521780000000 1.0
C      1  0.4980550000000  0.5378370000000  0.4245770000000 1.0
C      1  0.4844290000000  0.4729150000000  0.4570500000000 1.0
C      1  0.4625040000000  0.5952190000000  0.5227320000000 1.0
C      1  0.4123150000000  0.4422710000000  0.4929800000000 1.0
C      1  0.5373410000000  0.4488860000000  0.5696460000000 1.0
C      1  0.4607620000000  0.4634580000000  0.4410840000000 1.0
C      1  0.5131090000000  0.6049880000000  0.5263030000000 1.0
C      1  0.5813720000000  0.5402280000000  0.5295980000000 1.0
C      1  0.4663830000000  0.5188300000000  0.4630710000000 1.0
C      1  0.5448880000000  0.5524060000000  0.5675880000000 1.0
C      1  0.4498060000000  0.5423500000000  0.4234500000000 1.0
C      1  0.4914260000000  0.5856200000000  0.5252970000000 1.0
C      1  0.5472110000000  0.4260370000000  0.4514060000000 1.0
C      1  0.5184880000000  0.5659940000000  0.5629320000000 1.0
C      1  0.5231550000000  0.4864240000000  0.5492100000000 1.0
C      1  0.5485900000000  0.5839680000000  0.5109110000000 1.0
C      1  0.5276140000000  0.5150090000000  0.5492080000000 1.0
C      1  0.4717350000000  0.5154560000000  0.5155890000000 1.0
C      1  0.5555830000000  0.4250700000000  0.5007670000000 1.0
C      1  0.5322500000000  0.4704100000000  0.5225130000000 1.0
C      1  0.5598500000000  0.5734260000000  0.4652620000000 1.0
C      1  0.4427680000000  0.5475790000000  0.5332570000000 1.0
C      1  0.4713790000000  0.6029970000000  0.4730510000000 1.0
C      1  0.5575980000000  0.4452230000000  0.5479560000000 1.0
C      1  0.4524080000000  0.5444630000000  0.4716610000000 1.0
C      1  0.5484450000000  0.5369530000000  0.4389150000000 1.0
C      1  0.4701670000000  0.5444710000000  0.5185190000000 1.0
C      1  0.5250940000000  0.4674120000000  0.4140530000000 1.0
C      1  0.4861530000000  0.4093450000000  0.5437580000000 1.0
C      1  0.5482860000000  0.5025620000000  0.5080100000000 1.0
C      1  0.4134000000000  0.5146970000000  0.4673420000000 1.0
C      1  0.5038680000000  0.4399060000000  0.4350960000000 1.0
C      1  0.4527180000000  0.4749890000000  0.4961990000000 1.0
C      1  0.5135560000000  0.5560340000000  0.4661430000000 1.0
C      1  0.6113400000000  0.5081870000000  0.5197680000000 1.0
C      1  0.5601990000000  0.4927210000000  0.4439060000000 1.0
C      1  0.5170090000000  0.4299640000000  0.5301850000000 1.0
C      1  0.4207410000000  0.4379390000000  0.5203780000000 1.0
C      1  0.5217180000000  0.4915900000000  0.4724880000000 1.0
C      1  0.4585340000000  0.5001940000000  0.5356620000000 1.0
C      1  0.4235330000000  0.5038050000000  0.4415680000000 1.0
C      1  0.4421290000000  0.5775040000000  0.5384460000000 1.0
C      1  0.4473390000000  0.5356660000000  0.5619740000000 1.0
C      1  0.5617690000000  0.5547260000000  0.5445420000000 1.0
C      1  0.5011330000000  0.4898370000000  0.4944080000000 1.0
C      1  0.5311050000000  0.4324550000000  0.4285900000000 1.0
C      1  0.4477730000000  0.4282850000000  0.5161650000000 1.0
C      1  0.5040230000000  0.4678890000000  0.5123740000000 1.0
C      1  0.4941320000000  0.5250790000000  0.4529050000000 1.0
C      1  0.5694270000000  0.4423090000000  0.4502270000000 1.0
C      1  0.4635340000000  0.5020240000000  0.4118630000000 1.0
C      1  0.5026400000000  0.4069510000000  0.5160300000000 1.0
C      1  0.5454380000000  0.4285400000000  0.5272830000000 1.0
C      1  0.4967430000000  0.5464090000000  0.5726140000000 1.0
C      1  0.5274980000000  0.5220310000000  0.4238070000000 1.0
C      1  0.5610450000000  0.5184180000000  0.4599660000000 1.0
C      1  0.5404450000000  0.5271990000000  0.5271050000000 1.0
C      1  0.5935510000000  0.5153050000000  0.5402270000000 1.0
C      1  0.4602600000000  0.5863890000000  0.4938300000000 1.0
C      1  0.5203120000000  0.5445490000000  0.5142750000000 1.0
C      1  0.4711430000000  0.4735100000000  0.4132830000000 1.0
C      1  0.5380390000000  0.4929370000000  0.4245470000000 1.0
C      1  0.5360150000000  0.5902680000000  0.5391200000000 1.0
C      1  0.5340520000000  0.4779900000000  0.5763310000000 1.0
C      1  0.4025210000000  0.4703990000000  0.4887060000000 1.0
C      1  0.4941930000000  0.4824760000000  0.5529300000000 1.0
C      1  0.4489100000000  0.4443090000000  0.5625770000000 1.0
C      1  0.5899790000000  0.4782960000000  0.4927820000000 1.0
C      1  0.6025480000000  0.5036390000000  0.4934970000000 1.0
C      1  0.4546760000000  0.5602250000000  0.4452040000000 1.0
C      1  0.5531140000000  0.4688790000000  0.4973480000000 1.0
C      1  0.5195250000000  0.5362840000000  0.4869730000000 1.0
C      1  0.4675310000000  0.5583140000000  0.4922960000000 1.0
C      1  0.4837710000000  0.4118100000000  0.4682620000000 1.0
C      1  0.5019990000000  0.4959760000000  0.5880680000000 1.0
C      1  0.5105410000000  0.4346060000000  0.5604980000000 1.0
C      1  0.5826440000000  0.5472770000000  0.5005110000000 1.0
C      1  0.4499470000000  0.5149520000000  0.4357600000000 1.0
C      1  0.4980850000000  0.4695070000000  0.4051390000000 1.0
C      1  0.5386550000000  0.5141860000000  0.4812270000000 1.0
C      1  0.5390940000000  0.5617700000000  0.4506520000000 1.0
C      1  0.5729030000000  0.4692800000000  0.4532400000000 1.0
C      1  0.4933210000000  0.4446140000000  0.4961460000000 1.0
C      1  0.4849040000000  0.4222710000000  0.4219680000000 1.0
C      1  0.4556990000000  0.4337380000000  0.4532100000000 1.0
C      1  0.5085580000000  0.4100590000000  0.4852790000000 1.0
C      1  0.5812270000000  0.4359500000000  0.5016870000000 1.0
C      1  0.4027660000000  0.5115410000000  0.5234730000000 1.0
C      1  0.5242420000000  0.5987420000000  0.4982280000000 1.0
C      1  0.4727280000000  0.4990920000000  0.4908900000000 1.0
C      1  0.4822430000000  0.5682760000000  0.4392890000000 1.0
C      1  0.5377860000000  0.5243120000000  0.5752570000000 1.0
C      1  0.4619770000000  0.4452020000000  0.4941810000000 1.0
C      1  0.5360710000000  0.4222870000000  0.4784920000000 1.0
C      1  0.4214370000000  0.5328710000000  0.5131920000000 1.0
C      1  0.5379940000000  0.4649340000000  0.4699520000000 1.0
C      1  0.5919030000000  0.4589630000000  0.5141610000000 1.0
END
