TITL C-950532-2784-551 9.8968586619634e-07 125000 -250.075955890721 0 0 41 (C1) n - 1
REM
REM in /home/bkarasulu/work/CARBON/AIRSS/Generating-Clusters/EDIP-Nigel-Params/with-SteepDescent/Only-C1/SD-CG/HFTN-CG
REM
REM
REM
REM
REM
REM ./C.cell (11c1c37f851c82e70ff6c80c92926a4b)
REM
REM compiler GCC version 9.2.1 20190827 (Red Hat 9.2.1-1)
REM options -cpp -mtune=generic -march=x86-64 -g -O0 -fpre-include=/usr/include/finclude/math-vector-fortran.h
REM seed 1962021155 -390020095 -364473850 -601056160 338641867 -1579949164 1388731371 2140481317 -673708513 1712333924 -39813773 1466243733 -1703084820 -1316375675 1437721019 1095892507 1066802177 -896469378 -786029265 -398037546 707149428 -444022426 620575624 1325278530 450817306 -1304363176 -2041975581 -1182163886 -364195681 2044430442 24278910 -72603838 -449226949
REM
CELL 1.54180   50.00000   50.00000   50.00000   90.00000   90.00000   90.00000
LATT -1
SFAC C  
C      1  0.4802970000000  0.5356460000000  0.4701790000000 1.0
C      1  0.5205000000000  0.5403240000000  0.5529090000000 1.0
C      1  0.5155150000000  0.5130300000000  0.5539210000000 1.0
C      1  0.4484500000000  0.4674950000000  0.4935010000000 1.0
C      1  0.5028680000000  0.5604880000000  0.5099490000000 1.0
C      1  0.5451990000000  0.4563600000000  0.5164860000000 1.0
C      1  0.4770660000000  0.4459070000000  0.4609470000000 1.0
C      1  0.4760040000000  0.4946230000000  0.5463340000000 1.0
C      1  0.4702120000000  0.4567130000000  0.5119650000000 1.0
C      1  0.5306420000000  0.5365210000000  0.4700570000000 1.0
C      1  0.4925900000000  0.5035640000000  0.5672630000000 1.0
C      1  0.5233280000000  0.5339920000000  0.4428610000000 1.0
C      1  0.4636920000000  0.5152150000000  0.5303830000000 1.0
C      1  0.5485610000000  0.5159310000000  0.4784110000000 1.0
C      1  0.4799470000000  0.5143480000000  0.4496460000000 1.0
C      1  0.5469580000000  0.4414980000000  0.4923010000000 1.0
C      1  0.4763470000000  0.4656480000000  0.5404300000000 1.0
C      1  0.5467640000000  0.4623620000000  0.4725900000000 1.0
C      1  0.4744940000000  0.5618450000000  0.5192840000000 1.0
C      1  0.5174990000000  0.4681820000000  0.5238390000000 1.0
C      1  0.5529300000000  0.5024760000000  0.5285830000000 1.0
C      1  0.5013490000000  0.4486790000000  0.4747670000000 1.0
C      1  0.4553890000000  0.5600940000000  0.4987360000000 1.0
C      1  0.5060640000000  0.5390160000000  0.4878120000000 1.0
C      1  0.5081500000000  0.5100880000000  0.4424070000000 1.0
C      1  0.5152370000000  0.4934300000000  0.4662450000000 1.0
C      1  0.4367690000000  0.4923410000000  0.4996990000000 1.0
C      1  0.4636560000000  0.4916320000000  0.4539020000000 1.0
C      1  0.5610920000000  0.4813590000000  0.5122340000000 1.0
C      1  0.4688810000000  0.5416640000000  0.5380710000000 1.0
C      1  0.4899600000000  0.4938610000000  0.4891180000000 1.0
C      1  0.4557900000000  0.5353480000000  0.4854840000000 1.0
C      1  0.5195750000000  0.5574200000000  0.5321980000000 1.0
C      1  0.5109620000000  0.5122050000000  0.5016130000000 1.0
C      1  0.5238530000000  0.4995750000000  0.5281890000000 1.0
C      1  0.4600930000000  0.5094620000000  0.5014280000000 1.0
C      1  0.5552820000000  0.4884640000000  0.4844840000000 1.0
C      1  0.5208020000000  0.4646880000000  0.4597300000000 1.0
C      1  0.4958660000000  0.4655420000000  0.4995660000000 1.0
C      1  0.5029550000000  0.4564110000000  0.5469550000000 1.0
C      1  0.4584120000000  0.4665530000000  0.4655190000000 1.0
END
