TITL C-950528-5794-141 -7.9263782660815e-06 125000 -1229.04804356904 0 0 196 (C1) n - 1
REM
REM in /home/bkarasulu/work/CARBON/AIRSS/Generating-Clusters/EDIP-Nigel-Params/with-SteepDescent/Only-C1/SD-CG/HFTN-CG
REM
REM
REM
REM
REM
REM ./C.cell (11c1c37f851c82e70ff6c80c92926a4b)
REM
REM compiler GCC version 9.2.1 20190827 (Red Hat 9.2.1-1)
REM options -cpp -mtune=generic -march=x86-64 -g -O0 -fpre-include=/usr/include/finclude/math-vector-fortran.h
REM seed 537065207 -1870983278 1539176083 874419040 -85353715 414328908 -862289001 -275196636 -1611862439 -1074111480 -1620132103 -1615362538 1271551414 212166493 -1073510800 1820826800 758463332 2038126162 -830322779 -2067253034 1449199246 -1334353692 -1258275725 1923097165 514548197 -686840490 -1267685268 -547855045 948535400 2133361084 -1004726588 1661053285 -275971207
REM
CELL 1.54180   50.00000   50.00000   50.00000   90.00000   90.00000   90.00000
LATT -1
SFAC C  
C      1  0.5154160000000  0.3999640000000  0.5136710000000 1.0
C      1  0.5107520000000  0.5871390000000  0.4173370000000 1.0
C      1  0.4570810000000  0.5673560000000  0.5831850000000 1.0
C      1  0.4915410000000  0.4492620000000  0.4460600000000 1.0
C      1  0.4535630000000  0.4837360000000  0.5710990000000 1.0
C      1  0.4517020000000  0.4399840000000  0.4638640000000 1.0
C      1  0.4077160000000  0.5659700000000  0.4671380000000 1.0
C      1  0.4309680000000  0.5651510000000  0.4980340000000 1.0
C      1  0.5007920000000  0.4768760000000  0.4326850000000 1.0
C      1  0.5186430000000  0.4880730000000  0.3894910000000 1.0
C      1  0.4200090000000  0.5658250000000  0.5266960000000 1.0
C      1  0.4312620000000  0.5330300000000  0.5936550000000 1.0
C      1  0.5338080000000  0.4289410000000  0.5513950000000 1.0
C      1  0.4986790000000  0.4889270000000  0.5734680000000 1.0
C      1  0.4046450000000  0.4643620000000  0.5019730000000 1.0
C      1  0.5251540000000  0.6102200000000  0.5069490000000 1.0
C      1  0.5516370000000  0.5470510000000  0.4188850000000 1.0
C      1  0.4399590000000  0.4115670000000  0.4533030000000 1.0
C      1  0.4860490000000  0.5258260000000  0.3899780000000 1.0
C      1  0.5075220000000  0.5150460000000  0.6136700000000 1.0
C      1  0.4002120000000  0.4966710000000  0.4617620000000 1.0
C      1  0.4575370000000  0.4788430000000  0.5407330000000 1.0
C      1  0.4862450000000  0.3883570000000  0.4619680000000 1.0
C      1  0.4341340000000  0.5350610000000  0.4847140000000 1.0
C      1  0.5642870000000  0.5575390000000  0.5532610000000 1.0
C      1  0.5390170000000  0.3839400000000  0.4753650000000 1.0
C      1  0.5075540000000  0.4172150000000  0.5604040000000 1.0
C      1  0.4513630000000  0.4663420000000  0.4870190000000 1.0
C      1  0.6017850000000  0.5204110000000  0.5621330000000 1.0
C      1  0.4308320000000  0.5594340000000  0.5762900000000 1.0
C      1  0.4070440000000  0.4369380000000  0.4905670000000 1.0
C      1  0.4120040000000  0.4131610000000  0.4477310000000 1.0
C      1  0.4414570000000  0.5335720000000  0.4081130000000 1.0
C      1  0.4583550000000  0.5583470000000  0.4156170000000 1.0
C      1  0.4606880000000  0.5891910000000  0.5381500000000 1.0
C      1  0.5625810000000  0.5901310000000  0.4804710000000 1.0
C      1  0.4819050000000  0.5544150000000  0.3956460000000 1.0
C      1  0.5678410000000  0.5040570000000  0.5543370000000 1.0
C      1  0.5447110000000  0.4759070000000  0.3972500000000 1.0
C      1  0.5093200000000  0.5893960000000  0.5430270000000 1.0
C      1  0.4508460000000  0.4445500000000  0.5100750000000 1.0
C      1  0.4196290000000  0.4432570000000  0.5472180000000 1.0
C      1  0.5737710000000  0.5777580000000  0.4559850000000 1.0
C      1  0.4732460000000  0.4370050000000  0.5817290000000 1.0
C      1  0.4678530000000  0.3984020000000  0.5332890000000 1.0
C      1  0.4774900000000  0.5860210000000  0.4878700000000 1.0
C      1  0.4381430000000  0.4595900000000  0.5307010000000 1.0
C      1  0.5122550000000  0.3806810000000  0.4886860000000 1.0
C      1  0.3846550000000  0.5039840000000  0.5064140000000 1.0
C      1  0.5890480000000  0.4841040000000  0.4243930000000 1.0
C      1  0.4235480000000  0.5360420000000  0.4326160000000 1.0
C      1  0.4970230000000  0.6221090000000  0.5107370000000 1.0
C      1  0.5884360000000  0.5123480000000  0.4315840000000 1.0
C      1  0.4623980000000  0.5248010000000  0.5978950000000 1.0
C      1  0.4140350000000  0.5122350000000  0.5791060000000 1.0
C      1  0.5828400000000  0.4930670000000  0.4761250000000 1.0
C      1  0.4186140000000  0.5857380000000  0.5690210000000 1.0
C      1  0.5125230000000  0.5526150000000  0.5839730000000 1.0
C      1  0.5849950000000  0.5180490000000  0.4601400000000 1.0
C      1  0.5379480000000  0.5419110000000  0.4718170000000 1.0
C      1  0.5970420000000  0.4633890000000  0.4426300000000 1.0
C      1  0.3791590000000  0.4762850000000  0.5039920000000 1.0
C      1  0.4606400000000  0.5033430000000  0.6174070000000 1.0
C      1  0.5273630000000  0.5847070000000  0.4416770000000 1.0
C      1  0.5342430000000  0.4209890000000  0.4487910000000 1.0
C      1  0.5391940000000  0.3925680000000  0.4485750000000 1.0
C      1  0.5590060000000  0.4535220000000  0.4959680000000 1.0
C      1  0.5045120000000  0.4645250000000  0.5541770000000 1.0
C      1  0.5534300000000  0.4357650000000  0.4313600000000 1.0
C      1  0.5471110000000  0.4765840000000  0.6133230000000 1.0
C      1  0.5604920000000  0.4989480000000  0.5244030000000 1.0
C      1  0.6020150000000  0.5617310000000  0.4744010000000 1.0
C      1  0.4964410000000  0.5189440000000  0.4600930000000 1.0
C      1  0.4895660000000  0.6049520000000  0.4163130000000 1.0
C      1  0.6079570000000  0.4719490000000  0.5410120000000 1.0
C      1  0.4987980000000  0.4695180000000  0.4029760000000 1.0
C      1  0.4074080000000  0.5249990000000  0.5527480000000 1.0
C      1  0.4672130000000  0.5118740000000  0.5708480000000 1.0
C      1  0.5718860000000  0.4502900000000  0.4477910000000 1.0
C      1  0.4757190000000  0.4800100000000  0.6137880000000 1.0
C      1  0.3938360000000  0.5127900000000  0.5313250000000 1.0
C      1  0.4712100000000  0.5445920000000  0.5186420000000 1.0
C      1  0.5612930000000  0.5826270000000  0.5325630000000 1.0
C      1  0.4812840000000  0.4347970000000  0.4791150000000 1.0
C      1  0.4620910000000  0.5777770000000  0.4630290000000 1.0
C      1  0.6070330000000  0.4778780000000  0.4668990000000 1.0
C      1  0.6124160000000  0.4841070000000  0.5137990000000 1.0
C      1  0.4692190000000  0.4791720000000  0.3986760000000 1.0
C      1  0.4340790000000  0.4186270000000  0.5071250000000 1.0
C      1  0.5583110000000  0.4745670000000  0.4741010000000 1.0
C      1  0.4637340000000  0.4440980000000  0.4348790000000 1.0
C      1  0.5150850000000  0.5192220000000  0.5082340000000 1.0
C      1  0.6127720000000  0.4625720000000  0.4916300000000 1.0
C      1  0.5150850000000  0.4405770000000  0.6075330000000 1.0
C      1  0.5893690000000  0.5408080000000  0.5451850000000 1.0
C      1  0.5701980000000  0.4507710000000  0.5655420000000 1.0
C      1  0.4287020000000  0.5075210000000  0.5067490000000 1.0
C      1  0.5081620000000  0.5097500000000  0.5551070000000 1.0
C      1  0.5046480000000  0.5010570000000  0.5286100000000 1.0
C      1  0.4134110000000  0.4754100000000  0.4474710000000 1.0
C      1  0.5402280000000  0.4464690000000  0.4058570000000 1.0
C      1  0.4941930000000  0.6223120000000  0.4609730000000 1.0
C      1  0.5222730000000  0.5161570000000  0.4762540000000 1.0
C      1  0.5167310000000  0.4274040000000  0.4998650000000 1.0
C      1  0.5079460000000  0.5626570000000  0.4036620000000 1.0
C      1  0.4785280000000  0.4823210000000  0.4867260000000 1.0
C      1  0.5024480000000  0.4879890000000  0.6043900000000 1.0
C      1  0.4800000000000  0.6160470000000  0.4875360000000 1.0
C      1  0.4358030000000  0.4842200000000  0.4316540000000 1.0
C      1  0.4247040000000  0.4844060000000  0.5776110000000 1.0
C      1  0.4872600000000  0.4391520000000  0.5541940000000 1.0
C      1  0.6019890000000  0.4895460000000  0.5646090000000 1.0
C      1  0.5632560000000  0.4920780000000  0.5969800000000 1.0
C      1  0.4560190000000  0.5294910000000  0.5436260000000 1.0
C      1  0.4984410000000  0.4228400000000  0.5940010000000 1.0
C      1  0.4784540000000  0.5106030000000  0.4814100000000 1.0
C      1  0.4611490000000  0.5726550000000  0.5113570000000 1.0
C      1  0.5516480000000  0.4910750000000  0.4214680000000 1.0
C      1  0.4869710000000  0.4022990000000  0.4356230000000 1.0
C      1  0.4289990000000  0.5894390000000  0.5425700000000 1.0
C      1  0.5928270000000  0.4220050000000  0.5336570000000 1.0
C      1  0.5078600000000  0.5797480000000  0.4895410000000 1.0
C      1  0.5136760000000  0.5173610000000  0.3953950000000 1.0
C      1  0.5418560000000  0.4281240000000  0.4843450000000 1.0
C      1  0.4659310000000  0.4648680000000  0.5908770000000 1.0
C      1  0.5517330000000  0.3955220000000  0.5218630000000 1.0
C      1  0.5067810000000  0.4265110000000  0.4335410000000 1.0
C      1  0.5240760000000  0.6111080000000  0.4568530000000 1.0
C      1  0.4647610000000  0.5105570000000  0.4037450000000 1.0
C      1  0.5549970000000  0.4017640000000  0.4929980000000 1.0
C      1  0.5058160000000  0.4708270000000  0.4814630000000 1.0
C      1  0.5990980000000  0.4185790000000  0.5065920000000 1.0
C      1  0.5001420000000  0.5436750000000  0.5168880000000 1.0
C      1  0.5281570000000  0.5424770000000  0.4024930000000 1.0
C      1  0.4931730000000  0.5364740000000  0.6023630000000 1.0
C      1  0.5674170000000  0.5722240000000  0.5040640000000 1.0
C      1  0.5385290000000  0.6018070000000  0.5343260000000 1.0
C      1  0.4445150000000  0.5303620000000  0.4537840000000 1.0
C      1  0.5284280000000  0.4853330000000  0.4407200000000 1.0
C      1  0.4785200000000  0.4339780000000  0.5200880000000 1.0
C      1  0.5080760000000  0.4560330000000  0.5067520000000 1.0
C      1  0.5822180000000  0.4742480000000  0.5830510000000 1.0
C      1  0.5397760000000  0.6085590000000  0.4811120000000 1.0
C      1  0.5575900000000  0.4213670000000  0.5653550000000 1.0
C      1  0.5705070000000  0.4051050000000  0.5435030000000 1.0
C      1  0.5359420000000  0.4586840000000  0.5482550000000 1.0
C      1  0.5876950000000  0.5002360000000  0.5052480000000 1.0
C      1  0.4866120000000  0.6084790000000  0.5351320000000 1.0
C      1  0.6063840000000  0.5329890000000  0.4738720000000 1.0
C      1  0.4607740000000  0.5275150000000  0.4966490000000 1.0
C      1  0.4452980000000  0.4059280000000  0.5530330000000 1.0
C      1  0.4380390000000  0.5821520000000  0.4254790000000 1.0
C      1  0.5299860000000  0.4868710000000  0.4696010000000 1.0
C      1  0.4472250000000  0.5042470000000  0.5303940000000 1.0
C      1  0.4506170000000  0.4643370000000  0.4161550000000 1.0
C      1  0.5511830000000  0.5116600000000  0.5780290000000 1.0
C      1  0.5894340000000  0.4493190000000  0.5432570000000 1.0
C      1  0.5435280000000  0.5254090000000  0.5166100000000 1.0
C      1  0.5539260000000  0.5449040000000  0.4963920000000 1.0
C      1  0.4916550000000  0.4751570000000  0.5284790000000 1.0
C      1  0.5469390000000  0.4701280000000  0.5212100000000 1.0
C      1  0.4816680000000  0.4049550000000  0.4864880000000 1.0
C      1  0.4722630000000  0.5726530000000  0.5613130000000 1.0
C      1  0.4159650000000  0.5643560000000  0.4385890000000 1.0
C      1  0.5389260000000  0.5452550000000  0.5383430000000 1.0
C      1  0.6098930000000  0.5220890000000  0.5025510000000 1.0
C      1  0.4540890000000  0.5021580000000  0.4456150000000 1.0
C      1  0.4234710000000  0.4155760000000  0.5358670000000 1.0
C      1  0.4466020000000  0.4241560000000  0.5770070000000 1.0
C      1  0.4754820000000  0.6161670000000  0.4377110000000 1.0
C      1  0.4832530000000  0.5020760000000  0.4372070000000 1.0
C      1  0.4581210000000  0.3982240000000  0.5044860000000 1.0
C      1  0.3920520000000  0.5444950000000  0.4758820000000 1.0
C      1  0.4596610000000  0.4130160000000  0.4296290000000 1.0
C      1  0.4941880000000  0.5464580000000  0.4531490000000 1.0
C      1  0.5691070000000  0.5249440000000  0.4148270000000 1.0
C      1  0.5903230000000  0.4431500000000  0.4950060000000 1.0
C      1  0.4289990000000  0.5452250000000  0.5484790000000 1.0
C      1  0.4999390000000  0.5761110000000  0.5689130000000 1.0
C      1  0.5546200000000  0.5730910000000  0.4341290000000 1.0
C      1  0.4662610000000  0.5530870000000  0.4469320000000 1.0
C      1  0.5151630000000  0.5685310000000  0.5179300000000 1.0
C      1  0.4976340000000  0.3986170000000  0.5385560000000 1.0
C      1  0.3959800000000  0.4311030000000  0.4637330000000 1.0
C      1  0.5473950000000  0.5420020000000  0.5811690000000 1.0
C      1  0.4260870000000  0.4459930000000  0.5755100000000 1.0
C      1  0.4515110000000  0.5993630000000  0.4464210000000 1.0
C      1  0.5167510000000  0.5369650000000  0.5574520000000 1.0
C      1  0.5965570000000  0.5676710000000  0.5026870000000 1.0
C      1  0.4008210000000  0.4502330000000  0.4423940000000 1.0
C      1  0.5110170000000  0.4399070000000  0.4056570000000 1.0
C      1  0.5214730000000  0.4671450000000  0.6129780000000 1.0
C      1  0.4244450000000  0.4827180000000  0.4890770000000 1.0
C      1  0.5169860000000  0.5633450000000  0.4637970000000 1.0
C      1  0.6045650000000  0.5454190000000  0.5204210000000 1.0
C      1  0.3937910000000  0.5168480000000  0.4816090000000 1.0
END
