TITL C-950524-1808-323 3.61184474317543e-06 125000 -1217.20109207437 0 0 195 (C1) n - 1
REM
REM in /home/bkarasulu/work/CARBON/AIRSS/Generating-Clusters/EDIP-Nigel-Params/with-SteepDescent/Only-C1/SD-CG/HFTN-CG
REM
REM
REM
REM
REM
REM ./C.cell (11c1c37f851c82e70ff6c80c92926a4b)
REM
REM compiler GCC version 9.2.1 20190827 (Red Hat 9.2.1-1)
REM options -cpp -mtune=generic -march=x86-64 -g -O0 -fpre-include=/usr/include/finclude/math-vector-fortran.h
REM seed -1729429204 -664648052 -1153600012 -1762268147 -812164018 302304427 -364075411 1296730908 -690646275 -1431968711 -1043532797 528589557 1423846179 1682485321 1806380553 1168954427 -1216750824 -1090819330 1039949196 1151420095 -1700976368 -1793853020 -1297897332 116746767 -1105554514 1063889726 -1335981627 -1028667053 126287306 1259102113 -1412615193 632171296 1249773301
REM
CELL 1.54180   50.00000   50.00000   50.00000   90.00000   90.00000   90.00000
LATT -1
SFAC C  
C      1  0.4611010000000  0.3983570000000  0.4589040000000 1.0
C      1  0.4502830000000  0.4997550000000  0.5818720000000 1.0
C      1  0.5071840000000  0.4922010000000  0.3776350000000 1.0
C      1  0.5418940000000  0.4501820000000  0.4672370000000 1.0
C      1  0.4926140000000  0.5817640000000  0.4168980000000 1.0
C      1  0.5498470000000  0.4080340000000  0.4565600000000 1.0
C      1  0.5511620000000  0.5927130000000  0.5085320000000 1.0
C      1  0.5728750000000  0.4692700000000  0.4094530000000 1.0
C      1  0.3904630000000  0.4922880000000  0.5057900000000 1.0
C      1  0.4721620000000  0.6037610000000  0.5443830000000 1.0
C      1  0.4533150000000  0.4012310000000  0.4869710000000 1.0
C      1  0.6083710000000  0.5116230000000  0.5256280000000 1.0
C      1  0.4717780000000  0.4811450000000  0.5296620000000 1.0
C      1  0.5199930000000  0.5973200000000  0.5504350000000 1.0
C      1  0.4870000000000  0.4501220000000  0.3997710000000 1.0
C      1  0.6145590000000  0.5010950000000  0.5001400000000 1.0
C      1  0.3903300000000  0.4686090000000  0.4653620000000 1.0
C      1  0.5281210000000  0.4848310000000  0.4197000000000 1.0
C      1  0.5183260000000  0.4719730000000  0.6046240000000 1.0
C      1  0.5027010000000  0.4938520000000  0.4075650000000 1.0
C      1  0.4386150000000  0.5198030000000  0.5216250000000 1.0
C      1  0.5348650000000  0.5647890000000  0.5771790000000 1.0
C      1  0.5554980000000  0.3995990000000  0.4834550000000 1.0
C      1  0.4058710000000  0.4467430000000  0.4743620000000 1.0
C      1  0.5087970000000  0.4304390000000  0.5632480000000 1.0
C      1  0.5638500000000  0.5795870000000  0.4621670000000 1.0
C      1  0.5474710000000  0.5929170000000  0.5391780000000 1.0
C      1  0.5058220000000  0.5500110000000  0.5282210000000 1.0
C      1  0.5869150000000  0.5502930000000  0.5538690000000 1.0
C      1  0.4322590000000  0.4956700000000  0.4533840000000 1.0
C      1  0.4537950000000  0.6007880000000  0.5200160000000 1.0
C      1  0.6057940000000  0.5414010000000  0.5323000000000 1.0
C      1  0.4548580000000  0.4099360000000  0.5417760000000 1.0
C      1  0.5889670000000  0.5393790000000  0.4583480000000 1.0
C      1  0.5305530000000  0.4765420000000  0.5162820000000 1.0
C      1  0.4253130000000  0.5782060000000  0.5342100000000 1.0
C      1  0.4594090000000  0.4675230000000  0.6149660000000 1.0
C      1  0.4864810000000  0.5175510000000  0.6088600000000 1.0
C      1  0.4991640000000  0.6122040000000  0.5365480000000 1.0
C      1  0.5400830000000  0.5639030000000  0.4739260000000 1.0
C      1  0.5275140000000  0.5132410000000  0.4829420000000 1.0
C      1  0.4883660000000  0.5059250000000  0.5411300000000 1.0
C      1  0.4316760000000  0.4546260000000  0.4274520000000 1.0
C      1  0.4736700000000  0.5283940000000  0.5530190000000 1.0
C      1  0.4904960000000  0.5820520000000  0.5950240000000 1.0
C      1  0.5081550000000  0.5364870000000  0.6073680000000 1.0
C      1  0.5482800000000  0.5618230000000  0.5031880000000 1.0
C      1  0.4939370000000  0.4243030000000  0.5980710000000 1.0
C      1  0.4987900000000  0.6075380000000  0.5075020000000 1.0
C      1  0.5736600000000  0.5464880000000  0.5022910000000 1.0
C      1  0.4612120000000  0.5254180000000  0.5950350000000 1.0
C      1  0.4965140000000  0.4921230000000  0.5943320000000 1.0
C      1  0.4447070000000  0.4290100000000  0.4182370000000 1.0
C      1  0.6070250000000  0.4747790000000  0.4551120000000 1.0
C      1  0.4784260000000  0.4420170000000  0.5098570000000 1.0
C      1  0.5876510000000  0.4532240000000  0.4653090000000 1.0
C      1  0.4459630000000  0.4616530000000  0.5512940000000 1.0
C      1  0.5360850000000  0.4980950000000  0.4424250000000 1.0
C      1  0.5162600000000  0.4929050000000  0.4638880000000 1.0
C      1  0.4668950000000  0.5422000000000  0.4006940000000 1.0
C      1  0.4262710000000  0.4913840000000  0.5972250000000 1.0
C      1  0.4432470000000  0.5590850000000  0.4903290000000 1.0
C      1  0.4851600000000  0.4298530000000  0.4787000000000 1.0
C      1  0.4497830000000  0.5652210000000  0.4472740000000 1.0
C      1  0.5003970000000  0.3883760000000  0.4847330000000 1.0
C      1  0.5317500000000  0.5504130000000  0.4146490000000 1.0
C      1  0.5609410000000  0.4785380000000  0.5014600000000 1.0
C      1  0.5776400000000  0.5606690000000  0.4440510000000 1.0
C      1  0.3911430000000  0.5408510000000  0.5304280000000 1.0
C      1  0.5936190000000  0.4931740000000  0.5423600000000 1.0
C      1  0.5529340000000  0.5654530000000  0.5520820000000 1.0
C      1  0.4697380000000  0.4301690000000  0.5836920000000 1.0
C      1  0.4287860000000  0.4776950000000  0.4083460000000 1.0
C      1  0.5542850000000  0.5087440000000  0.5543230000000 1.0
C      1  0.4302530000000  0.4156070000000  0.5296970000000 1.0
C      1  0.5891890000000  0.4643800000000  0.5383560000000 1.0
C      1  0.4896100000000  0.3924200000000  0.4559380000000 1.0
C      1  0.4576890000000  0.5706880000000  0.5139200000000 1.0
C      1  0.5865450000000  0.4862300000000  0.4309640000000 1.0
C      1  0.5329220000000  0.5363120000000  0.4644920000000 1.0
C      1  0.4715610000000  0.4560100000000  0.5690130000000 1.0
C      1  0.5298440000000  0.4182050000000  0.4388910000000 1.0
C      1  0.5149920000000  0.5413150000000  0.5781080000000 1.0
C      1  0.5262680000000  0.5073610000000  0.5119790000000 1.0
C      1  0.4746910000000  0.5770650000000  0.5598840000000 1.0
C      1  0.4674610000000  0.4303510000000  0.4018910000000 1.0
C      1  0.4701770000000  0.6087530000000  0.4946180000000 1.0
C      1  0.4459620000000  0.4944230000000  0.5490900000000 1.0
C      1  0.4128390000000  0.4348300000000  0.5193270000000 1.0
C      1  0.5486790000000  0.4841760000000  0.3981170000000 1.0
C      1  0.4898080000000  0.5426740000000  0.4672190000000 1.0
C      1  0.5805920000000  0.5876000000000  0.4865150000000 1.0
C      1  0.5422220000000  0.4380830000000  0.4974810000000 1.0
C      1  0.5732810000000  0.4761080000000  0.5836500000000 1.0
C      1  0.3954290000000  0.4931880000000  0.4782520000000 1.0
C      1  0.5490920000000  0.5119990000000  0.6036750000000 1.0
C      1  0.5140570000000  0.5186650000000  0.3707180000000 1.0
C      1  0.4198410000000  0.5736670000000  0.4781800000000 1.0
C      1  0.5657640000000  0.4429410000000  0.4191670000000 1.0
C      1  0.5298520000000  0.4064260000000  0.5256400000000 1.0
C      1  0.5144350000000  0.5858290000000  0.5771350000000 1.0
C      1  0.4674490000000  0.5251540000000  0.4242280000000 1.0
C      1  0.4630850000000  0.4822580000000  0.5012250000000 1.0
C      1  0.4769820000000  0.3928380000000  0.5032550000000 1.0
C      1  0.4968860000000  0.5227570000000  0.4159260000000 1.0
C      1  0.4330120000000  0.4730450000000  0.6173550000000 1.0
C      1  0.5159370000000  0.4629840000000  0.4704300000000 1.0
C      1  0.5738880000000  0.5144730000000  0.4998320000000 1.0
C      1  0.5303890000000  0.5249650000000  0.6199520000000 1.0
C      1  0.4104270000000  0.5330990000000  0.4459370000000 1.0
C      1  0.5738610000000  0.4534920000000  0.5140310000000 1.0
C      1  0.4461340000000  0.4099370000000  0.4383350000000 1.0
C      1  0.4182630000000  0.4562770000000  0.5637770000000 1.0
C      1  0.5752900000000  0.4545550000000  0.5628260000000 1.0
C      1  0.5917530000000  0.4394270000000  0.4923980000000 1.0
C      1  0.6156560000000  0.5619630000000  0.5148470000000 1.0
C      1  0.5153200000000  0.4434270000000  0.5992310000000 1.0
C      1  0.4857480000000  0.5249060000000  0.4923850000000 1.0
C      1  0.4888580000000  0.5699620000000  0.5094430000000 1.0
C      1  0.5440960000000  0.4842250000000  0.5923720000000 1.0
C      1  0.5849000000000  0.5317700000000  0.5762360000000 1.0
C      1  0.5178900000000  0.4462340000000  0.3948180000000 1.0
C      1  0.5782640000000  0.4126480000000  0.4989400000000 1.0
C      1  0.6079540000000  0.4993360000000  0.4727030000000 1.0
C      1  0.4365540000000  0.4750010000000  0.4973880000000 1.0
C      1  0.5798590000000  0.4359740000000  0.4429400000000 1.0
C      1  0.5957220000000  0.5634120000000  0.4950590000000 1.0
C      1  0.4014100000000  0.5341890000000  0.4938840000000 1.0
C      1  0.5374380000000  0.5500060000000  0.5292420000000 1.0
C      1  0.4661460000000  0.5895240000000  0.4330820000000 1.0
C      1  0.3960110000000  0.5644900000000  0.4930470000000 1.0
C      1  0.4320040000000  0.5312110000000  0.4945940000000 1.0
C      1  0.5182560000000  0.5833020000000  0.4734600000000 1.0
C      1  0.4929010000000  0.5504290000000  0.5561730000000 1.0
C      1  0.5620360000000  0.5502420000000  0.4212280000000 1.0
C      1  0.4708650000000  0.5030210000000  0.4814780000000 1.0
C      1  0.4617490000000  0.5770600000000  0.5874810000000 1.0
C      1  0.4345260000000  0.4537940000000  0.4782350000000 1.0
C      1  0.5288060000000  0.4702530000000  0.3780520000000 1.0
C      1  0.4142930000000  0.5460830000000  0.5723580000000 1.0
C      1  0.5322390000000  0.3892980000000  0.5011810000000 1.0
C      1  0.4571450000000  0.4102160000000  0.5692810000000 1.0
C      1  0.5533110000000  0.4207000000000  0.5347200000000 1.0
C      1  0.5076950000000  0.5044030000000  0.5678140000000 1.0
C      1  0.4281520000000  0.5052920000000  0.4256560000000 1.0
C      1  0.5286700000000  0.4663100000000  0.5465200000000 1.0
C      1  0.3951120000000  0.4830000000000  0.5317210000000 1.0
C      1  0.4630560000000  0.5380360000000  0.4511660000000 1.0
C      1  0.4867490000000  0.4947860000000  0.4581360000000 1.0
C      1  0.4360770000000  0.5590670000000  0.5561910000000 1.0
C      1  0.5119210000000  0.4579470000000  0.5001160000000 1.0
C      1  0.5738450000000  0.5261480000000  0.4096840000000 1.0
C      1  0.5823600000000  0.5135830000000  0.4696070000000 1.0
C      1  0.4938140000000  0.4481440000000  0.4550830000000 1.0
C      1  0.4458400000000  0.5517440000000  0.5931390000000 1.0
C      1  0.4465220000000  0.5165340000000  0.4699950000000 1.0
C      1  0.4701110000000  0.4778850000000  0.5902220000000 1.0
C      1  0.5492720000000  0.4434650000000  0.5536550000000 1.0
C      1  0.5019450000000  0.4130940000000  0.4401040000000 1.0
C      1  0.3978670000000  0.4312110000000  0.4959880000000 1.0
C      1  0.4549790000000  0.4886070000000  0.4028050000000 1.0
C      1  0.5564070000000  0.5271270000000  0.5793070000000 1.0
C      1  0.5781380000000  0.4092880000000  0.5272510000000 1.0
C      1  0.3946090000000  0.5210350000000  0.4675350000000 1.0
C      1  0.4038580000000  0.4554000000000  0.5379400000000 1.0
C      1  0.5333790000000  0.4901860000000  0.5641400000000 1.0
C      1  0.5956820000000  0.5111540000000  0.4192490000000 1.0
C      1  0.4755420000000  0.4708590000000  0.4448030000000 1.0
C      1  0.5475920000000  0.5213160000000  0.5272630000000 1.0
C      1  0.4445660000000  0.4677020000000  0.4516860000000 1.0
C      1  0.5314600000000  0.5309170000000  0.3893690000000 1.0
C      1  0.3971580000000  0.5288130000000  0.5559190000000 1.0
C      1  0.5550350000000  0.5134950000000  0.3917780000000 1.0
C      1  0.5630400000000  0.4697520000000  0.4712820000000 1.0
C      1  0.5154420000000  0.4182000000000  0.4808530000000 1.0
C      1  0.5008030000000  0.5214980000000  0.5181420000000 1.0
C      1  0.5195510000000  0.5761350000000  0.4103270000000 1.0
C      1  0.4078930000000  0.4816360000000  0.5767260000000 1.0
C      1  0.4796140000000  0.4133890000000  0.5253010000000 1.0
C      1  0.3989490000000  0.5679490000000  0.5228570000000 1.0
C      1  0.4721850000000  0.5697590000000  0.4005450000000 1.0
C      1  0.4501810000000  0.5375220000000  0.5408250000000 1.0
C      1  0.5053810000000  0.4103670000000  0.5409060000000 1.0
C      1  0.5255900000000  0.6033350000000  0.4936060000000 1.0
C      1  0.4495810000000  0.4312840000000  0.4946820000000 1.0
C      1  0.4026480000000  0.4998230000000  0.5541760000000 1.0
C      1  0.4923150000000  0.5706850000000  0.4789500000000 1.0
C      1  0.5891080000000  0.4999060000000  0.5704560000000 1.0
C      1  0.4793300000000  0.4755790000000  0.4138910000000 1.0
C      1  0.5370780000000  0.4371060000000  0.4179630000000 1.0
C      1  0.5155690000000  0.5364330000000  0.4388140000000 1.0
C      1  0.5645650000000  0.4936280000000  0.4521920000000 1.0
C      1  0.4192680000000  0.5617720000000  0.4494700000000 1.0
C      1  0.4992630000000  0.4563430000000  0.5528760000000 1.0
C      1  0.4694310000000  0.5887720000000  0.4711710000000 1.0
END
