TITL C-951346-9544-188 -1.75888323721343e-06 125000 -1156.58048991386 0 0 182 (C1) n - 1
REM
REM in /home/bkarasulu/work/CARBON/AIRSS/Generating-Clusters/EDIP-Nigel-Params/with-SteepDescent/Only-C1/SD-CG/HFTN-CG
REM
REM
REM
REM
REM
REM ./C.cell (11c1c37f851c82e70ff6c80c92926a4b)
REM
REM compiler GCC version 9.2.1 20190827 (Red Hat 9.2.1-1)
REM options -cpp -mtune=generic -march=x86-64 -g -O0 -fpre-include=/usr/include/finclude/math-vector-fortran.h
REM seed -199304736 1315624079 603297633 -1120109722 -1006805141 1031670067 -1895965654 -417487559 1950170761 -656115087 1483014671 -430531961 2105928800 282644936 585525522 726350315 802783125 -1477736259 -510873381 -1196980783 -1758198413 -1850926612 -155198774 720765816 -51022758 -1311259249 -255413238 1661824057 -2085065814 1970178830 -1340326471 -1777615833 160530318
REM
CELL 1.54180   50.00000   50.00000   50.00000   90.00000   90.00000   90.00000
LATT -1
SFAC C  
C      1  0.5725510000000  0.4540770000000  0.4226420000000 1.0
C      1  0.4838030000000  0.5327010000000  0.4690520000000 1.0
C      1  0.4033830000000  0.4949100000000  0.4309280000000 1.0
C      1  0.5397710000000  0.4545140000000  0.5363490000000 1.0
C      1  0.4402380000000  0.4072260000000  0.4670430000000 1.0
C      1  0.3990870000000  0.5046800000000  0.4828130000000 1.0
C      1  0.4147780000000  0.5449840000000  0.5532600000000 1.0
C      1  0.4037450000000  0.5258550000000  0.5053450000000 1.0
C      1  0.4869290000000  0.4583150000000  0.5014510000000 1.0
C      1  0.4041210000000  0.4761300000000  0.4867890000000 1.0
C      1  0.4223450000000  0.5479750000000  0.4259650000000 1.0
C      1  0.4298580000000  0.4527100000000  0.4120870000000 1.0
C      1  0.5108980000000  0.4421740000000  0.5910950000000 1.0
C      1  0.5016370000000  0.5355050000000  0.5503910000000 1.0
C      1  0.4481220000000  0.6074060000000  0.4793660000000 1.0
C      1  0.5372080000000  0.5908730000000  0.4750800000000 1.0
C      1  0.4249340000000  0.4372730000000  0.5047080000000 1.0
C      1  0.4519770000000  0.5018500000000  0.5346130000000 1.0
C      1  0.4646410000000  0.4312050000000  0.5573110000000 1.0
C      1  0.5248900000000  0.5767160000000  0.5912240000000 1.0
C      1  0.4446920000000  0.4825450000000  0.4394070000000 1.0
C      1  0.4854750000000  0.3955210000000  0.4730490000000 1.0
C      1  0.4034910000000  0.5436010000000  0.4479870000000 1.0
C      1  0.5602750000000  0.4754220000000  0.4383650000000 1.0
C      1  0.5558420000000  0.4400020000000  0.5628630000000 1.0
C      1  0.5582450000000  0.4201930000000  0.5049070000000 1.0
C      1  0.4542910000000  0.5668800000000  0.4245590000000 1.0
C      1  0.5965010000000  0.5326610000000  0.5277700000000 1.0
C      1  0.4326140000000  0.5287440000000  0.5741820000000 1.0
C      1  0.3996320000000  0.5681980000000  0.4922810000000 1.0
C      1  0.6018660000000  0.5570230000000  0.5406900000000 1.0
C      1  0.4423680000000  0.5928010000000  0.5517660000000 1.0
C      1  0.4246670000000  0.5737130000000  0.5091830000000 1.0
C      1  0.4580180000000  0.5487770000000  0.5366030000000 1.0
C      1  0.5247120000000  0.5306080000000  0.5978820000000 1.0
C      1  0.4336160000000  0.4169930000000  0.5248800000000 1.0
C      1  0.4849510000000  0.4397100000000  0.6065220000000 1.0
C      1  0.5834630000000  0.4264430000000  0.4610170000000 1.0
C      1  0.5427170000000  0.4126420000000  0.5656390000000 1.0
C      1  0.5568370000000  0.5233730000000  0.4578080000000 1.0
C      1  0.4709590000000  0.4808270000000  0.5405900000000 1.0
C      1  0.4103470000000  0.4970860000000  0.5488280000000 1.0
C      1  0.5356070000000  0.4015610000000  0.4644580000000 1.0
C      1  0.5114670000000  0.5196120000000  0.3921250000000 1.0
C      1  0.4930910000000  0.5595630000000  0.5039790000000 1.0
C      1  0.5100670000000  0.5548900000000  0.5995870000000 1.0
C      1  0.5430750000000  0.4287330000000  0.4198560000000 1.0
C      1  0.4333870000000  0.5360990000000  0.5024720000000 1.0
C      1  0.5882630000000  0.5327380000000  0.3986500000000 1.0
C      1  0.5288010000000  0.4056660000000  0.5407310000000 1.0
C      1  0.5543930000000  0.4980700000000  0.5908560000000 1.0
C      1  0.4825240000000  0.5220820000000  0.4996230000000 1.0
C      1  0.4354910000000  0.4279920000000  0.5517880000000 1.0
C      1  0.4730800000000  0.4181810000000  0.5841070000000 1.0
C      1  0.4888280000000  0.4954810000000  0.4342580000000 1.0
C      1  0.5320500000000  0.4584290000000  0.6038740000000 1.0
C      1  0.4616270000000  0.4038320000000  0.4868130000000 1.0
C      1  0.4083780000000  0.4613720000000  0.5117970000000 1.0
C      1  0.4719930000000  0.5762890000000  0.4487920000000 1.0
C      1  0.4935670000000  0.4494100000000  0.4129650000000 1.0
C      1  0.4920520000000  0.5368160000000  0.4075910000000 1.0
C      1  0.4630880000000  0.5415730000000  0.4100850000000 1.0
C      1  0.5551990000000  0.4768390000000  0.5209690000000 1.0
C      1  0.5577540000000  0.4526160000000  0.5906750000000 1.0
C      1  0.5811680000000  0.5591600000000  0.5599070000000 1.0
C      1  0.5772240000000  0.5351950000000  0.5752800000000 1.0
C      1  0.5083870000000  0.5586910000000  0.4161780000000 1.0
C      1  0.4464570000000  0.4500930000000  0.4696410000000 1.0
C      1  0.5568420000000  0.4202400000000  0.4752780000000 1.0
C      1  0.5846470000000  0.4420830000000  0.5558360000000 1.0
C      1  0.4586320000000  0.4036240000000  0.5161460000000 1.0
C      1  0.4681540000000  0.5922140000000  0.5670090000000 1.0
C      1  0.4175970000000  0.4491410000000  0.5560560000000 1.0
C      1  0.6065080000000  0.5010490000000  0.4923940000000 1.0
C      1  0.5613800000000  0.5746670000000  0.4826770000000 1.0
C      1  0.4402500000000  0.5239000000000  0.4213770000000 1.0
C      1  0.5111170000000  0.4046900000000  0.4833500000000 1.0
C      1  0.5145700000000  0.4410270000000  0.4700540000000 1.0
C      1  0.5561620000000  0.5553300000000  0.4360540000000 1.0
C      1  0.5026670000000  0.4678430000000  0.4771630000000 1.0
C      1  0.4666230000000  0.5558370000000  0.4700360000000 1.0
C      1  0.5951870000000  0.5270470000000  0.4984340000000 1.0
C      1  0.4048200000000  0.5138450000000  0.4548470000000 1.0
C      1  0.5215470000000  0.5211860000000  0.5344100000000 1.0
C      1  0.4543610000000  0.4134720000000  0.4398290000000 1.0
C      1  0.4823580000000  0.5023990000000  0.5997660000000 1.0
C      1  0.6097350000000  0.4695590000000  0.4558650000000 1.0
C      1  0.5992500000000  0.5187800000000  0.4463410000000 1.0
C      1  0.4700540000000  0.5171200000000  0.4459890000000 1.0
C      1  0.5328320000000  0.5980390000000  0.5227900000000 1.0
C      1  0.5246840000000  0.4525140000000  0.4141200000000 1.0
C      1  0.5175190000000  0.5942370000000  0.5475440000000 1.0
C      1  0.5037150000000  0.4265910000000  0.4421980000000 1.0
C      1  0.5535730000000  0.5265070000000  0.5894380000000 1.0
C      1  0.5478640000000  0.5430000000000  0.5009860000000 1.0
C      1  0.5874410000000  0.4708750000000  0.5589450000000 1.0
C      1  0.4211400000000  0.5026490000000  0.4082220000000 1.0
C      1  0.5274520000000  0.4094340000000  0.4364120000000 1.0
C      1  0.4653440000000  0.5289760000000  0.5956670000000 1.0
C      1  0.5128640000000  0.5412660000000  0.4641950000000 1.0
C      1  0.5791720000000  0.4283940000000  0.4326470000000 1.0
C      1  0.5794530000000  0.4873510000000  0.5343850000000 1.0
C      1  0.5304540000000  0.4866680000000  0.5998150000000 1.0
C      1  0.5555420000000  0.5658210000000  0.5464260000000 1.0
C      1  0.4806310000000  0.5544720000000  0.5995380000000 1.0
C      1  0.4812590000000  0.4163330000000  0.5320270000000 1.0
C      1  0.4552900000000  0.5242640000000  0.5527050000000 1.0
C      1  0.5507660000000  0.4891820000000  0.4921900000000 1.0
C      1  0.5984290000000  0.5462490000000  0.4586010000000 1.0
C      1  0.4502740000000  0.6084680000000  0.5268310000000 1.0
C      1  0.5434210000000  0.4449830000000  0.4711950000000 1.0
C      1  0.4819820000000  0.5164430000000  0.5640280000000 1.0
C      1  0.3841870000000  0.5463870000000  0.4997520000000 1.0
C      1  0.4073400000000  0.4693530000000  0.5397970000000 1.0
C      1  0.4731970000000  0.5992900000000  0.4706010000000 1.0
C      1  0.4684740000000  0.5775780000000  0.5906330000000 1.0
C      1  0.4334580000000  0.5655210000000  0.5386680000000 1.0
C      1  0.5059030000000  0.5044700000000  0.5113460000000 1.0
C      1  0.5002390000000  0.5745970000000  0.4385490000000 1.0
C      1  0.5140190000000  0.4659340000000  0.5434790000000 1.0
C      1  0.4552310000000  0.4620990000000  0.4953820000000 1.0
C      1  0.5228810000000  0.5776720000000  0.4546040000000 1.0
C      1  0.5746460000000  0.5638360000000  0.4569240000000 1.0
C      1  0.4473370000000  0.5028730000000  0.4597480000000 1.0
C      1  0.4879250000000  0.4711260000000  0.4511070000000 1.0
C      1  0.4102080000000  0.4656200000000  0.4345510000000 1.0
C      1  0.4612490000000  0.4597820000000  0.4465740000000 1.0
C      1  0.4905210000000  0.5918640000000  0.4960200000000 1.0
C      1  0.4187900000000  0.5025400000000  0.5760510000000 1.0
C      1  0.4962280000000  0.3999080000000  0.5763260000000 1.0
C      1  0.5947300000000  0.5141560000000  0.4180310000000 1.0
C      1  0.5598100000000  0.5872450000000  0.5252080000000 1.0
C      1  0.4863230000000  0.5575720000000  0.5345240000000 1.0
C      1  0.5339060000000  0.5782810000000  0.5647700000000 1.0
C      1  0.5198520000000  0.6006270000000  0.4965060000000 1.0
C      1  0.5372740000000  0.5525840000000  0.4137760000000 1.0
C      1  0.5897770000000  0.4548200000000  0.4712620000000 1.0
C      1  0.5209280000000  0.4137130000000  0.5859400000000 1.0
C      1  0.5772480000000  0.5873960000000  0.5028840000000 1.0
C      1  0.4348290000000  0.6012910000000  0.5032250000000 1.0
C      1  0.4361050000000  0.4785260000000  0.3969300000000 1.0
C      1  0.4157910000000  0.4590030000000  0.4644260000000 1.0
C      1  0.5816350000000  0.4334730000000  0.5128110000000 1.0
C      1  0.4860560000000  0.4736870000000  0.3966460000000 1.0
C      1  0.5481710000000  0.5366380000000  0.5309140000000 1.0
C      1  0.6086460000000  0.4965020000000  0.4637360000000 1.0
C      1  0.4156220000000  0.5636480000000  0.4669660000000 1.0
C      1  0.5286930000000  0.5183800000000  0.4537100000000 1.0
C      1  0.4523750000000  0.4919220000000  0.4873270000000 1.0
C      1  0.5006050000000  0.4572990000000  0.5669540000000 1.0
C      1  0.4947420000000  0.4779560000000  0.5238610000000 1.0
C      1  0.5392090000000  0.5277860000000  0.3993020000000 1.0
C      1  0.4790050000000  0.6033840000000  0.5217750000000 1.0
C      1  0.5736480000000  0.4770880000000  0.5848880000000 1.0
C      1  0.4030670000000  0.5223390000000  0.5360110000000 1.0
C      1  0.4568680000000  0.4686760000000  0.5874640000000 1.0
C      1  0.4631370000000  0.4891870000000  0.4057070000000 1.0
C      1  0.5986840000000  0.4803950000000  0.5115700000000 1.0
C      1  0.5002450000000  0.3978930000000  0.5465410000000 1.0
C      1  0.5655440000000  0.5178430000000  0.3930620000000 1.0
C      1  0.5966920000000  0.4534460000000  0.4999980000000 1.0
C      1  0.4545100000000  0.5130990000000  0.5071540000000 1.0
C      1  0.4332980000000  0.4829260000000  0.5885570000000 1.0
C      1  0.4714290000000  0.4606830000000  0.5628970000000 1.0
C      1  0.4172510000000  0.4237140000000  0.4772040000000 1.0
C      1  0.4823040000000  0.4056030000000  0.4459660000000 1.0
C      1  0.5325820000000  0.4281850000000  0.5204140000000 1.0
C      1  0.5330830000000  0.4767330000000  0.4286170000000 1.0
C      1  0.4726530000000  0.4664610000000  0.6102370000000 1.0
C      1  0.6099410000000  0.5475160000000  0.4840600000000 1.0
C      1  0.5108470000000  0.5065210000000  0.6061070000000 1.0
C      1  0.5186320000000  0.5029500000000  0.4290880000000 1.0
C      1  0.5208310000000  0.4915500000000  0.4878330000000 1.0
C      1  0.5192560000000  0.5457910000000  0.4927630000000 1.0
C      1  0.5071440000000  0.4914080000000  0.3907250000000 1.0
C      1  0.4885560000000  0.5872080000000  0.5446640000000 1.0
C      1  0.5631510000000  0.5204370000000  0.4869610000000 1.0
C      1  0.5615910000000  0.4684630000000  0.4683110000000 1.0
C      1  0.5001200000000  0.4303670000000  0.5100210000000 1.0
C      1  0.5743560000000  0.5192120000000  0.5404560000000 1.0
C      1  0.4572730000000  0.4403990000000  0.4239170000000 1.0
C      1  0.4390630000000  0.5479700000000  0.4760500000000 1.0
END
