TITL C-950534-5965-236 2.23704580429155e-07 125000 -680.453756851006 0 0 109 (C1) n - 1
REM
REM in /home/bkarasulu/work/CARBON/AIRSS/Generating-Clusters/EDIP-Nigel-Params/with-SteepDescent/Only-C1/SD-CG/HFTN-CG
REM
REM
REM
REM
REM
REM ./C.cell (11c1c37f851c82e70ff6c80c92926a4b)
REM
REM compiler GCC version 9.2.1 20190827 (Red Hat 9.2.1-1)
REM options -cpp -mtune=generic -march=x86-64 -g -O0 -fpre-include=/usr/include/finclude/math-vector-fortran.h
REM seed -1915570730 -805553693 269461552 1908105665 -717035488 513619258 1686078245 941685035 -436636982 43257868 1721740279 1209846345 228855452 338010763 1445212503 482857805 391967376 488634528 36939691 -1851522983 -34911899 -2109080059 -558764124 797097712 1123616221 556875972 928069991 -817214195 -1581714631 1615019227 732427328 -86785147 -836712284
REM
CELL 1.54180   50.00000   50.00000   50.00000   90.00000   90.00000   90.00000
LATT -1
SFAC C  
C      1  0.4450200000000  0.4183900000000  0.4700220000000 1.0
C      1  0.5660950000000  0.5291980000000  0.5537810000000 1.0
C      1  0.4811360000000  0.4075590000000  0.4995840000000 1.0
C      1  0.5487860000000  0.5745230000000  0.4951200000000 1.0
C      1  0.5088770000000  0.4424390000000  0.5222610000000 1.0
C      1  0.4810300000000  0.4768090000000  0.4957830000000 1.0
C      1  0.4418340000000  0.4600830000000  0.4414690000000 1.0
C      1  0.4542510000000  0.4835180000000  0.5599670000000 1.0
C      1  0.4788590000000  0.4848490000000  0.5771280000000 1.0
C      1  0.4159500000000  0.5608430000000  0.5322310000000 1.0
C      1  0.5158500000000  0.5773500000000  0.5445890000000 1.0
C      1  0.4587110000000  0.5134290000000  0.4194670000000 1.0
C      1  0.4262500000000  0.5196380000000  0.5508880000000 1.0
C      1  0.4567110000000  0.5804790000000  0.4907040000000 1.0
C      1  0.4914880000000  0.4546500000000  0.5784680000000 1.0
C      1  0.5214780000000  0.4533180000000  0.5760560000000 1.0
C      1  0.5832500000000  0.4977240000000  0.4479090000000 1.0
C      1  0.5500710000000  0.4812380000000  0.4819170000000 1.0
C      1  0.5058900000000  0.4128910000000  0.5124020000000 1.0
C      1  0.5308740000000  0.4918690000000  0.4618340000000 1.0
C      1  0.5202520000000  0.4767180000000  0.4150130000000 1.0
C      1  0.5362320000000  0.5302880000000  0.4911150000000 1.0
C      1  0.5217360000000  0.5389700000000  0.5674500000000 1.0
C      1  0.5255880000000  0.4302350000000  0.4705050000000 1.0
C      1  0.5491310000000  0.4720100000000  0.5368420000000 1.0
C      1  0.4585210000000  0.5239710000000  0.4736130000000 1.0
C      1  0.4339790000000  0.5460520000000  0.5472750000000 1.0
C      1  0.5933990000000  0.4912620000000  0.5202620000000 1.0
C      1  0.5810110000000  0.5422100000000  0.4679520000000 1.0
C      1  0.5510980000000  0.4919590000000  0.5823360000000 1.0
C      1  0.5660340000000  0.4780630000000  0.4331090000000 1.0
C      1  0.4974350000000  0.5081150000000  0.5370830000000 1.0
C      1  0.5403690000000  0.4863690000000  0.5114340000000 1.0
C      1  0.4924110000000  0.4759400000000  0.4109130000000 1.0
C      1  0.4191680000000  0.5518110000000  0.5060050000000 1.0
C      1  0.4696860000000  0.5196320000000  0.5292890000000 1.0
C      1  0.4659110000000  0.4769980000000  0.4514280000000 1.0
C      1  0.4994840000000  0.4385910000000  0.4601850000000 1.0
C      1  0.4789060000000  0.4939820000000  0.4299270000000 1.0
C      1  0.4546930000000  0.5479480000000  0.4556720000000 1.0
C      1  0.5959370000000  0.5261480000000  0.4860780000000 1.0
C      1  0.4057110000000  0.5292480000000  0.4933630000000 1.0
C      1  0.4556120000000  0.4174210000000  0.4958350000000 1.0
C      1  0.5671950000000  0.4534130000000  0.4470700000000 1.0
C      1  0.5869170000000  0.5192320000000  0.5118210000000 1.0
C      1  0.4327400000000  0.5059730000000  0.4273370000000 1.0
C      1  0.5789960000000  0.4924560000000  0.4783770000000 1.0
C      1  0.5735630000000  0.4414730000000  0.4935160000000 1.0
C      1  0.4853550000000  0.4607560000000  0.5218680000000 1.0
C      1  0.4515420000000  0.4488750000000  0.4166460000000 1.0
C      1  0.4077360000000  0.5340240000000  0.4655070000000 1.0
C      1  0.5040180000000  0.4170160000000  0.5508400000000 1.0
C      1  0.4858340000000  0.4627950000000  0.4695980000000 1.0
C      1  0.4785710000000  0.5234190000000  0.5845220000000 1.0
C      1  0.5940880000000  0.4724970000000  0.4965890000000 1.0
C      1  0.4912020000000  0.5499610000000  0.4995310000000 1.0
C      1  0.5202180000000  0.5854900000000  0.4954280000000 1.0
C      1  0.5537140000000  0.5373080000000  0.4299250000000 1.0
C      1  0.4231900000000  0.4834630000000  0.4398800000000 1.0
C      1  0.5049780000000  0.4949510000000  0.5631730000000 1.0
C      1  0.5763910000000  0.5400660000000  0.5291010000000 1.0
C      1  0.5527910000000  0.5514310000000  0.4749830000000 1.0
C      1  0.4763150000000  0.5490960000000  0.5686440000000 1.0
C      1  0.4469780000000  0.4971060000000  0.4675160000000 1.0
C      1  0.4520470000000  0.4847020000000  0.4934340000000 1.0
C      1  0.5442150000000  0.5152570000000  0.5180900000000 1.0
C      1  0.5188410000000  0.5474680000000  0.5121090000000 1.0
C      1  0.4150840000000  0.4501750000000  0.4827080000000 1.0
C      1  0.4453040000000  0.5018610000000  0.5387670000000 1.0
C      1  0.5450070000000  0.4418550000000  0.5350070000000 1.0
C      1  0.5198500000000  0.5274980000000  0.5366190000000 1.0
C      1  0.4957470000000  0.5036180000000  0.4931440000000 1.0
C      1  0.4663150000000  0.5405910000000  0.4282100000000 1.0
C      1  0.5321720000000  0.4787950000000  0.5643180000000 1.0
C      1  0.5030470000000  0.5620240000000  0.5671090000000 1.0
C      1  0.5293270000000  0.4305100000000  0.5590140000000 1.0
C      1  0.5501080000000  0.5497210000000  0.5672450000000 1.0
C      1  0.5588540000000  0.5640680000000  0.5216660000000 1.0
C      1  0.4943500000000  0.5418560000000  0.4301000000000 1.0
C      1  0.5307400000000  0.4153200000000  0.4951890000000 1.0
C      1  0.4301840000000  0.4401510000000  0.4613350000000 1.0
C      1  0.5022780000000  0.5875470000000  0.5203290000000 1.0
C      1  0.4979900000000  0.5638450000000  0.4732910000000 1.0
C      1  0.5160390000000  0.5144930000000  0.4733130000000 1.0
C      1  0.5777160000000  0.4810710000000  0.5439330000000 1.0
C      1  0.4799140000000  0.4489450000000  0.4144280000000 1.0
C      1  0.4761030000000  0.5241540000000  0.4982230000000 1.0
C      1  0.4804610000000  0.4324290000000  0.5607420000000 1.0
C      1  0.5705330000000  0.5018980000000  0.5643400000000 1.0
C      1  0.4439620000000  0.4588390000000  0.5554010000000 1.0
C      1  0.4254500000000  0.5557860000000  0.4598420000000 1.0
C      1  0.4234510000000  0.4548350000000  0.5093280000000 1.0
C      1  0.4447820000000  0.4349750000000  0.5167820000000 1.0
C      1  0.5381750000000  0.4888720000000  0.4332440000000 1.0
C      1  0.4284220000000  0.5707380000000  0.4861320000000 1.0
C      1  0.4943160000000  0.4338000000000  0.4331790000000 1.0
C      1  0.4307240000000  0.4855690000000  0.5136810000000 1.0
C      1  0.4634190000000  0.4457110000000  0.5384580000000 1.0
C      1  0.4633070000000  0.5480540000000  0.5412710000000 1.0
C      1  0.5106220000000  0.5434360000000  0.4538890000000 1.0
C      1  0.5074920000000  0.5173550000000  0.5833480000000 1.0
C      1  0.5547600000000  0.4261910000000  0.5105150000000 1.0
C      1  0.4100930000000  0.5033110000000  0.5033630000000 1.0
C      1  0.5551530000000  0.4522230000000  0.4731670000000 1.0
C      1  0.5453850000000  0.5722820000000  0.5464880000000 1.0
C      1  0.4746020000000  0.5709780000000  0.5161420000000 1.0
C      1  0.5385700000000  0.5523760000000  0.4484170000000 1.0
C      1  0.4704970000000  0.5716080000000  0.4661220000000 1.0
C      1  0.5775480000000  0.5276670000000  0.4424320000000 1.0
END
