TITL C-950536-5891-595 1.84130939497535e-07 125000 -152.977645163095 0 0 26 (C1) n - 1
REM
REM in /home/bkarasulu/work/CARBON/AIRSS/Generating-Clusters/EDIP-Nigel-Params/with-SteepDescent/Only-C1/SD-CG/HFTN-CG
REM
REM
REM
REM
REM
REM ./C.cell (11c1c37f851c82e70ff6c80c92926a4b)
REM
REM compiler GCC version 9.2.1 20190827 (Red Hat 9.2.1-1)
REM options -cpp -mtune=generic -march=x86-64 -g -O0 -fpre-include=/usr/include/finclude/math-vector-fortran.h
REM seed -1157685450 -90793062 -953894014 177274222 1896850814 1059130874 -1512224763 1493457637 949530228 176652155 -1472350496 797337513 -1069543553 464483472 -1515072457 -83985184 828569169 -1618486213 1430498807 -71551470 -347087625 -815412560 772724277 1402467532 -1364397906 -2005047513 1194702510 2030284399 -420260830 -1812173602 -2108621693 -1650763922 -917001445
REM
CELL 1.54180   50.00000   50.00000   50.00000   90.00000   90.00000   90.00000
LATT -1
SFAC C  
C      1  0.5010320000000  0.5467670000000  0.4628120000000 1.0
C      1  0.5029150000000  0.5239650000000  0.5541600000000 1.0
C      1  0.5238830000000  0.5055330000000  0.5470790000000 1.0
C      1  0.4652660000000  0.4978470000000  0.5374110000000 1.0
C      1  0.5053170000000  0.4583610000000  0.4712820000000 1.0
C      1  0.4582100000000  0.4733710000000  0.5296040000000 1.0
C      1  0.4581000000000  0.4581540000000  0.5063670000000 1.0
C      1  0.5171900000000  0.4646800000000  0.4975740000000 1.0
C      1  0.4839700000000  0.5346650000000  0.4822910000000 1.0
C      1  0.4657940000000  0.5162620000000  0.4723390000000 1.0
C      1  0.4811740000000  0.4397210000000  0.5033380000000 1.0
C      1  0.4944530000000  0.5294200000000  0.5090430000000 1.0
C      1  0.5246680000000  0.5602960000000  0.4681740000000 1.0
C      1  0.4878100000000  0.4360290000000  0.4756890000000 1.0
C      1  0.5133100000000  0.5501610000000  0.5464250000000 1.0
C      1  0.5348990000000  0.5183670000000  0.5237150000000 1.0
C      1  0.4806640000000  0.5207680000000  0.5343450000000 1.0
C      1  0.5458320000000  0.5172360000000  0.4763790000000 1.0
C      1  0.5429530000000  0.4753720000000  0.5003610000000 1.0
C      1  0.4522820000000  0.4721440000000  0.4826530000000 1.0
C      1  0.5193060000000  0.5437630000000  0.5184660000000 1.0
C      1  0.5397040000000  0.5030180000000  0.4992710000000 1.0
C      1  0.4915870000000  0.4791910000000  0.4583350000000 1.0
C      1  0.4665640000000  0.4892830000000  0.4658700000000 1.0
C      1  0.5381870000000  0.5375650000000  0.4596780000000 1.0
C      1  0.5049310000000  0.4480630000000  0.5173390000000 1.0
END
