TITL C-951339-9237-465 0.0329579583593052 125000 -62.0829204745918 0 0 13 (Cs) n - 1
REM
REM in /home/bkarasulu/work/CARBON/AIRSS/Generating-Clusters/EDIP-Nigel-Params/with-SteepDescent/Only-C1/SD-CG/HFTN-CG
REM
REM
REM
REM
REM
REM ./C.cell (11c1c37f851c82e70ff6c80c92926a4b)
REM
REM compiler GCC version 9.2.1 20190827 (Red Hat 9.2.1-1)
REM options -cpp -mtune=generic -march=x86-64 -g -O0 -fpre-include=/usr/include/finclude/math-vector-fortran.h
REM seed -559848645 -1669699158 1262356851 -942702050 -1389723634 -465538751 275132257 -447948239 -656334274 1260584889 -421949450 -799213533 -55985222 1652666652 1687392489 1501550753 693407827 -313617473 -462061795 200697420 1082533024 -688403910 722615425 -806938213 543500891 -1654432707 1555908689 1705945461 1682213333 -1983431805 1223331564 -46947131 1299740436
REM
CELL 1.54180   50.00000   50.00000   50.00000   90.00000   90.00000   90.00000
LATT -1
SFAC C  
C      1  0.5076980000000  0.4870520000000  0.4579160000000 1.0
C      1  0.5347650000000  0.5008430000000  0.5537990000000 1.0
C      1  0.4863120000000  0.4978060000000  0.4712240000000 1.0
C      1  0.5340460000000  0.5070830000000  0.5786210000000 1.0
C      1  0.5559310000000  0.4842640000000  0.5157660000000 1.0
C      1  0.5118150000000  0.4988580000000  0.5123010000000 1.0
C      1  0.4629520000000  0.5027410000000  0.4578020000000 1.0
C      1  0.4480410000000  0.5246510000000  0.5262230000000 1.0
C      1  0.4418280000000  0.5067700000000  0.4438860000000 1.0
C      1  0.5267170000000  0.4769850000000  0.4440210000000 1.0
C      1  0.4670630000000  0.5145850000000  0.5123340000000 1.0
C      1  0.5344420000000  0.4945320000000  0.5271700000000 1.0
C      1  0.4883910000000  0.5038290000000  0.4989360000000 1.0
END
