TITL C-950525-1983-578 -6.75784063204538e-06 125000 -1053.81262094319 0 0 167 (C1) n - 1
REM
REM in /home/bkarasulu/work/CARBON/AIRSS/Generating-Clusters/EDIP-Nigel-Params/with-SteepDescent/Only-C1/SD-CG/HFTN-CG
REM
REM
REM
REM
REM
REM ./C.cell (11c1c37f851c82e70ff6c80c92926a4b)
REM
REM compiler GCC version 9.2.1 20190827 (Red Hat 9.2.1-1)
REM options -cpp -mtune=generic -march=x86-64 -g -O0 -fpre-include=/usr/include/finclude/math-vector-fortran.h
REM seed -381440691 -816850397 -42100608 -1009150627 -1922173404 483900227 -1944666186 -923985683 1861591032 -1188987909 2011832751 893719362 12403486 1378321385 2522765 -882408341 -964154018 -383080759 -639596148 -1787478518 1561307409 -2039981092 -256423888 1517675903 642154440 -1566090191 337256257 1163131357 -331987144 -713713064 741861485 1889271333 1229942145
REM
CELL 1.54180   50.00000   50.00000   50.00000   90.00000   90.00000   90.00000
LATT -1
SFAC C  
C      1  0.4667920000000  0.5255450000000  0.4023560000000 1.0
C      1  0.5169220000000  0.4823630000000  0.5115980000000 1.0
C      1  0.4639990000000  0.5852700000000  0.4533360000000 1.0
C      1  0.5544580000000  0.5795990000000  0.5134920000000 1.0
C      1  0.5325860000000  0.5920900000000  0.5297100000000 1.0
C      1  0.6111980000000  0.5439840000000  0.4875770000000 1.0
C      1  0.5014650000000  0.5227860000000  0.4856700000000 1.0
C      1  0.4580810000000  0.5461220000000  0.5522370000000 1.0
C      1  0.4741390000000  0.4071990000000  0.5106630000000 1.0
C      1  0.4937040000000  0.4477030000000  0.4163210000000 1.0
C      1  0.5643520000000  0.4586830000000  0.5610380000000 1.0
C      1  0.4824820000000  0.5013340000000  0.4805170000000 1.0
C      1  0.5386560000000  0.5192000000000  0.5382740000000 1.0
C      1  0.5065130000000  0.5589010000000  0.5166980000000 1.0
C      1  0.6080150000000  0.5267240000000  0.5334110000000 1.0
C      1  0.5542770000000  0.5299100000000  0.4665390000000 1.0
C      1  0.4399600000000  0.5163090000000  0.4044120000000 1.0
C      1  0.5616050000000  0.5679860000000  0.4333530000000 1.0
C      1  0.4328810000000  0.5745620000000  0.5454350000000 1.0
C      1  0.4590430000000  0.4840130000000  0.5741970000000 1.0
C      1  0.5735410000000  0.5537930000000  0.5525200000000 1.0
C      1  0.5117630000000  0.5081730000000  0.5474730000000 1.0
C      1  0.5556310000000  0.4388220000000  0.5159230000000 1.0
C      1  0.5208600000000  0.4422870000000  0.5747720000000 1.0
C      1  0.5827110000000  0.4514660000000  0.4780870000000 1.0
C      1  0.5811460000000  0.5307580000000  0.4526880000000 1.0
C      1  0.4357530000000  0.4027090000000  0.4860570000000 1.0
C      1  0.5017240000000  0.4613200000000  0.5594100000000 1.0
C      1  0.5567390000000  0.5833260000000  0.4846360000000 1.0
C      1  0.5455210000000  0.4598500000000  0.5833230000000 1.0
C      1  0.4377680000000  0.4850730000000  0.5107070000000 1.0
C      1  0.4734220000000  0.5313110000000  0.5911980000000 1.0
C      1  0.4632510000000  0.4766070000000  0.5458630000000 1.0
C      1  0.3921120000000  0.4524960000000  0.5163340000000 1.0
C      1  0.4989040000000  0.4904640000000  0.4466880000000 1.0
C      1  0.4713900000000  0.4484980000000  0.5382230000000 1.0
C      1  0.5777030000000  0.4827640000000  0.5480600000000 1.0
C      1  0.4226440000000  0.5683470000000  0.4886710000000 1.0
C      1  0.4425430000000  0.5665600000000  0.4151280000000 1.0
C      1  0.4587420000000  0.5412860000000  0.5016110000000 1.0
C      1  0.3915260000000  0.5292130000000  0.5006940000000 1.0
C      1  0.4202300000000  0.5619640000000  0.4603940000000 1.0
C      1  0.4896860000000  0.5856640000000  0.4400070000000 1.0
C      1  0.4532470000000  0.5824420000000  0.5271770000000 1.0
C      1  0.5432840000000  0.4270510000000  0.4438750000000 1.0
C      1  0.4885550000000  0.5375080000000  0.5089380000000 1.0
C      1  0.5560570000000  0.5099190000000  0.5853740000000 1.0
C      1  0.5146980000000  0.5610990000000  0.4035390000000 1.0
C      1  0.5287680000000  0.5766610000000  0.5570880000000 1.0
C      1  0.4379070000000  0.4257440000000  0.4686320000000 1.0
C      1  0.4895900000000  0.5040060000000  0.4061500000000 1.0
C      1  0.4785590000000  0.4474100000000  0.5978470000000 1.0
C      1  0.5264800000000  0.4059910000000  0.4560890000000 1.0
C      1  0.4098960000000  0.5136370000000  0.4455780000000 1.0
C      1  0.3885740000000  0.5012070000000  0.4925070000000 1.0
C      1  0.5285850000000  0.4216380000000  0.5065670000000 1.0
C      1  0.4560690000000  0.5169750000000  0.4786110000000 1.0
C      1  0.5846290000000  0.5607750000000  0.4511280000000 1.0
C      1  0.4072940000000  0.5641060000000  0.5351920000000 1.0
C      1  0.4841820000000  0.5996660000000  0.5616690000000 1.0
C      1  0.5629510000000  0.5363080000000  0.4963530000000 1.0
C      1  0.5986890000000  0.4772760000000  0.4184180000000 1.0
C      1  0.4084800000000  0.5251140000000  0.5619070000000 1.0
C      1  0.4396530000000  0.4361390000000  0.5266110000000 1.0
C      1  0.5031270000000  0.5883090000000  0.5163480000000 1.0
C      1  0.5291750000000  0.4860630000000  0.4455510000000 1.0
C      1  0.5172490000000  0.5510560000000  0.5426000000000 1.0
C      1  0.6035730000000  0.4694780000000  0.4725550000000 1.0
C      1  0.4814420000000  0.4508520000000  0.5067510000000 1.0
C      1  0.5068890000000  0.4449610000000  0.4680180000000 1.0
C      1  0.6029000000000  0.4528530000000  0.5210350000000 1.0
C      1  0.4357750000000  0.4524340000000  0.4302140000000 1.0
C      1  0.4318180000000  0.5315230000000  0.5762910000000 1.0
C      1  0.5451740000000  0.5373010000000  0.5894830000000 1.0
C      1  0.5101730000000  0.3814780000000  0.4913050000000 1.0
C      1  0.4094990000000  0.4921180000000  0.4680230000000 1.0
C      1  0.3883300000000  0.4838410000000  0.5181270000000 1.0
C      1  0.5751140000000  0.5220010000000  0.4247130000000 1.0
C      1  0.4495500000000  0.4266660000000  0.4393080000000 1.0
C      1  0.5050160000000  0.5382120000000  0.4598140000000 1.0
C      1  0.4377860000000  0.4628850000000  0.5793620000000 1.0
C      1  0.4869700000000  0.4650110000000  0.4563920000000 1.0
C      1  0.5208230000000  0.4447090000000  0.4055360000000 1.0
C      1  0.5000220000000  0.4935950000000  0.6029000000000 1.0
C      1  0.4853480000000  0.5195880000000  0.5346140000000 1.0
C      1  0.5474880000000  0.4680290000000  0.5070670000000 1.0
C      1  0.4802160000000  0.4249390000000  0.4333640000000 1.0
C      1  0.6041160000000  0.4764070000000  0.5360870000000 1.0
C      1  0.5337650000000  0.4683120000000  0.3996870000000 1.0
C      1  0.5329050000000  0.4227400000000  0.5553840000000 1.0
C      1  0.5015740000000  0.4291120000000  0.5946850000000 1.0
C      1  0.5101720000000  0.5920520000000  0.4613230000000 1.0
C      1  0.4167390000000  0.4656480000000  0.5579340000000 1.0
C      1  0.5413890000000  0.5032780000000  0.4683120000000 1.0
C      1  0.4505910000000  0.5720280000000  0.4993460000000 1.0
C      1  0.4866680000000  0.4812210000000  0.5042090000000 1.0
C      1  0.5197150000000  0.5118270000000  0.4042200000000 1.0
C      1  0.4978580000000  0.4166950000000  0.4592400000000 1.0
C      1  0.4596670000000  0.4675600000000  0.4642700000000 1.0
C      1  0.5005710000000  0.5796310000000  0.5716330000000 1.0
C      1  0.4405100000000  0.5728300000000  0.4423410000000 1.0
C      1  0.4533340000000  0.5137420000000  0.5817450000000 1.0
C      1  0.5293310000000  0.5387410000000  0.4102720000000 1.0
C      1  0.4164740000000  0.5206580000000  0.5332190000000 1.0
C      1  0.3933450000000  0.5473570000000  0.5534730000000 1.0
C      1  0.4885040000000  0.4079830000000  0.5363260000000 1.0
C      1  0.5615380000000  0.4931710000000  0.5230380000000 1.0
C      1  0.5349450000000  0.4537260000000  0.4569430000000 1.0
C      1  0.5381880000000  0.5286150000000  0.5106390000000 1.0
C      1  0.4553540000000  0.4734090000000  0.4264660000000 1.0
C      1  0.5172830000000  0.4120210000000  0.5331350000000 1.0
C      1  0.5234150000000  0.4864960000000  0.6160440000000 1.0
C      1  0.4581180000000  0.5236250000000  0.4500810000000 1.0
C      1  0.4755420000000  0.4137100000000  0.5624060000000 1.0
C      1  0.4150240000000  0.4902200000000  0.5308870000000 1.0
C      1  0.4131470000000  0.4611660000000  0.4486280000000 1.0
C      1  0.4869880000000  0.5213280000000  0.4409700000000 1.0
C      1  0.4039260000000  0.5403890000000  0.4528780000000 1.0
C      1  0.5806440000000  0.4970700000000  0.4113560000000 1.0
C      1  0.4454280000000  0.4096150000000  0.5116880000000 1.0
C      1  0.5381320000000  0.4260680000000  0.4165510000000 1.0
C      1  0.6008900000000  0.5482610000000  0.5147980000000 1.0
C      1  0.4344620000000  0.4980400000000  0.4844970000000 1.0
C      1  0.5843330000000  0.4391600000000  0.5048050000000 1.0
C      1  0.4911530000000  0.5691170000000  0.4153800000000 1.0
C      1  0.5316330000000  0.3989350000000  0.4853670000000 1.0
C      1  0.4795150000000  0.4737990000000  0.4108240000000 1.0
C      1  0.5569740000000  0.5437350000000  0.4158940000000 1.0
C      1  0.4903300000000  0.4051930000000  0.5848990000000 1.0
C      1  0.5996830000000  0.5187330000000  0.4747970000000 1.0
C      1  0.5569930000000  0.4356830000000  0.5451540000000 1.0
C      1  0.4692410000000  0.4945870000000  0.5245280000000 1.0
C      1  0.4369660000000  0.5127710000000  0.4326790000000 1.0
C      1  0.5510800000000  0.5591300000000  0.5700200000000 1.0
C      1  0.5377800000000  0.5791280000000  0.4608380000000 1.0
C      1  0.4361920000000  0.4558330000000  0.5038090000000 1.0
C      1  0.4913180000000  0.5507790000000  0.5638190000000 1.0
C      1  0.4675270000000  0.5885590000000  0.4813130000000 1.0
C      1  0.4050410000000  0.5541230000000  0.5071810000000 1.0
C      1  0.5808900000000  0.5666300000000  0.4801350000000 1.0
C      1  0.4544530000000  0.4381450000000  0.5833180000000 1.0
C      1  0.5555750000000  0.4628580000000  0.4779700000000 1.0
C      1  0.4873710000000  0.3976000000000  0.4851310000000 1.0
C      1  0.5082400000000  0.4417230000000  0.4966690000000 1.0
C      1  0.5255340000000  0.5082490000000  0.4942680000000 1.0
C      1  0.5813330000000  0.5103360000000  0.5028810000000 1.0
C      1  0.4095350000000  0.4550570000000  0.4921760000000 1.0
C      1  0.5787330000000  0.5057580000000  0.5676570000000 1.0
C      1  0.5431950000000  0.4857180000000  0.5964880000000 1.0
C      1  0.4954280000000  0.5945370000000  0.4872200000000 1.0
C      1  0.4989960000000  0.5215720000000  0.5962700000000 1.0
C      1  0.6126610000000  0.5002110000000  0.5225210000000 1.0
C      1  0.5167090000000  0.4809370000000  0.5420030000000 1.0
C      1  0.4857650000000  0.4734590000000  0.5849160000000 1.0
C      1  0.5776150000000  0.5653080000000  0.5259230000000 1.0
C      1  0.4793610000000  0.5933190000000  0.5350030000000 1.0
C      1  0.5370990000000  0.4909890000000  0.4156810000000 1.0
C      1  0.5205250000000  0.5382440000000  0.6027640000000 1.0
C      1  0.4455220000000  0.5314490000000  0.5278810000000 1.0
C      1  0.6125890000000  0.4940980000000  0.4627640000000 1.0
C      1  0.5336340000000  0.5484020000000  0.4526510000000 1.0
C      1  0.5901870000000  0.5300830000000  0.5563650000000 1.0
C      1  0.4557610000000  0.4465550000000  0.4835780000000 1.0
C      1  0.6120370000000  0.4955870000000  0.4341440000000 1.0
C      1  0.4117640000000  0.4433220000000  0.5391910000000 1.0
C      1  0.4103890000000  0.4391220000000  0.4677580000000 1.0
C      1  0.4670440000000  0.5551100000000  0.4067360000000 1.0
END
