TITL C-951340-9809-30 -1.28321383758595e-06 125000 -351.842685191741 0 0 58 (C1) n - 1
REM
REM in /home/bkarasulu/work/CARBON/AIRSS/Generating-Clusters/EDIP-Nigel-Params/with-SteepDescent/Only-C1/SD-CG/HFTN-CG
REM
REM
REM
REM
REM
REM ./C.cell (11c1c37f851c82e70ff6c80c92926a4b)
REM
REM compiler GCC version 9.2.1 20190827 (Red Hat 9.2.1-1)
REM options -cpp -mtune=generic -march=x86-64 -g -O0 -fpre-include=/usr/include/finclude/math-vector-fortran.h
REM seed 1037986657 609560303 221550725 1975671545 2054108771 1299747483 1304747937 1458012500 -2038373697 -1163474315 1509341486 -859246216 776179686 -247268021 -827280993 1214663578 -896328771 450167629 -741890960 521198634 -745959983 -731083909 -93317602 -1565435101 -758090245 1082167089 -906682114 -1468461746 -1650302155 1733879625 867989417 651959017 -2077750195
REM
CELL 1.54180   50.00000   50.00000   50.00000   90.00000   90.00000   90.00000
LATT -1
SFAC C  
C      1  0.5404480000000  0.4385590000000  0.4857760000000 1.0
C      1  0.5352380000000  0.4814050000000  0.5622420000000 1.0
C      1  0.4630750000000  0.5120640000000  0.4452870000000 1.0
C      1  0.5228950000000  0.4443350000000  0.4652690000000 1.0
C      1  0.5116050000000  0.5198410000000  0.4537740000000 1.0
C      1  0.4989460000000  0.4749900000000  0.4387450000000 1.0
C      1  0.5264780000000  0.5086270000000  0.5533310000000 1.0
C      1  0.4846140000000  0.5663110000000  0.5407780000000 1.0
C      1  0.5026260000000  0.5215250000000  0.5647910000000 1.0
C      1  0.5525090000000  0.5138000000000  0.5095990000000 1.0
C      1  0.4564490000000  0.4528820000000  0.4941810000000 1.0
C      1  0.4797200000000  0.4580370000000  0.4529890000000 1.0
C      1  0.4667970000000  0.4741520000000  0.4748850000000 1.0
C      1  0.5261450000000  0.4672050000000  0.4476370000000 1.0
C      1  0.4646260000000  0.4547500000000  0.5431770000000 1.0
C      1  0.4769910000000  0.4858930000000  0.5247590000000 1.0
C      1  0.5001930000000  0.5499420000000  0.5584530000000 1.0
C      1  0.4477340000000  0.4929720000000  0.4612910000000 1.0
C      1  0.5069620000000  0.5862280000000  0.5026090000000 1.0
C      1  0.5000840000000  0.5388450000000  0.4757090000000 1.0
C      1  0.5296530000000  0.5314760000000  0.4343830000000 1.0
C      1  0.5627920000000  0.4874850000000  0.4997890000000 1.0
C      1  0.5352500000000  0.4595270000000  0.5050310000000 1.0
C      1  0.5722890000000  0.4899550000000  0.4704350000000 1.0
C      1  0.5569940000000  0.4725090000000  0.5467540000000 1.0
C      1  0.5613670000000  0.4646320000000  0.5205290000000 1.0
C      1  0.4245350000000  0.5017490000000  0.4738580000000 1.0
C      1  0.4847350000000  0.5215170000000  0.4977670000000 1.0
C      1  0.4483720000000  0.5364070000000  0.5034900000000 1.0
C      1  0.4708790000000  0.4714900000000  0.5659770000000 1.0
C      1  0.4599910000000  0.5397940000000  0.4497320000000 1.0
C      1  0.4466450000000  0.5100520000000  0.5454190000000 1.0
C      1  0.4943490000000  0.4373790000000  0.4680890000000 1.0
C      1  0.4705980000000  0.5006390000000  0.5606110000000 1.0
C      1  0.4880030000000  0.4910610000000  0.4961350000000 1.0
C      1  0.4864280000000  0.5698820000000  0.5120820000000 1.0
C      1  0.5265280000000  0.5504570000000  0.4853100000000 1.0
C      1  0.5286820000000  0.5114810000000  0.5248420000000 1.0
C      1  0.5138620000000  0.4610280000000  0.5619790000000 1.0
C      1  0.5534230000000  0.5162370000000  0.4361040000000 1.0
C      1  0.5298960000000  0.5774240000000  0.4915110000000 1.0
C      1  0.4812850000000  0.4352180000000  0.4951430000000 1.0
C      1  0.5193250000000  0.4875620000000  0.4963110000000 1.0
C      1  0.4532600000000  0.5358500000000  0.5334590000000 1.0
C      1  0.4324370000000  0.5109840000000  0.4988000000000 1.0
C      1  0.5476230000000  0.5278300000000  0.4838590000000 1.0
C      1  0.5522870000000  0.4845850000000  0.4453200000000 1.0
C      1  0.4373010000000  0.4931950000000  0.5222050000000 1.0
C      1  0.5127240000000  0.4447540000000  0.5388870000000 1.0
C      1  0.4766020000000  0.5559710000000  0.4656420000000 1.0
C      1  0.5304330000000  0.5034020000000  0.4717640000000 1.0
C      1  0.4910120000000  0.5034080000000  0.4407450000000 1.0
C      1  0.4830660000000  0.5291260000000  0.5292750000000 1.0
C      1  0.5694810000000  0.5204860000000  0.4621120000000 1.0
C      1  0.4928750000000  0.4630330000000  0.5807120000000 1.0
C      1  0.4653660000000  0.5609700000000  0.4928370000000 1.0
C      1  0.4462020000000  0.4623200000000  0.5209440000000 1.0
C      1  0.4993130000000  0.4367640000000  0.5168740000000 1.0
END
