TITL C-950528-5794-528 0.0001965602238848 125000 -258.582880717011 0 0 44 (C1) n - 1
REM
REM in /home/bkarasulu/work/CARBON/AIRSS/Generating-Clusters/EDIP-Nigel-Params/with-SteepDescent/Only-C1/SD-CG/HFTN-CG
REM
REM
REM
REM
REM
REM ./C.cell (11c1c37f851c82e70ff6c80c92926a4b)
REM
REM compiler GCC version 9.2.1 20190827 (Red Hat 9.2.1-1)
REM options -cpp -mtune=generic -march=x86-64 -g -O0 -fpre-include=/usr/include/finclude/math-vector-fortran.h
REM seed -2004855777 288502481 2103730703 -2076458896 -102171012 -1448796989 1570967887 2129761803 1799171508 -1481349175 -556204451 -1751789326 1264156215 215952724 -819142740 -2015637714 -2032132849 463089936 1460258186 -1353801987 -289448613 1216887024 609008320 987017444 1163988194 -1742398594 -2119899140 528910220 674755985 677010180 -1759954996 -550713777 -299466526
REM
CELL 1.54180   50.00000   50.00000   50.00000   90.00000   90.00000   90.00000
LATT -1
SFAC C  
C      1  0.5062750000000  0.4740020000000  0.4764350000000 1.0
C      1  0.4551490000000  0.5239480000000  0.5635240000000 1.0
C      1  0.4662330000000  0.4900140000000  0.4501300000000 1.0
C      1  0.4686020000000  0.5720170000000  0.4853110000000 1.0
C      1  0.5444520000000  0.4427850000000  0.4806280000000 1.0
C      1  0.5286030000000  0.5493090000000  0.4977160000000 1.0
C      1  0.4444530000000  0.4765830000000  0.5172000000000 1.0
C      1  0.4630050000000  0.4789400000000  0.5374860000000 1.0
C      1  0.5291250000000  0.4688620000000  0.5540420000000 1.0
C      1  0.4515040000000  0.4789840000000  0.4709260000000 1.0
C      1  0.4633660000000  0.5782320000000  0.5105510000000 1.0
C      1  0.5373260000000  0.5281510000000  0.4379770000000 1.0
C      1  0.4740510000000  0.5677790000000  0.5564290000000 1.0
C      1  0.5205350000000  0.4423480000000  0.5501900000000 1.0
C      1  0.5029360000000  0.4307750000000  0.5082070000000 1.0
C      1  0.5083300000000  0.4876910000000  0.5510640000000 1.0
C      1  0.5207270000000  0.5030800000000  0.4985470000000 1.0
C      1  0.4728130000000  0.5541990000000  0.4648500000000 1.0
C      1  0.4947560000000  0.4872010000000  0.4521850000000 1.0
C      1  0.5558360000000  0.4767130000000  0.5468080000000 1.0
C      1  0.4247910000000  0.5110720000000  0.4911960000000 1.0
C      1  0.5802280000000  0.4440520000000  0.5165980000000 1.0
C      1  0.4956790000000  0.5557980000000  0.4495570000000 1.0
C      1  0.5490470000000  0.4846350000000  0.4539090000000 1.0
C      1  0.4580490000000  0.4986520000000  0.5560440000000 1.0
C      1  0.4917720000000  0.4744400000000  0.5304130000000 1.0
C      1  0.4976840000000  0.4870020000000  0.5032550000000 1.0
C      1  0.5200740000000  0.5481050000000  0.4421390000000 1.0
C      1  0.5107400000000  0.4912680000000  0.4296300000000 1.0
C      1  0.5690390000000  0.4392300000000  0.4928240000000 1.0
C      1  0.5608120000000  0.5037290000000  0.5438930000000 1.0
C      1  0.4514390000000  0.5365180000000  0.4575650000000 1.0
C      1  0.4531840000000  0.5511700000000  0.5638380000000 1.0
C      1  0.5363910000000  0.5006380000000  0.4349510000000 1.0
C      1  0.4311160000000  0.5323460000000  0.4760240000000 1.0
C      1  0.4358230000000  0.4857020000000  0.4926700000000 1.0
C      1  0.4571990000000  0.5782660000000  0.5371390000000 1.0
C      1  0.5362350000000  0.4696510000000  0.4738490000000 1.0
C      1  0.4570240000000  0.5147510000000  0.4409870000000 1.0
C      1  0.5291290000000  0.5268420000000  0.5116450000000 1.0
C      1  0.5493680000000  0.5235220000000  0.5300830000000 1.0
C      1  0.5743180000000  0.4578060000000  0.5387000000000 1.0
C      1  0.4993650000000  0.4449680000000  0.5316880000000 1.0
C      1  0.5234130000000  0.4282250000000  0.4911960000000 1.0
END
