TITL C-951338-5626-343 -2.36850406848245e-05 125000 -106.637000763727 0 0 20 (C1) n - 1
REM
REM in /home/bkarasulu/work/CARBON/AIRSS/Generating-Clusters/EDIP-Nigel-Params/with-SteepDescent/Only-C1/SD-CG/HFTN-CG
REM
REM
REM
REM
REM
REM ./C.cell (11c1c37f851c82e70ff6c80c92926a4b)
REM
REM compiler GCC version 9.2.1 20190827 (Red Hat 9.2.1-1)
REM options -cpp -mtune=generic -march=x86-64 -g -O0 -fpre-include=/usr/include/finclude/math-vector-fortran.h
REM seed -249663951 615731000 -1816700723 -1468657279 1317985442 -802484872 -1500733117 -247759406 -967836818 -1673839750 -123840602 941976220 1683446741 -1275955414 -1215000240 -136478942 -1649986561 -250657624 48305709 -1770893092 -1712349375 -629874280 1029693666 1656609305 -710629911 1700467343 -1543567774 1874678616 1924682488 -2013430760 76942571 -1997340294 1304177540
REM
CELL 1.54180   50.00000   50.00000   50.00000   90.00000   90.00000   90.00000
LATT -1
SFAC C  
C      1  0.4501510000000  0.4570970000000  0.4703350000000 1.0
C      1  0.4971220000000  0.4972260000000  0.5193980000000 1.0
C      1  0.5346210000000  0.5370340000000  0.4817680000000 1.0
C      1  0.4974740000000  0.5152420000000  0.4844440000000 1.0
C      1  0.5595380000000  0.5296720000000  0.4743870000000 1.0
C      1  0.4877860000000  0.4933020000000  0.4621500000000 1.0
C      1  0.5319040000000  0.5125310000000  0.5274620000000 1.0
C      1  0.4780000000000  0.5173440000000  0.5080030000000 1.0
C      1  0.5005550000000  0.4304110000000  0.4977110000000 1.0
C      1  0.5407380000000  0.5088000000000  0.4799210000000 1.0
C      1  0.5392300000000  0.4952950000000  0.5056770000000 1.0
C      1  0.4536650000000  0.5601600000000  0.5154610000000 1.0
C      1  0.5082990000000  0.4286580000000  0.5234490000000 1.0
C      1  0.4672320000000  0.4759970000000  0.4677510000000 1.0
C      1  0.4826150000000  0.5208200000000  0.4593310000000 1.0
C      1  0.5054520000000  0.4544680000000  0.5119700000000 1.0
C      1  0.5102480000000  0.5064990000000  0.5434910000000 1.0
C      1  0.5278000000000  0.4697920000000  0.5062550000000 1.0
C      1  0.4528170000000  0.5473380000000  0.5391480000000 1.0
C      1  0.4747550000000  0.5423140000000  0.5218880000000 1.0
END
