TITL C-950526-5686-563 -1.9929619759409e-06 125000 -585.869875441084 0 0 95 (C1) n - 1
REM
REM in /home/bkarasulu/work/CARBON/AIRSS/Generating-Clusters/EDIP-Nigel-Params/with-SteepDescent/Only-C1/SD-CG/HFTN-CG
REM
REM
REM
REM
REM
REM ./C.cell (11c1c37f851c82e70ff6c80c92926a4b)
REM
REM compiler GCC version 9.2.1 20190827 (Red Hat 9.2.1-1)
REM options -cpp -mtune=generic -march=x86-64 -g -O0 -fpre-include=/usr/include/finclude/math-vector-fortran.h
REM seed -1238588427 -716552905 -406233696 1058550521 983389686 246275005 1518383302 1035508944 1372092683 1237863105 -1963568952 368557477 -273759877 -356382639 691857953 -443892483 -1068123181 1606069003 -126534419 -1745821784 278099041 -1777134018 -1150584991 -1003061318 -972298528 -248633240 -760787796 1880292416 1137149628 740156711 1273206728 378278887 1924320484
REM
CELL 1.54180   50.00000   50.00000   50.00000   90.00000   90.00000   90.00000
LATT -1
SFAC C  
C      1  0.4528080000000  0.4661820000000  0.4238350000000 1.0
C      1  0.5819960000000  0.5261150000000  0.4723230000000 1.0
C      1  0.4781360000000  0.5352710000000  0.4843600000000 1.0
C      1  0.5276120000000  0.4200680000000  0.4907480000000 1.0
C      1  0.4308520000000  0.5090400000000  0.4839920000000 1.0
C      1  0.5366520000000  0.5271790000000  0.4335540000000 1.0
C      1  0.4261610000000  0.5227000000000  0.5473560000000 1.0
C      1  0.4788920000000  0.4880700000000  0.4579440000000 1.0
C      1  0.4781130000000  0.4937610000000  0.5842850000000 1.0
C      1  0.4434500000000  0.4828830000000  0.4896710000000 1.0
C      1  0.4805690000000  0.4209910000000  0.4814710000000 1.0
C      1  0.5275580000000  0.5719010000000  0.5097580000000 1.0
C      1  0.4604030000000  0.4403110000000  0.4688000000000 1.0
C      1  0.5734960000000  0.5018810000000  0.5235880000000 1.0
C      1  0.4835750000000  0.5639010000000  0.5278510000000 1.0
C      1  0.4508380000000  0.5588270000000  0.4290250000000 1.0
C      1  0.5653230000000  0.5387390000000  0.4905780000000 1.0
C      1  0.4344490000000  0.4394940000000  0.4868080000000 1.0
C      1  0.4398270000000  0.5618350000000  0.5148560000000 1.0
C      1  0.5757100000000  0.5534130000000  0.5122840000000 1.0
C      1  0.5449150000000  0.5019160000000  0.5165170000000 1.0
C      1  0.4936820000000  0.5084630000000  0.4748610000000 1.0
C      1  0.5389510000000  0.4554500000000  0.5022730000000 1.0
C      1  0.5207330000000  0.4417330000000  0.5440950000000 1.0
C      1  0.4476070000000  0.4632370000000  0.5590950000000 1.0
C      1  0.5563910000000  0.5481340000000  0.5332200000000 1.0
C      1  0.4687190000000  0.5533280000000  0.5526220000000 1.0
C      1  0.4822220000000  0.5208820000000  0.5898830000000 1.0
C      1  0.4646830000000  0.5764390000000  0.5081020000000 1.0
C      1  0.5397660000000  0.5242550000000  0.4968660000000 1.0
C      1  0.5601140000000  0.4457700000000  0.4622740000000 1.0
C      1  0.4720380000000  0.5736640000000  0.4795020000000 1.0
C      1  0.5230800000000  0.5758330000000  0.5578160000000 1.0
C      1  0.5398340000000  0.5012070000000  0.5652610000000 1.0
C      1  0.4212700000000  0.4641960000000  0.4849980000000 1.0
C      1  0.5798070000000  0.4538370000000  0.5306270000000 1.0
C      1  0.5379300000000  0.4789030000000  0.4320270000000 1.0
C      1  0.5014980000000  0.4962270000000  0.5299610000000 1.0
C      1  0.4619830000000  0.4411220000000  0.4373030000000 1.0
C      1  0.4757410000000  0.5103890000000  0.5278150000000 1.0
C      1  0.5093020000000  0.5803890000000  0.5315850000000 1.0
C      1  0.4339180000000  0.5091180000000  0.5705680000000 1.0
C      1  0.5123320000000  0.5167340000000  0.4212150000000 1.0
C      1  0.4865360000000  0.5288750000000  0.4267260000000 1.0
C      1  0.4587620000000  0.4915590000000  0.4363530000000 1.0
C      1  0.5562640000000  0.4569900000000  0.5471120000000 1.0
C      1  0.5753750000000  0.5020310000000  0.4600250000000 1.0
C      1  0.5126540000000  0.4248490000000  0.5194520000000 1.0
C      1  0.4316290000000  0.4652740000000  0.5342910000000 1.0
C      1  0.4087430000000  0.5123450000000  0.5015170000000 1.0
C      1  0.5217370000000  0.5421290000000  0.5132320000000 1.0
C      1  0.5071910000000  0.4201320000000  0.4688100000000 1.0
C      1  0.4904300000000  0.4694440000000  0.4143800000000 1.0
C      1  0.4788380000000  0.5562680000000  0.4325300000000 1.0
C      1  0.4303060000000  0.5543860000000  0.4894610000000 1.0
C      1  0.5262510000000  0.5059680000000  0.4766830000000 1.0
C      1  0.5003440000000  0.4753640000000  0.5791570000000 1.0
C      1  0.5548490000000  0.4210900000000  0.4773860000000 1.0
C      1  0.4485880000000  0.4893040000000  0.5195290000000 1.0
C      1  0.5354530000000  0.5531140000000  0.4445250000000 1.0
C      1  0.5258730000000  0.4855610000000  0.5834970000000 1.0
C      1  0.5377740000000  0.4524370000000  0.4443420000000 1.0
C      1  0.4381000000000  0.4392140000000  0.5174670000000 1.0
C      1  0.5734400000000  0.4779430000000  0.4781890000000 1.0
C      1  0.5341060000000  0.4664710000000  0.5298430000000 1.0
C      1  0.4201750000000  0.5021100000000  0.5265260000000 1.0
C      1  0.4423380000000  0.5349060000000  0.4187650000000 1.0
C      1  0.4457220000000  0.5420470000000  0.5369530000000 1.0
C      1  0.5745270000000  0.5067880000000  0.5522430000000 1.0
C      1  0.5509730000000  0.5691520000000  0.5530370000000 1.0
C      1  0.5094230000000  0.5589070000000  0.5756760000000 1.0
C      1  0.5186130000000  0.5699780000000  0.4592930000000 1.0
C      1  0.5133520000000  0.4874260000000  0.4190440000000 1.0
C      1  0.4873530000000  0.4635390000000  0.4990040000000 1.0
C      1  0.4866570000000  0.4344380000000  0.5079210000000 1.0
C      1  0.4523420000000  0.4882210000000  0.5731390000000 1.0
C      1  0.5061080000000  0.4853090000000  0.5027870000000 1.0
C      1  0.4894410000000  0.5361120000000  0.5136060000000 1.0
C      1  0.4647010000000  0.4309050000000  0.5276950000000 1.0
C      1  0.4685020000000  0.4690000000000  0.4777510000000 1.0
C      1  0.4470880000000  0.5326600000000  0.4823410000000 1.0
C      1  0.5672840000000  0.4442460000000  0.5056990000000 1.0
C      1  0.5522820000000  0.5030700000000  0.4415460000000 1.0
C      1  0.4701140000000  0.4457690000000  0.5526250000000 1.0
C      1  0.5678080000000  0.5343290000000  0.5567590000000 1.0
C      1  0.5417990000000  0.4767080000000  0.4806390000000 1.0
C      1  0.4900940000000  0.5664840000000  0.4575520000000 1.0
C      1  0.4624780000000  0.5150960000000  0.4189850000000 1.0
C      1  0.4973280000000  0.4527350000000  0.5604880000000 1.0
C      1  0.5863280000000  0.4783940000000  0.5099520000000 1.0
C      1  0.4905810000000  0.4438360000000  0.4282470000000 1.0
C      1  0.4866730000000  0.5432770000000  0.5735930000000 1.0
C      1  0.5112490000000  0.4405350000000  0.4484700000000 1.0
C      1  0.5257240000000  0.5811370000000  0.4835260000000 1.0
C      1  0.5267620000000  0.5083480000000  0.5400600000000 1.0
END
