TITL C-951344-124-474 -3.27976380156378e-07 125000 -416.060384334537 0 0 67 (C1) n - 1
REM
REM in /home/bkarasulu/work/CARBON/AIRSS/Generating-Clusters/EDIP-Nigel-Params/with-SteepDescent/Only-C1/SD-CG/HFTN-CG
REM
REM
REM
REM
REM
REM ./C.cell (11c1c37f851c82e70ff6c80c92926a4b)
REM
REM compiler GCC version 9.2.1 20190827 (Red Hat 9.2.1-1)
REM options -cpp -mtune=generic -march=x86-64 -g -O0 -fpre-include=/usr/include/finclude/math-vector-fortran.h
REM seed 1784466564 210677192 -1058352486 316944014 446521953 834941616 207635905 879404190 -1966920778 -168647250 412084363 885922713 -1830619761 -1990023732 1319498269 -26437870 1946881753 2076097361 -1885952666 430285627 2005854824 1134130866 1429904668 -715251258 834395747 -743915587 -950127908 -280631954 -1264172767 -43925272 -1927895112 -1430914795 -958586295
REM
CELL 1.54180   50.00000   50.00000   50.00000   90.00000   90.00000   90.00000
LATT -1
SFAC C  
C      1  0.5722370000000  0.4997220000000  0.4722220000000 1.0
C      1  0.4638430000000  0.5613140000000  0.4651080000000 1.0
C      1  0.4940000000000  0.5234560000000  0.5343380000000 1.0
C      1  0.5024500000000  0.4270710000000  0.4815710000000 1.0
C      1  0.4648840000000  0.5082090000000  0.5698980000000 1.0
C      1  0.5181420000000  0.5384470000000  0.5426880000000 1.0
C      1  0.5094990000000  0.4809900000000  0.4332630000000 1.0
C      1  0.5159410000000  0.4305280000000  0.5091010000000 1.0
C      1  0.5396210000000  0.5240420000000  0.4458680000000 1.0
C      1  0.5103670000000  0.4310300000000  0.4331200000000 1.0
C      1  0.4466290000000  0.5048170000000  0.5141300000000 1.0
C      1  0.4502130000000  0.5546640000000  0.5113290000000 1.0
C      1  0.5190260000000  0.5290070000000  0.4919890000000 1.0
C      1  0.5541570000000  0.5002650000000  0.4485460000000 1.0
C      1  0.5433570000000  0.4459080000000  0.5113390000000 1.0
C      1  0.4456360000000  0.5308780000000  0.5296490000000 1.0
C      1  0.4407130000000  0.4702210000000  0.4789430000000 1.0
C      1  0.5397990000000  0.4638960000000  0.5573830000000 1.0
C      1  0.4726870000000  0.4210140000000  0.5348210000000 1.0
C      1  0.5319120000000  0.4674830000000  0.5299450000000 1.0
C      1  0.4702960000000  0.4513400000000  0.4498090000000 1.0
C      1  0.4468600000000  0.4884590000000  0.5605040000000 1.0
C      1  0.5246140000000  0.5750680000000  0.5086130000000 1.0
C      1  0.5318660000000  0.4592530000000  0.4670160000000 1.0
C      1  0.5179270000000  0.5009000000000  0.5773520000000 1.0
C      1  0.4900550000000  0.5014350000000  0.5802860000000 1.0
C      1  0.4190250000000  0.5402580000000  0.4717390000000 1.0
C      1  0.5085500000000  0.5646670000000  0.5516870000000 1.0
C      1  0.4976990000000  0.4327380000000  0.5334650000000 1.0
C      1  0.4986650000000  0.4964350000000  0.4566230000000 1.0
C      1  0.4614910000000  0.4569110000000  0.4949410000000 1.0
C      1  0.5006450000000  0.5759820000000  0.5268510000000 1.0
C      1  0.5747690000000  0.4746560000000  0.4846850000000 1.0
C      1  0.4477520000000  0.4551070000000  0.5217340000000 1.0
C      1  0.4427040000000  0.5512520000000  0.4827930000000 1.0
C      1  0.5255360000000  0.5400270000000  0.4637000000000 1.0
C      1  0.5207460000000  0.4324770000000  0.4593580000000 1.0
C      1  0.4674990000000  0.5480820000000  0.4406520000000 1.0
C      1  0.4481890000000  0.4316840000000  0.5368750000000 1.0
C      1  0.5388340000000  0.4751150000000  0.4415840000000 1.0
C      1  0.4711240000000  0.5052190000000  0.4956820000000 1.0
C      1  0.5549040000000  0.4547580000000  0.4854540000000 1.0
C      1  0.5276820000000  0.5011160000000  0.4944740000000 1.0
C      1  0.5372170000000  0.4952130000000  0.5209950000000 1.0
C      1  0.4865130000000  0.5666640000000  0.4823530000000 1.0
C      1  0.4740550000000  0.4356510000000  0.4762380000000 1.0
C      1  0.5632350000000  0.5341970000000  0.5126260000000 1.0
C      1  0.4274570000000  0.5253750000000  0.4503780000000 1.0
C      1  0.4863940000000  0.4757790000000  0.5012660000000 1.0
C      1  0.4941950000000  0.4543100000000  0.4313610000000 1.0
C      1  0.5324770000000  0.5229670000000  0.5644090000000 1.0
C      1  0.4687720000000  0.5010910000000  0.4606890000000 1.0
C      1  0.5013090000000  0.4626040000000  0.5276050000000 1.0
C      1  0.4805020000000  0.5587750000000  0.5095060000000 1.0
C      1  0.5596030000000  0.5183540000000  0.5586270000000 1.0
C      1  0.4541060000000  0.4756940000000  0.4553180000000 1.0
C      1  0.4690560000000  0.5290520000000  0.5493710000000 1.0
C      1  0.4903400000000  0.5289310000000  0.5056400000000 1.0
C      1  0.5133890000000  0.5787990000000  0.4810420000000 1.0
C      1  0.5296430000000  0.5676900000000  0.4610240000000 1.0
C      1  0.5726790000000  0.5233370000000  0.4881070000000 1.0
C      1  0.4455030000000  0.4819370000000  0.5331140000000 1.0
C      1  0.5319540000000  0.4768930000000  0.5796520000000 1.0
C      1  0.5105640000000  0.4811090000000  0.4802830000000 1.0
C      1  0.4549510000000  0.5230690000000  0.4445250000000 1.0
C      1  0.5339960000000  0.5450570000000  0.5135090000000 1.0
C      1  0.5595480000000  0.5115550000000  0.5312370000000 1.0
END
