TITL C-950526-5686-349 -8.60610946655539e-07 125000 -1204.37587362578 0 0 193 (C1) n - 1
REM
REM in /home/bkarasulu/work/CARBON/AIRSS/Generating-Clusters/EDIP-Nigel-Params/with-SteepDescent/Only-C1/SD-CG/HFTN-CG
REM
REM
REM
REM
REM
REM ./C.cell (11c1c37f851c82e70ff6c80c92926a4b)
REM
REM compiler GCC version 9.2.1 20190827 (Red Hat 9.2.1-1)
REM options -cpp -mtune=generic -march=x86-64 -g -O0 -fpre-include=/usr/include/finclude/math-vector-fortran.h
REM seed -994009747 -1252487216 1088492333 339375251 -383865157 -1481956745 -529170580 -290246538 274521710 -1883552032 2027595820 -957381526 423069109 -271120377 -32010999 1790402138 -1635504085 -1369892996 2053370362 -811473439 458736700 -591611348 1006311184 -2077437546 660638994 340186025 653567848 -438866218 243544341 -1993046549 -1587350363 -1287931616 1296638426
REM
CELL 1.54180   50.00000   50.00000   50.00000   90.00000   90.00000   90.00000
LATT -1
SFAC C  
C      1  0.4923030000000  0.4218160000000  0.4876520000000 1.0
C      1  0.5113030000000  0.4842000000000  0.4357430000000 1.0
C      1  0.4851100000000  0.4647280000000  0.6203340000000 1.0
C      1  0.5742860000000  0.5470220000000  0.4187340000000 1.0
C      1  0.5187740000000  0.4416410000000  0.4523720000000 1.0
C      1  0.5749490000000  0.5123860000000  0.5028750000000 1.0
C      1  0.4856740000000  0.5355670000000  0.3964430000000 1.0
C      1  0.5136310000000  0.4675900000000  0.5704400000000 1.0
C      1  0.4842200000000  0.5688390000000  0.4949480000000 1.0
C      1  0.5325880000000  0.4349260000000  0.5008950000000 1.0
C      1  0.6020670000000  0.5012540000000  0.5453170000000 1.0
C      1  0.5572480000000  0.5704570000000  0.4154510000000 1.0
C      1  0.5959960000000  0.4934320000000  0.5166350000000 1.0
C      1  0.4891420000000  0.5981310000000  0.5640280000000 1.0
C      1  0.5261700000000  0.6001560000000  0.4951140000000 1.0
C      1  0.5481720000000  0.3990880000000  0.5062870000000 1.0
C      1  0.4682190000000  0.5594810000000  0.4644190000000 1.0
C      1  0.4406440000000  0.4845470000000  0.4658660000000 1.0
C      1  0.4934050000000  0.5268270000000  0.5515010000000 1.0
C      1  0.4021000000000  0.5600040000000  0.4651180000000 1.0
C      1  0.6028940000000  0.5519770000000  0.4524850000000 1.0
C      1  0.4177940000000  0.4289340000000  0.5158250000000 1.0
C      1  0.5137850000000  0.4573790000000  0.6153730000000 1.0
C      1  0.5177400000000  0.4287980000000  0.5360460000000 1.0
C      1  0.5834440000000  0.4909980000000  0.5687350000000 1.0
C      1  0.5508070000000  0.4599110000000  0.5003130000000 1.0
C      1  0.5599450000000  0.5256780000000  0.5987930000000 1.0
C      1  0.4150900000000  0.4178290000000  0.4870240000000 1.0
C      1  0.5603040000000  0.4862250000000  0.4261090000000 1.0
C      1  0.6082450000000  0.4789350000000  0.4836880000000 1.0
C      1  0.5023790000000  0.6047270000000  0.4774930000000 1.0
C      1  0.5198610000000  0.4440190000000  0.5885400000000 1.0
C      1  0.5872720000000  0.5742270000000  0.5479910000000 1.0
C      1  0.4832690000000  0.3959430000000  0.5377790000000 1.0
C      1  0.5581350000000  0.4599920000000  0.4130400000000 1.0
C      1  0.4747080000000  0.5808870000000  0.4104780000000 1.0
C      1  0.4772780000000  0.4881850000000  0.6020900000000 1.0
C      1  0.5712130000000  0.4164260000000  0.5112410000000 1.0
C      1  0.5198400000000  0.5121780000000  0.4337410000000 1.0
C      1  0.4698050000000  0.4820170000000  0.5533470000000 1.0
C      1  0.4284920000000  0.4560380000000  0.5063830000000 1.0
C      1  0.5323370000000  0.5239460000000  0.4583840000000 1.0
C      1  0.5213810000000  0.6037170000000  0.5241400000000 1.0
C      1  0.4974830000000  0.4230820000000  0.5796170000000 1.0
C      1  0.5878310000000  0.4811070000000  0.4383410000000 1.0
C      1  0.5103360000000  0.5309950000000  0.6038360000000 1.0
C      1  0.4667260000000  0.4915350000000  0.3982450000000 1.0
C      1  0.5342290000000  0.4884580000000  0.5782410000000 1.0
C      1  0.4901640000000  0.5249940000000  0.4916790000000 1.0
C      1  0.4938810000000  0.4204250000000  0.5508100000000 1.0
C      1  0.5767810000000  0.5631810000000  0.5720480000000 1.0
C      1  0.5543620000000  0.5730140000000  0.5853080000000 1.0
C      1  0.5534720000000  0.5284310000000  0.5121050000000 1.0
C      1  0.5069090000000  0.4684740000000  0.4097530000000 1.0
C      1  0.4850620000000  0.4017030000000  0.4364060000000 1.0
C      1  0.5339480000000  0.4691190000000  0.4486460000000 1.0
C      1  0.4421160000000  0.3913940000000  0.4514780000000 1.0
C      1  0.5219010000000  0.5927520000000  0.4296490000000 1.0
C      1  0.5449010000000  0.5435520000000  0.5622440000000 1.0
C      1  0.4466420000000  0.5353260000000  0.5157390000000 1.0
C      1  0.5202290000000  0.5708810000000  0.4097890000000 1.0
C      1  0.4234890000000  0.5557480000000  0.5174040000000 1.0
C      1  0.4459710000000  0.5173510000000  0.5798740000000 1.0
C      1  0.5612990000000  0.5293110000000  0.4571230000000 1.0
C      1  0.4243320000000  0.5610180000000  0.5473010000000 1.0
C      1  0.5401200000000  0.5874670000000  0.5413030000000 1.0
C      1  0.4541300000000  0.3845700000000  0.4975680000000 1.0
C      1  0.4924680000000  0.6015910000000  0.5336040000000 1.0
C      1  0.5187470000000  0.4593950000000  0.5411480000000 1.0
C      1  0.4606720000000  0.4043800000000  0.5196660000000 1.0
C      1  0.4473870000000  0.4901150000000  0.5982190000000 1.0
C      1  0.6036700000000  0.5530510000000  0.5353490000000 1.0
C      1  0.4439290000000  0.4656730000000  0.5517370000000 1.0
C      1  0.4459690000000  0.4284940000000  0.5638210000000 1.0
C      1  0.5885700000000  0.4646960000000  0.5210820000000 1.0
C      1  0.4150580000000  0.4666300000000  0.4807020000000 1.0
C      1  0.4860900000000  0.4385740000000  0.4443150000000 1.0
C      1  0.5306820000000  0.5207650000000  0.4076720000000 1.0
C      1  0.5935390000000  0.4502780000000  0.5464810000000 1.0
C      1  0.4667860000000  0.5177020000000  0.4109460000000 1.0
C      1  0.5577520000000  0.6055260000000  0.4584300000000 1.0
C      1  0.5938480000000  0.4551210000000  0.4942140000000 1.0
C      1  0.5004040000000  0.5949190000000  0.4493410000000 1.0
C      1  0.3978710000000  0.5192180000000  0.5548190000000 1.0
C      1  0.5079790000000  0.5166830000000  0.3877080000000 1.0
C      1  0.4278680000000  0.4514870000000  0.5748630000000 1.0
C      1  0.4849830000000  0.5170790000000  0.6086580000000 1.0
C      1  0.5383830000000  0.5917290000000  0.5711490000000 1.0
C      1  0.5779440000000  0.5254790000000  0.4006620000000 1.0
C      1  0.5157040000000  0.5475310000000  0.4631750000000 1.0
C      1  0.4097750000000  0.5829010000000  0.4794970000000 1.0
C      1  0.4662200000000  0.5803000000000  0.5712440000000 1.0
C      1  0.5427090000000  0.4785050000000  0.4764510000000 1.0
C      1  0.5264790000000  0.5170440000000  0.5652610000000 1.0
C      1  0.3937840000000  0.5372070000000  0.4806540000000 1.0
C      1  0.4322200000000  0.5749530000000  0.4331640000000 1.0
C      1  0.5550710000000  0.5991440000000  0.4856560000000 1.0
C      1  0.3957020000000  0.4922350000000  0.5630520000000 1.0
C      1  0.5113340000000  0.5818610000000  0.5759000000000 1.0
C      1  0.5493040000000  0.5897010000000  0.4371220000000 1.0
C      1  0.5554770000000  0.4466920000000  0.5795360000000 1.0
C      1  0.5100820000000  0.4438150000000  0.4818630000000 1.0
C      1  0.4272030000000  0.4773820000000  0.5294860000000 1.0
C      1  0.5038040000000  0.5593430000000  0.5964750000000 1.0
C      1  0.5567930000000  0.4236470000000  0.4384190000000 1.0
C      1  0.4787610000000  0.3770680000000  0.4807310000000 1.0
C      1  0.4595380000000  0.4716280000000  0.4187810000000 1.0
C      1  0.4325740000000  0.4633760000000  0.4274440000000 1.0
C      1  0.4818220000000  0.4519330000000  0.4170910000000 1.0
C      1  0.3899660000000  0.5200870000000  0.5265310000000 1.0
C      1  0.5740180000000  0.4327340000000  0.5610100000000 1.0
C      1  0.5533470000000  0.4188140000000  0.4667470000000 1.0
C      1  0.4601420000000  0.5234410000000  0.4923330000000 1.0
C      1  0.4763610000000  0.5569340000000  0.5860990000000 1.0
C      1  0.4629190000000  0.4447150000000  0.6099430000000 1.0
C      1  0.4720010000000  0.4280460000000  0.5058330000000 1.0
C      1  0.5980570000000  0.5295160000000  0.5531020000000 1.0
C      1  0.3852670000000  0.4928660000000  0.5156870000000 1.0
C      1  0.4743770000000  0.4309230000000  0.3987270000000 1.0
C      1  0.5033330000000  0.3943650000000  0.4905130000000 1.0
C      1  0.4193970000000  0.5368490000000  0.5647760000000 1.0
C      1  0.5047100000000  0.4964460000000  0.5221030000000 1.0
C      1  0.3928560000000  0.4867830000000  0.4868620000000 1.0
C      1  0.4855800000000  0.4756060000000  0.5285250000000 1.0
C      1  0.4659620000000  0.4105200000000  0.4165250000000 1.0
C      1  0.4900740000000  0.5460880000000  0.4461110000000 1.0
C      1  0.5298980000000  0.4012970000000  0.5290520000000 1.0
C      1  0.4635180000000  0.5338830000000  0.5971840000000 1.0
C      1  0.5609380000000  0.4330040000000  0.5337820000000 1.0
C      1  0.4861170000000  0.4846700000000  0.4516590000000 1.0
C      1  0.4277780000000  0.5814020000000  0.5008540000000 1.0
C      1  0.5060100000000  0.3868740000000  0.5204300000000 1.0
C      1  0.4757270000000  0.5144460000000  0.4403760000000 1.0
C      1  0.5740490000000  0.4316180000000  0.4864750000000 1.0
C      1  0.5313360000000  0.4489810000000  0.4064230000000 1.0
C      1  0.4369880000000  0.4146810000000  0.5355040000000 1.0
C      1  0.4498430000000  0.5364660000000  0.4691590000000 1.0
C      1  0.5329450000000  0.4241860000000  0.4218150000000 1.0
C      1  0.4514070000000  0.5968640000000  0.4991340000000 1.0
C      1  0.3954530000000  0.5102110000000  0.4695490000000 1.0
C      1  0.5317900000000  0.5467530000000  0.5125680000000 1.0
C      1  0.4169260000000  0.5288550000000  0.4296660000000 1.0
C      1  0.4703840000000  0.4741470000000  0.5005500000000 1.0
C      1  0.4688550000000  0.4262650000000  0.5869380000000 1.0
C      1  0.4630000000000  0.5112380000000  0.5540540000000 1.0
C      1  0.5055610000000  0.5008800000000  0.4937890000000 1.0
C      1  0.4931900000000  0.5587330000000  0.4152920000000 1.0
C      1  0.4800590000000  0.5740040000000  0.5278010000000 1.0
C      1  0.4434340000000  0.5119010000000  0.5319720000000 1.0
C      1  0.5783550000000  0.5194840000000  0.5777770000000 1.0
C      1  0.4484710000000  0.5768530000000  0.5491860000000 1.0
C      1  0.4565700000000  0.4496050000000  0.4942020000000 1.0
C      1  0.4382000000000  0.4614530000000  0.6012040000000 1.0
C      1  0.4705180000000  0.3817620000000  0.4519630000000 1.0
C      1  0.5337420000000  0.4882270000000  0.6087430000000 1.0
C      1  0.4595520000000  0.4508600000000  0.4612310000000 1.0
C      1  0.5464380000000  0.4693090000000  0.5324230000000 1.0
C      1  0.4459650000000  0.5142230000000  0.4497900000000 1.0
C      1  0.4956740000000  0.4883830000000  0.3891290000000 1.0
C      1  0.3985180000000  0.4781010000000  0.5382440000000 1.0
C      1  0.5245270000000  0.5075790000000  0.5380270000000 1.0
C      1  0.5075810000000  0.5486260000000  0.4916150000000 1.0
C      1  0.4124360000000  0.5560350000000  0.4383190000000 1.0
C      1  0.4749850000000  0.5943080000000  0.4352110000000 1.0
C      1  0.4034340000000  0.5066850000000  0.4416930000000 1.0
C      1  0.4516070000000  0.4950800000000  0.4919230000000 1.0
C      1  0.5769440000000  0.5636130000000  0.4597470000000 1.0
C      1  0.6113790000000  0.5452610000000  0.4981250000000 1.0
C      1  0.5314500000000  0.5048960000000  0.4822510000000 1.0
C      1  0.4344350000000  0.4404120000000  0.4461090000000 1.0
C      1  0.5972150000000  0.5699780000000  0.5014100000000 1.0
C      1  0.4985770000000  0.5578260000000  0.5478360000000 1.0
C      1  0.6120520000000  0.5325030000000  0.4718160000000 1.0
C      1  0.3972360000000  0.5421720000000  0.5093150000000 1.0
C      1  0.4359920000000  0.3984090000000  0.4790250000000 1.0
C      1  0.5680000000000  0.5881170000000  0.5330810000000 1.0
C      1  0.4871610000000  0.4787380000000  0.5757730000000 1.0
C      1  0.6018590000000  0.5442150000000  0.4251380000000 1.0
C      1  0.5357720000000  0.5178290000000  0.6116140000000 1.0
C      1  0.4112950000000  0.4399150000000  0.4663160000000 1.0
C      1  0.5290170000000  0.5587860000000  0.5398140000000 1.0
C      1  0.5583960000000  0.4741350000000  0.5645850000000 1.0
C      1  0.5746380000000  0.5090300000000  0.4737300000000 1.0
C      1  0.4400730000000  0.4134530000000  0.4314620000000 1.0
C      1  0.5729770000000  0.5744470000000  0.4863980000000 1.0
C      1  0.4124410000000  0.4818740000000  0.4327840000000 1.0
C      1  0.5753390000000  0.4451810000000  0.4316070000000 1.0
C      1  0.4538520000000  0.5819550000000  0.4498900000000 1.0
C      1  0.5347670000000  0.3977550000000  0.4784860000000 1.0
C      1  0.5990950000000  0.4973450000000  0.4622050000000 1.0
C      1  0.4930850000000  0.4760930000000  0.4804760000000 1.0
C      1  0.5565310000000  0.5064570000000  0.4032430000000 1.0
C      1  0.4769920000000  0.6071450000000  0.4923270000000 1.0
END
