TITL C-950523-3027-93 -6.00965085763846e-07 125000 -237.406993488048 0 0 39 (C1) n - 1
REM
REM in /home/bkarasulu/work/CARBON/AIRSS/Generating-Clusters/EDIP-Nigel-Params/with-SteepDescent/Only-C1/SD-CG/HFTN-CG
REM
REM
REM
REM
REM
REM ./C.cell (11c1c37f851c82e70ff6c80c92926a4b)
REM
REM compiler GCC version 9.2.1 20190827 (Red Hat 9.2.1-1)
REM options -cpp -mtune=generic -march=x86-64 -g -O0 -fpre-include=/usr/include/finclude/math-vector-fortran.h
REM seed -259858693 1568922887 -455905513 928064045 -174960307 1010523073 374769300 -343550811 -895685937 1429291339 -238936567 -1657201717 1628750160 -1687527546 1447439482 1306718898 1912077930 -1865866693 -858171295 2037908783 1801804164 914962993 -240336366 -1774852182 -1618396713 386218606 196328568 942998024 1406849021 -790288136 66779100 223267906 -515955698
REM
CELL 1.54180   50.00000   50.00000   50.00000   90.00000   90.00000   90.00000
LATT -1
SFAC C  
C      1  0.5041780000000  0.4960740000000  0.4835860000000 1.0
C      1  0.5353860000000  0.5016020000000  0.5200260000000 1.0
C      1  0.5371700000000  0.5248770000000  0.5409330000000 1.0
C      1  0.4454290000000  0.5179780000000  0.5166340000000 1.0
C      1  0.5563210000000  0.5044100000000  0.4943410000000 1.0
C      1  0.4854280000000  0.4931180000000  0.5310990000000 1.0
C      1  0.5140650000000  0.4632390000000  0.5481990000000 1.0
C      1  0.4858660000000  0.4883100000000  0.4297840000000 1.0
C      1  0.5071350000000  0.5057370000000  0.5107920000000 1.0
C      1  0.5258430000000  0.5525130000000  0.5081980000000 1.0
C      1  0.4975890000000  0.4358020000000  0.4813140000000 1.0
C      1  0.4977780000000  0.4862640000000  0.5574590000000 1.0
C      1  0.4708480000000  0.4375250000000  0.4847610000000 1.0
C      1  0.4917850000000  0.5159490000000  0.4683320000000 1.0
C      1  0.4588520000000  0.5462020000000  0.4700710000000 1.0
C      1  0.5112220000000  0.5284850000000  0.5557380000000 1.0
C      1  0.4433820000000  0.4778750000000  0.4910880000000 1.0
C      1  0.4654200000000  0.5157750000000  0.5360810000000 1.0
C      1  0.4740840000000  0.5054350000000  0.4489380000000 1.0
C      1  0.5005840000000  0.5361340000000  0.5096270000000 1.0
C      1  0.4771440000000  0.4651810000000  0.5236100000000 1.0
C      1  0.4955290000000  0.4460280000000  0.5342230000000 1.0
C      1  0.5205170000000  0.4769370000000  0.4682770000000 1.0
C      1  0.5395230000000  0.5514610000000  0.4842830000000 1.0
C      1  0.4872310000000  0.5371670000000  0.5370240000000 1.0
C      1  0.4621280000000  0.4593680000000  0.4997740000000 1.0
C      1  0.4518190000000  0.5252960000000  0.4497040000000 1.0
C      1  0.4354000000000  0.5043910000000  0.4942200000000 1.0
C      1  0.5209910000000  0.4508100000000  0.4826130000000 1.0
C      1  0.5342140000000  0.4538050000000  0.5071760000000 1.0
C      1  0.5582990000000  0.5319030000000  0.4788370000000 1.0
C      1  0.5532180000000  0.5138340000000  0.4566070000000 1.0
C      1  0.5078360000000  0.5067450000000  0.5735370000000 1.0
C      1  0.4305580000000  0.5196010000000  0.4698820000000 1.0
C      1  0.4829190000000  0.5383050000000  0.4840230000000 1.0
C      1  0.5352950000000  0.4719150000000  0.5288980000000 1.0
C      1  0.5073170000000  0.4764790000000  0.4421340000000 1.0
C      1  0.5431780000000  0.5499510000000  0.5299440000000 1.0
C      1  0.5485170000000  0.4875180000000  0.4682350000000 1.0
END
