TITL C-950524-1808-400 -2.44221592841774e-06 125000 -1059.38937171941 0 0 169 (C1) n - 1
REM
REM in /home/bkarasulu/work/CARBON/AIRSS/Generating-Clusters/EDIP-Nigel-Params/with-SteepDescent/Only-C1/SD-CG/HFTN-CG
REM
REM
REM
REM
REM
REM ./C.cell (11c1c37f851c82e70ff6c80c92926a4b)
REM
REM compiler GCC version 9.2.1 20190827 (Red Hat 9.2.1-1)
REM options -cpp -mtune=generic -march=x86-64 -g -O0 -fpre-include=/usr/include/finclude/math-vector-fortran.h
REM seed -2115884142 1664720717 -426031352 1418756608 1825860781 357024359 213702558 -1638146813 -108486978 1550003439 441755339 1031337277 -1484628829 27156495 10069884 1358687038 -653515056 -1590543901 -81654686 119519578 -1149948514 -224778670 -124259589 1010838554 255649299 1543284685 -325938184 1837957259 -798735354 1793496231 335952015 -1741420050 455239786
REM
CELL 1.54180   50.00000   50.00000   50.00000   90.00000   90.00000   90.00000
LATT -1
SFAC C  
C      1  0.4059780000000  0.4700040000000  0.5296690000000 1.0
C      1  0.4416020000000  0.4634030000000  0.4702670000000 1.0
C      1  0.4955170000000  0.5680390000000  0.4453700000000 1.0
C      1  0.5420890000000  0.4361650000000  0.4246190000000 1.0
C      1  0.4610690000000  0.5314440000000  0.4157740000000 1.0
C      1  0.5206890000000  0.5505650000000  0.5368140000000 1.0
C      1  0.4951930000000  0.4590320000000  0.6023240000000 1.0
C      1  0.4707730000000  0.5035590000000  0.4252990000000 1.0
C      1  0.5328770000000  0.5521840000000  0.5881840000000 1.0
C      1  0.4327940000000  0.5097970000000  0.5175750000000 1.0
C      1  0.5423660000000  0.4785960000000  0.6033480000000 1.0
C      1  0.5609830000000  0.5109420000000  0.4796240000000 1.0
C      1  0.4323690000000  0.4310730000000  0.5564710000000 1.0
C      1  0.4536430000000  0.5482220000000  0.4712890000000 1.0
C      1  0.4054610000000  0.4419690000000  0.5194820000000 1.0
C      1  0.5126900000000  0.4335800000000  0.4326640000000 1.0
C      1  0.4902960000000  0.5363070000000  0.4024260000000 1.0
C      1  0.5929370000000  0.5406530000000  0.4887440000000 1.0
C      1  0.4718760000000  0.5876710000000  0.5292470000000 1.0
C      1  0.4806900000000  0.4834390000000  0.5159610000000 1.0
C      1  0.4619370000000  0.5056240000000  0.4519130000000 1.0
C      1  0.5573640000000  0.4964640000000  0.5152490000000 1.0
C      1  0.4802580000000  0.4850300000000  0.3860200000000 1.0
C      1  0.5929820000000  0.4292370000000  0.5039600000000 1.0
C      1  0.4320340000000  0.4111410000000  0.4757560000000 1.0
C      1  0.4831650000000  0.5619490000000  0.5819490000000 1.0
C      1  0.5492610000000  0.4142150000000  0.4866930000000 1.0
C      1  0.5070800000000  0.4701900000000  0.4451910000000 1.0
C      1  0.5155460000000  0.5948410000000  0.5616590000000 1.0
C      1  0.5245910000000  0.4751900000000  0.3996930000000 1.0
C      1  0.5480960000000  0.6062580000000  0.5448300000000 1.0
C      1  0.5460790000000  0.4624250000000  0.4130910000000 1.0
C      1  0.4789710000000  0.4171130000000  0.4674030000000 1.0
C      1  0.5213030000000  0.6069540000000  0.5343990000000 1.0
C      1  0.4636610000000  0.5533560000000  0.4998680000000 1.0
C      1  0.5325840000000  0.6062960000000  0.4982930000000 1.0
C      1  0.4704060000000  0.4473260000000  0.5434620000000 1.0
C      1  0.5769340000000  0.4187720000000  0.4769740000000 1.0
C      1  0.4095040000000  0.4568830000000  0.5750680000000 1.0
C      1  0.5244940000000  0.5130280000000  0.5697610000000 1.0
C      1  0.5674380000000  0.5219650000000  0.5777280000000 1.0
C      1  0.5037780000000  0.5690360000000  0.5211290000000 1.0
C      1  0.4894860000000  0.4443830000000  0.4145880000000 1.0
C      1  0.5629120000000  0.5825850000000  0.5377540000000 1.0
C      1  0.5018310000000  0.5004380000000  0.5887390000000 1.0
C      1  0.4727140000000  0.5339930000000  0.5756000000000 1.0
C      1  0.5806990000000  0.5160470000000  0.4513440000000 1.0
C      1  0.4433220000000  0.5339740000000  0.5712680000000 1.0
C      1  0.4666800000000  0.5940030000000  0.4764470000000 1.0
C      1  0.4482030000000  0.5764260000000  0.4602590000000 1.0
C      1  0.4821150000000  0.4426550000000  0.4819500000000 1.0
C      1  0.5230620000000  0.5233240000000  0.4504260000000 1.0
C      1  0.5491370000000  0.5570510000000  0.4418590000000 1.0
C      1  0.4071250000000  0.5194710000000  0.5319350000000 1.0
C      1  0.5240160000000  0.4134490000000  0.5460100000000 1.0
C      1  0.5648230000000  0.5383020000000  0.5253750000000 1.0
C      1  0.5049020000000  0.4123880000000  0.4525570000000 1.0
C      1  0.3997460000000  0.4439980000000  0.4909840000000 1.0
C      1  0.5083550000000  0.4509560000000  0.5757470000000 1.0
C      1  0.4766920000000  0.4893960000000  0.5614740000000 1.0
C      1  0.5936320000000  0.4620920000000  0.4215680000000 1.0
C      1  0.4946710000000  0.5806360000000  0.4728500000000 1.0
C      1  0.4807150000000  0.4138220000000  0.5609420000000 1.0
C      1  0.4102980000000  0.5577120000000  0.4807740000000 1.0
C      1  0.5340300000000  0.4391820000000  0.4821910000000 1.0
C      1  0.4152930000000  0.5253820000000  0.4416510000000 1.0
C      1  0.5682610000000  0.4891060000000  0.5477100000000 1.0
C      1  0.4200600000000  0.5796120000000  0.4647700000000 1.0
C      1  0.5459250000000  0.4864850000000  0.4720820000000 1.0
C      1  0.5811950000000  0.4606230000000  0.5518170000000 1.0
C      1  0.4470230000000  0.4172310000000  0.5019960000000 1.0
C      1  0.4260460000000  0.5338840000000  0.4702300000000 1.0
C      1  0.3885400000000  0.4850450000000  0.5104730000000 1.0
C      1  0.5876280000000  0.5697180000000  0.4643780000000 1.0
C      1  0.4269840000000  0.4245570000000  0.5279970000000 1.0
C      1  0.4786810000000  0.4202880000000  0.5327470000000 1.0
C      1  0.5670380000000  0.5510610000000  0.4986370000000 1.0
C      1  0.4816300000000  0.5185800000000  0.5468380000000 1.0
C      1  0.4687340000000  0.4699470000000  0.6009270000000 1.0
C      1  0.4554410000000  0.5764850000000  0.5503800000000 1.0
C      1  0.5764800000000  0.5479700000000  0.4483630000000 1.0
C      1  0.3965720000000  0.4760850000000  0.5574660000000 1.0
C      1  0.5436140000000  0.5179330000000  0.4126500000000 1.0
C      1  0.5109900000000  0.5688140000000  0.5758130000000 1.0
C      1  0.5870490000000  0.4551430000000  0.5213240000000 1.0
C      1  0.4701040000000  0.5003710000000  0.4957840000000 1.0
C      1  0.5608310000000  0.4429660000000  0.5655740000000 1.0
C      1  0.4456150000000  0.4830700000000  0.5593800000000 1.0
C      1  0.5266940000000  0.5029560000000  0.3935590000000 1.0
C      1  0.5479770000000  0.4308800000000  0.5420470000000 1.0
C      1  0.4572140000000  0.5312690000000  0.5250650000000 1.0
C      1  0.4763420000000  0.3976900000000  0.4905770000000 1.0
C      1  0.6035850000000  0.5218150000000  0.5079480000000 1.0
C      1  0.5982560000000  0.4953540000000  0.4976900000000 1.0
C      1  0.4155890000000  0.5653620000000  0.5087530000000 1.0
C      1  0.4318270000000  0.5062880000000  0.5759600000000 1.0
C      1  0.5125340000000  0.5214540000000  0.5416940000000 1.0
C      1  0.5176050000000  0.5231030000000  0.4947040000000 1.0
C      1  0.4638440000000  0.4564660000000  0.4243620000000 1.0
C      1  0.5976740000000  0.4912940000000  0.4683020000000 1.0
C      1  0.4958000000000  0.5388150000000  0.4416930000000 1.0
C      1  0.4755270000000  0.5294710000000  0.4616810000000 1.0
C      1  0.4415240000000  0.5493420000000  0.5457140000000 1.0
C      1  0.5384510000000  0.4611850000000  0.5768220000000 1.0
C      1  0.3938090000000  0.4722360000000  0.4841570000000 1.0
C      1  0.4919450000000  0.4692050000000  0.4721380000000 1.0
C      1  0.4118870000000  0.4953400000000  0.4413550000000 1.0
C      1  0.5042720000000  0.3968150000000  0.4998860000000 1.0
C      1  0.4381620000000  0.4559030000000  0.5721070000000 1.0
C      1  0.5643390000000  0.4281910000000  0.4415490000000 1.0
C      1  0.4778120000000  0.5151970000000  0.5973610000000 1.0
C      1  0.5715360000000  0.5802830000000  0.5096080000000 1.0
C      1  0.5381950000000  0.5464120000000  0.4166050000000 1.0
C      1  0.5073500000000  0.4208310000000  0.5700860000000 1.0
C      1  0.4275000000000  0.5088010000000  0.4871110000000 1.0
C      1  0.4573030000000  0.4817800000000  0.4095710000000 1.0
C      1  0.4646710000000  0.5818960000000  0.5760740000000 1.0
C      1  0.5396520000000  0.5335740000000  0.4775790000000 1.0
C      1  0.5682530000000  0.5918940000000  0.4665720000000 1.0
C      1  0.6069880000000  0.4744010000000  0.5137710000000 1.0
C      1  0.4935270000000  0.5600520000000  0.4957190000000 1.0
C      1  0.5129220000000  0.4814830000000  0.6101840000000 1.0
C      1  0.4052590000000  0.5050480000000  0.5601380000000 1.0
C      1  0.4557470000000  0.4462820000000  0.4952430000000 1.0
C      1  0.6066720000000  0.4429180000000  0.4828280000000 1.0
C      1  0.5338220000000  0.4898450000000  0.4456250000000 1.0
C      1  0.5909330000000  0.5296460000000  0.5345690000000 1.0
C      1  0.5215000000000  0.5948280000000  0.4738450000000 1.0
C      1  0.4595560000000  0.4635870000000  0.5200900000000 1.0
C      1  0.4310140000000  0.5250060000000  0.4144310000000 1.0
C      1  0.4566330000000  0.4956640000000  0.6004800000000 1.0
C      1  0.5561820000000  0.5484180000000  0.5719750000000 1.0
C      1  0.5225270000000  0.4019590000000  0.4759360000000 1.0
C      1  0.4354350000000  0.4813010000000  0.5297990000000 1.0
C      1  0.5060420000000  0.4184550000000  0.5212010000000 1.0
C      1  0.5610160000000  0.4660990000000  0.5101250000000 1.0
C      1  0.5882900000000  0.4609220000000  0.4681800000000 1.0
C      1  0.5425200000000  0.4883300000000  0.5641150000000 1.0
C      1  0.5070120000000  0.4767170000000  0.5038750000000 1.0
C      1  0.4451310000000  0.4459420000000  0.4448080000000 1.0
C      1  0.5128830000000  0.5580430000000  0.4060400000000 1.0
C      1  0.5400210000000  0.4525600000000  0.5248030000000 1.0
C      1  0.5576740000000  0.4610970000000  0.4806730000000 1.0
C      1  0.5316290000000  0.5282630000000  0.6044960000000 1.0
C      1  0.5682100000000  0.5055930000000  0.4240140000000 1.0
C      1  0.4923280000000  0.4644920000000  0.5541620000000 1.0
C      1  0.4650050000000  0.4839680000000  0.4707820000000 1.0
C      1  0.4557600000000  0.5840000000000  0.5046300000000 1.0
C      1  0.4987080000000  0.5108550000000  0.3871840000000 1.0
C      1  0.5182060000000  0.4462380000000  0.5076910000000 1.0
C      1  0.4178590000000  0.4845410000000  0.4705640000000 1.0
C      1  0.3850220000000  0.5129210000000  0.5140880000000 1.0
C      1  0.4276320000000  0.5906970000000  0.5104520000000 1.0
C      1  0.5046150000000  0.5805540000000  0.4217200000000 1.0
C      1  0.5617800000000  0.6027460000000  0.4936820000000 1.0
C      1  0.5873220000000  0.4456700000000  0.4431110000000 1.0
C      1  0.4906340000000  0.5178790000000  0.4841710000000 1.0
C      1  0.4138220000000  0.5490040000000  0.5335590000000 1.0
C      1  0.4513820000000  0.4181060000000  0.4538230000000 1.0
C      1  0.5504500000000  0.5559510000000  0.5439110000000 1.0
C      1  0.4074950000000  0.4241150000000  0.4729000000000 1.0
C      1  0.5870880000000  0.5104790000000  0.5575190000000 1.0
C      1  0.5536980000000  0.5085840000000  0.6017530000000 1.0
C      1  0.4991780000000  0.4627980000000  0.3932420000000 1.0
C      1  0.5252040000000  0.5026450000000  0.5152840000000 1.0
C      1  0.5013400000000  0.4986270000000  0.4289570000000 1.0
C      1  0.5427480000000  0.5841550000000  0.4546310000000 1.0
C      1  0.5706870000000  0.4772160000000  0.4167730000000 1.0
C      1  0.4275080000000  0.4936260000000  0.4132500000000 1.0
END
