TITL C-950525-1983-231 -1.73694642923733e-08 125000 -718.217484607044 0 0 116 (C1) n - 1
REM
REM in /home/bkarasulu/work/CARBON/AIRSS/Generating-Clusters/EDIP-Nigel-Params/with-SteepDescent/Only-C1/SD-CG/HFTN-CG
REM
REM
REM
REM
REM
REM ./C.cell (11c1c37f851c82e70ff6c80c92926a4b)
REM
REM compiler GCC version 9.2.1 20190827 (Red Hat 9.2.1-1)
REM options -cpp -mtune=generic -march=x86-64 -g -O0 -fpre-include=/usr/include/finclude/math-vector-fortran.h
REM seed -2071744056 1395746345 911387301 1897642272 -943666843 1015745736 1225612847 625845248 1000539702 1988456411 -946741977 -252754467 -957541259 828192213 1358776140 865347212 -755188740 1920241702 1787975022 273248116 296837753 1267746793 607524029 -219906929 -675920149 1909519306 985999919 927320079 457353662 -408094139 -693226596 57976262 -1521433270
REM
CELL 1.54180   50.00000   50.00000   50.00000   90.00000   90.00000   90.00000
LATT -1
SFAC C  
C      1  0.4712240000000  0.4932830000000  0.5124840000000 1.0
C      1  0.5073650000000  0.4467340000000  0.5789360000000 1.0
C      1  0.5742880000000  0.4394120000000  0.5002100000000 1.0
C      1  0.5572580000000  0.4821800000000  0.5329800000000 1.0
C      1  0.4702920000000  0.5818180000000  0.5341120000000 1.0
C      1  0.5621780000000  0.5377670000000  0.5379850000000 1.0
C      1  0.4491880000000  0.4429760000000  0.4617500000000 1.0
C      1  0.5308020000000  0.4147120000000  0.4843440000000 1.0
C      1  0.5588410000000  0.5630190000000  0.5237170000000 1.0
C      1  0.4575740000000  0.5374250000000  0.5822930000000 1.0
C      1  0.5361760000000  0.5050300000000  0.5711260000000 1.0
C      1  0.4769220000000  0.5263080000000  0.4095290000000 1.0
C      1  0.5798610000000  0.4688660000000  0.4925240000000 1.0
C      1  0.4573810000000  0.5535170000000  0.4452700000000 1.0
C      1  0.5509440000000  0.5288750000000  0.4499000000000 1.0
C      1  0.4835100000000  0.4766440000000  0.4603960000000 1.0
C      1  0.4802320000000  0.4110300000000  0.4890150000000 1.0
C      1  0.5133800000000  0.5003630000000  0.5007030000000 1.0
C      1  0.4718400000000  0.5820600000000  0.5054660000000 1.0
C      1  0.4725960000000  0.4981270000000  0.5421940000000 1.0
C      1  0.4524680000000  0.4900110000000  0.5636930000000 1.0
C      1  0.5468150000000  0.4757140000000  0.5809640000000 1.0
C      1  0.5047530000000  0.4523940000000  0.4973040000000 1.0
C      1  0.4697800000000  0.4288230000000  0.4442990000000 1.0
C      1  0.5270550000000  0.5469470000000  0.4094890000000 1.0
C      1  0.5227360000000  0.5852350000000  0.4986370000000 1.0
C      1  0.5261970000000  0.5489250000000  0.5701610000000 1.0
C      1  0.4461710000000  0.5347830000000  0.5232010000000 1.0
C      1  0.3926870000000  0.5044360000000  0.5146240000000 1.0
C      1  0.5036990000000  0.5474950000000  0.4633060000000 1.0
C      1  0.4076280000000  0.5455480000000  0.4970110000000 1.0
C      1  0.5036220000000  0.5192280000000  0.4563100000000 1.0
C      1  0.4953320000000  0.5517900000000  0.4149140000000 1.0
C      1  0.4745280000000  0.5437320000000  0.5266980000000 1.0
C      1  0.4800900000000  0.4445260000000  0.4228720000000 1.0
C      1  0.4523770000000  0.5325950000000  0.4246900000000 1.0
C      1  0.5594040000000  0.5087630000000  0.4871310000000 1.0
C      1  0.4883920000000  0.4129040000000  0.4609030000000 1.0
C      1  0.4275170000000  0.4923540000000  0.4479700000000 1.0
C      1  0.5275180000000  0.5683750000000  0.4289860000000 1.0
C      1  0.4724670000000  0.5602540000000  0.5752780000000 1.0
C      1  0.5177740000000  0.4136100000000  0.4577740000000 1.0
C      1  0.5098650000000  0.5241070000000  0.5756210000000 1.0
C      1  0.4140400000000  0.4952490000000  0.5307490000000 1.0
C      1  0.5322230000000  0.5767320000000  0.5270540000000 1.0
C      1  0.5579490000000  0.4248620000000  0.4810660000000 1.0
C      1  0.4956280000000  0.5894600000000  0.4926340000000 1.0
C      1  0.4465570000000  0.4264400000000  0.5203560000000 1.0
C      1  0.5172020000000  0.4730800000000  0.4602610000000 1.0
C      1  0.4658780000000  0.4904130000000  0.5899960000000 1.0
C      1  0.5523150000000  0.4792160000000  0.5004330000000 1.0
C      1  0.4606160000000  0.4465300000000  0.5634940000000 1.0
C      1  0.4803360000000  0.4559720000000  0.5823670000000 1.0
C      1  0.5230010000000  0.5025230000000  0.4711190000000 1.0
C      1  0.4394890000000  0.4656600000000  0.4406140000000 1.0
C      1  0.5093270000000  0.4924640000000  0.4004970000000 1.0
C      1  0.4171880000000  0.5038860000000  0.4729730000000 1.0
C      1  0.3970370000000  0.4909250000000  0.4898720000000 1.0
C      1  0.4261150000000  0.4702230000000  0.5161880000000 1.0
C      1  0.5212550000000  0.5428230000000  0.5110890000000 1.0
C      1  0.4719720000000  0.5173590000000  0.5974860000000 1.0
C      1  0.4725570000000  0.5195150000000  0.4912640000000 1.0
C      1  0.5824830000000  0.4794850000000  0.4634240000000 1.0
C      1  0.4487990000000  0.5088240000000  0.4390640000000 1.0
C      1  0.4334980000000  0.5293010000000  0.5697370000000 1.0
C      1  0.4838110000000  0.4964740000000  0.4112720000000 1.0
C      1  0.4532850000000  0.4207310000000  0.4928410000000 1.0
C      1  0.4872090000000  0.5739080000000  0.5555360000000 1.0
C      1  0.5282110000000  0.4304770000000  0.4377090000000 1.0
C      1  0.5145610000000  0.4456480000000  0.5499370000000 1.0
C      1  0.5942780000000  0.5055800000000  0.4598430000000 1.0
C      1  0.4684120000000  0.4342210000000  0.5385370000000 1.0
C      1  0.4859740000000  0.5611520000000  0.4428860000000 1.0
C      1  0.5936130000000  0.5212240000000  0.5008970000000 1.0
C      1  0.4332300000000  0.5164670000000  0.5434040000000 1.0
C      1  0.5424770000000  0.5240170000000  0.4202140000000 1.0
C      1  0.4297590000000  0.5559050000000  0.5115850000000 1.0
C      1  0.5589610000000  0.4621630000000  0.5563460000000 1.0
C      1  0.5097620000000  0.4741400000000  0.5403820000000 1.0
C      1  0.5436460000000  0.5347260000000  0.4929540000000 1.0
C      1  0.5813950000000  0.5312170000000  0.4565200000000 1.0
C      1  0.5859000000000  0.5443310000000  0.4828570000000 1.0
C      1  0.4988350000000  0.4774910000000  0.5125840000000 1.0
C      1  0.5140480000000  0.5641990000000  0.5483170000000 1.0
C      1  0.4988380000000  0.5231700000000  0.6025000000000 1.0
C      1  0.5424650000000  0.5762370000000  0.4776530000000 1.0
C      1  0.4715890000000  0.4714030000000  0.4312940000000 1.0
C      1  0.5163840000000  0.5175270000000  0.5261620000000 1.0
C      1  0.5983600000000  0.4837270000000  0.5107330000000 1.0
C      1  0.4783220000000  0.5068560000000  0.4634520000000 1.0
C      1  0.4205560000000  0.5329310000000  0.4749660000000 1.0
C      1  0.5275260000000  0.4594810000000  0.5933130000000 1.0
C      1  0.5850640000000  0.4942620000000  0.5345600000000 1.0
C      1  0.5859170000000  0.5231110000000  0.5300150000000 1.0
C      1  0.5463120000000  0.4756350000000  0.4263510000000 1.0
C      1  0.5519230000000  0.5339870000000  0.5650050000000 1.0
C      1  0.5300360000000  0.4588130000000  0.4840770000000 1.0
C      1  0.4519390000000  0.4751840000000  0.5015800000000 1.0
C      1  0.5246400000000  0.4582170000000  0.4345030000000 1.0
C      1  0.4052280000000  0.4635220000000  0.4961310000000 1.0
C      1  0.4901160000000  0.5224070000000  0.5439370000000 1.0
C      1  0.5034400000000  0.4233370000000  0.5047700000000 1.0
C      1  0.4486810000000  0.5448450000000  0.4731580000000 1.0
C      1  0.4652840000000  0.4610620000000  0.4795880000000 1.0
C      1  0.5357770000000  0.4970010000000  0.4091910000000 1.0
C      1  0.5441110000000  0.4392240000000  0.5459790000000 1.0
C      1  0.4484350000000  0.5692000000000  0.4922750000000 1.0
C      1  0.4941710000000  0.5457870000000  0.4953340000000 1.0
C      1  0.4389750000000  0.4641980000000  0.5605910000000 1.0
C      1  0.5321250000000  0.5567910000000  0.4559800000000 1.0
C      1  0.5570850000000  0.4894780000000  0.4500170000000 1.0
C      1  0.5313050000000  0.4956180000000  0.5429440000000 1.0
C      1  0.4963180000000  0.4263450000000  0.5346290000000 1.0
C      1  0.5610780000000  0.5581570000000  0.4937000000000 1.0
C      1  0.4223000000000  0.4419410000000  0.5237020000000 1.0
C      1  0.5521400000000  0.4328420000000  0.5187820000000 1.0
END
