TITL C-950532-2784-256 -3.24830112985264e-06 125000 -689.98822093276 0 0 112 (C1) n - 1
REM
REM in /home/bkarasulu/work/CARBON/AIRSS/Generating-Clusters/EDIP-Nigel-Params/with-SteepDescent/Only-C1/SD-CG/HFTN-CG
REM
REM
REM
REM
REM
REM ./C.cell (11c1c37f851c82e70ff6c80c92926a4b)
REM
REM compiler GCC version 9.2.1 20190827 (Red Hat 9.2.1-1)
REM options -cpp -mtune=generic -march=x86-64 -g -O0 -fpre-include=/usr/include/finclude/math-vector-fortran.h
REM seed 2049377532 -789889509 1895928356 -288189149 -1277951352 -1469161207 -995588422 1017610792 -243746430 -977473635 -858758462 -1145354118 809623147 1702824618 44494304 941739713 -1227913085 365192694 886418837 -1175033684 2028500095 -322520042 1822729392 -493046466 1738337159 643958022 1516126252 -2012780432 1085601868 -791593576 -913965604 1326575253 -1541301504
REM
CELL 1.54180   50.00000   50.00000   50.00000   90.00000   90.00000   90.00000
LATT -1
SFAC C  
C      1  0.5355420000000  0.5820090000000  0.5448580000000 1.0
C      1  0.4721910000000  0.4624410000000  0.4766300000000 1.0
C      1  0.5265030000000  0.5380640000000  0.4749430000000 1.0
C      1  0.4685220000000  0.5414140000000  0.5228950000000 1.0
C      1  0.4641190000000  0.5634310000000  0.4478360000000 1.0
C      1  0.5449240000000  0.5033470000000  0.4052920000000 1.0
C      1  0.4742670000000  0.5108080000000  0.5282970000000 1.0
C      1  0.4308380000000  0.4517720000000  0.5026280000000 1.0
C      1  0.4461560000000  0.5025930000000  0.4214520000000 1.0
C      1  0.5580440000000  0.5363430000000  0.4758880000000 1.0
C      1  0.4147230000000  0.4703390000000  0.4850140000000 1.0
C      1  0.5196990000000  0.4443160000000  0.4696470000000 1.0
C      1  0.4676420000000  0.4505750000000  0.5741480000000 1.0
C      1  0.5668100000000  0.4464180000000  0.5547840000000 1.0
C      1  0.4446160000000  0.5464620000000  0.5031650000000 1.0
C      1  0.4411320000000  0.4883990000000  0.5680450000000 1.0
C      1  0.5404200000000  0.4651320000000  0.4504760000000 1.0
C      1  0.5175290000000  0.5488430000000  0.5052680000000 1.0
C      1  0.4886350000000  0.5265270000000  0.5810010000000 1.0
C      1  0.4710800000000  0.4500850000000  0.5300460000000 1.0
C      1  0.4885860000000  0.5534800000000  0.5042990000000 1.0
C      1  0.5458650000000  0.5171410000000  0.4329730000000 1.0
C      1  0.4225430000000  0.5127990000000  0.4636290000000 1.0
C      1  0.4878190000000  0.5735810000000  0.4620370000000 1.0
C      1  0.4665080000000  0.4791250000000  0.5786350000000 1.0
C      1  0.5219990000000  0.4005650000000  0.4894590000000 1.0
C      1  0.4787730000000  0.5777840000000  0.5598740000000 1.0
C      1  0.5834880000000  0.4958280000000  0.4561820000000 1.0
C      1  0.5236270000000  0.5425740000000  0.5740670000000 1.0
C      1  0.5588420000000  0.4325620000000  0.4995310000000 1.0
C      1  0.5093340000000  0.5348570000000  0.5497120000000 1.0
C      1  0.5316690000000  0.4911970000000  0.5707950000000 1.0
C      1  0.5673670000000  0.5430380000000  0.5446490000000 1.0
C      1  0.5082280000000  0.4754750000000  0.4119750000000 1.0
C      1  0.4215910000000  0.5444970000000  0.5204020000000 1.0
C      1  0.4863000000000  0.4058440000000  0.5202760000000 1.0
C      1  0.4995180000000  0.5845990000000  0.5756190000000 1.0
C      1  0.5203480000000  0.5643960000000  0.4276500000000 1.0
C      1  0.4997350000000  0.4522540000000  0.5179770000000 1.0
C      1  0.5729420000000  0.4658880000000  0.5349890000000 1.0
C      1  0.4971930000000  0.5683430000000  0.4120780000000 1.0
C      1  0.5650420000000  0.5186410000000  0.4994050000000 1.0
C      1  0.4017200000000  0.4877910000000  0.5026930000000 1.0
C      1  0.4419830000000  0.4226530000000  0.5037150000000 1.0
C      1  0.5143610000000  0.5094080000000  0.4703530000000 1.0
C      1  0.4419250000000  0.5772280000000  0.4621840000000 1.0
C      1  0.5249120000000  0.5731060000000  0.5720220000000 1.0
C      1  0.5156560000000  0.5756080000000  0.4548360000000 1.0
C      1  0.5097430000000  0.4552880000000  0.5919740000000 1.0
C      1  0.5344390000000  0.4702860000000  0.5504760000000 1.0
C      1  0.4659560000000  0.4941640000000  0.4856180000000 1.0
C      1  0.5626330000000  0.5765640000000  0.5045550000000 1.0
C      1  0.5137780000000  0.4833620000000  0.5928450000000 1.0
C      1  0.5211200000000  0.5357280000000  0.4365250000000 1.0
C      1  0.4313410000000  0.4660650000000  0.5504900000000 1.0
C      1  0.4550850000000  0.4942750000000  0.5131580000000 1.0
C      1  0.4788360000000  0.4588540000000  0.4465800000000 1.0
C      1  0.4716780000000  0.5578080000000  0.4180720000000 1.0
C      1  0.5325600000000  0.5808740000000  0.4800230000000 1.0
C      1  0.4790590000000  0.4154160000000  0.4696380000000 1.0
C      1  0.5353000000000  0.4248520000000  0.4863240000000 1.0
C      1  0.5797050000000  0.4699040000000  0.4172070000000 1.0
C      1  0.5115930000000  0.4240450000000  0.5237340000000 1.0
C      1  0.5005110000000  0.4168370000000  0.5607700000000 1.0
C      1  0.5558810000000  0.4926560000000  0.4902670000000 1.0
C      1  0.5756050000000  0.4538940000000  0.5075340000000 1.0
C      1  0.5550490000000  0.4749680000000  0.4044060000000 1.0
C      1  0.5729100000000  0.4707230000000  0.4446420000000 1.0
C      1  0.5703710000000  0.4951940000000  0.5441480000000 1.0
C      1  0.4500270000000  0.5742650000000  0.4896530000000 1.0
C      1  0.4989000000000  0.5169410000000  0.4225960000000 1.0
C      1  0.5196730000000  0.5260690000000  0.5249450000000 1.0
C      1  0.5023490000000  0.5025910000000  0.5191710000000 1.0
C      1  0.4593290000000  0.5352660000000  0.4544750000000 1.0
C      1  0.4933640000000  0.4826360000000  0.4356560000000 1.0
C      1  0.4951940000000  0.5009640000000  0.4903940000000 1.0
C      1  0.4935720000000  0.3998010000000  0.4915870000000 1.0
C      1  0.4603700000000  0.4211130000000  0.5272300000000 1.0
C      1  0.5152330000000  0.5020890000000  0.4000020000000 1.0
C      1  0.4994150000000  0.4571460000000  0.4885800000000 1.0
C      1  0.5778110000000  0.4746730000000  0.4882030000000 1.0
C      1  0.5108130000000  0.5914150000000  0.4988500000000 1.0
C      1  0.5271980000000  0.4186580000000  0.5506780000000 1.0
C      1  0.4475760000000  0.5234380000000  0.4804970000000 1.0
C      1  0.4185940000000  0.5227650000000  0.5378400000000 1.0
C      1  0.4363230000000  0.5243890000000  0.4378500000000 1.0
C      1  0.4635980000000  0.5566300000000  0.5496780000000 1.0
C      1  0.5557970000000  0.5663070000000  0.5308380000000 1.0
C      1  0.4408100000000  0.5154100000000  0.5567080000000 1.0
C      1  0.4465740000000  0.4675410000000  0.5235670000000 1.0
C      1  0.4392990000000  0.4780180000000  0.4362100000000 1.0
C      1  0.5671760000000  0.5638580000000  0.4799460000000 1.0
C      1  0.4877010000000  0.4971820000000  0.5892180000000 1.0
C      1  0.4922570000000  0.4374550000000  0.5791400000000 1.0
C      1  0.4724890000000  0.5283280000000  0.4131530000000 1.0
C      1  0.4540970000000  0.4545940000000  0.4319440000000 1.0
C      1  0.4606460000000  0.5348220000000  0.5688900000000 1.0
C      1  0.5402200000000  0.4415500000000  0.5632060000000 1.0
C      1  0.5398880000000  0.4937790000000  0.4638960000000 1.0
C      1  0.4970490000000  0.4325480000000  0.4517850000000 1.0
C      1  0.4816950000000  0.5784310000000  0.4900970000000 1.0
C      1  0.5577550000000  0.5036810000000  0.5702260000000 1.0
C      1  0.5332040000000  0.4627010000000  0.4202120000000 1.0
C      1  0.5128050000000  0.4752790000000  0.5300530000000 1.0
C      1  0.5144780000000  0.5821210000000  0.5255270000000 1.0
C      1  0.5698190000000  0.5218680000000  0.4507680000000 1.0
C      1  0.4555230000000  0.4337200000000  0.4784540000000 1.0
C      1  0.5544670000000  0.5333150000000  0.5704040000000 1.0
C      1  0.4457600000000  0.4392900000000  0.5581450000000 1.0
C      1  0.5736800000000  0.5194800000000  0.5279010000000 1.0
C      1  0.4042730000000  0.5022110000000  0.5254140000000 1.0
C      1  0.4287840000000  0.4843260000000  0.4631000000000 1.0
END
