TITL C-951345-2650-9 -2.7031455258625e-06 125000 -752.824118356107 0 0 121 (C1) n - 1
REM
REM in /home/bkarasulu/work/CARBON/AIRSS/Generating-Clusters/EDIP-Nigel-Params/with-SteepDescent/Only-C1/SD-CG/HFTN-CG
REM
REM
REM
REM
REM
REM ./C.cell (11c1c37f851c82e70ff6c80c92926a4b)
REM
REM compiler GCC version 9.2.1 20190827 (Red Hat 9.2.1-1)
REM options -cpp -mtune=generic -march=x86-64 -g -O0 -fpre-include=/usr/include/finclude/math-vector-fortran.h
REM seed 894425281 -1123476210 902651730 673568570 -1873666556 1754212297 -321444055 -1964563798 1471356210 -1701331837 1132086764 1642806024 -43770057 -1512136063 416276683 1039660320 -547944132 -1978017845 -2086245438 26623381 1665583144 -597111873 1369179556 2091482914 -206254666 19900223 725844833 180769942 1398082229 168129818 1599462556 1812033719 2069421965
REM
CELL 1.54180   50.00000   50.00000   50.00000   90.00000   90.00000   90.00000
LATT -1
SFAC C  
C      1  0.4053220000000  0.5367210000000  0.4801620000000 1.0
C      1  0.4663870000000  0.4142950000000  0.4567050000000 1.0
C      1  0.4310370000000  0.5545330000000  0.5639120000000 1.0
C      1  0.5556060000000  0.4458340000000  0.5514360000000 1.0
C      1  0.5547280000000  0.5476560000000  0.4813030000000 1.0
C      1  0.4420660000000  0.5820880000000  0.4775870000000 1.0
C      1  0.4693610000000  0.4966170000000  0.5111530000000 1.0
C      1  0.4918240000000  0.5970860000000  0.5562480000000 1.0
C      1  0.4953370000000  0.5317460000000  0.5329000000000 1.0
C      1  0.5110490000000  0.4568540000000  0.3998870000000 1.0
C      1  0.5708870000000  0.5061970000000  0.5399140000000 1.0
C      1  0.4424850000000  0.4237270000000  0.4726960000000 1.0
C      1  0.5606790000000  0.5484080000000  0.4512720000000 1.0
C      1  0.4561430000000  0.5613200000000  0.5507440000000 1.0
C      1  0.4905450000000  0.5307450000000  0.5918150000000 1.0
C      1  0.5403170000000  0.5448110000000  0.5672770000000 1.0
C      1  0.4525700000000  0.5221670000000  0.5179880000000 1.0
C      1  0.4929490000000  0.6040630000000  0.5279630000000 1.0
C      1  0.4121950000000  0.5470940000000  0.5057070000000 1.0
C      1  0.5455000000000  0.4873590000000  0.4111820000000 1.0
C      1  0.4253570000000  0.4949410000000  0.4864360000000 1.0
C      1  0.5456020000000  0.5153460000000  0.4224650000000 1.0
C      1  0.4812260000000  0.5243330000000  0.4672500000000 1.0
C      1  0.5564930000000  0.5782910000000  0.5333150000000 1.0
C      1  0.4877190000000  0.4676270000000  0.5477080000000 1.0
C      1  0.5115890000000  0.5792770000000  0.5278450000000 1.0
C      1  0.5205230000000  0.4830050000000  0.3968380000000 1.0
C      1  0.4996070000000  0.5546610000000  0.5154780000000 1.0
C      1  0.4483150000000  0.5630650000000  0.4553350000000 1.0
C      1  0.4206040000000  0.4754060000000  0.4652330000000 1.0
C      1  0.4736020000000  0.5036860000000  0.4214100000000 1.0
C      1  0.4742860000000  0.5714170000000  0.4443400000000 1.0
C      1  0.5126990000000  0.4371490000000  0.5762490000000 1.0
C      1  0.4905210000000  0.5818570000000  0.4666860000000 1.0
C      1  0.5521310000000  0.4971040000000  0.5602440000000 1.0
C      1  0.4779730000000  0.5746330000000  0.5679600000000 1.0
C      1  0.5795690000000  0.4969570000000  0.4570540000000 1.0
C      1  0.4393750000000  0.4703210000000  0.5426520000000 1.0
C      1  0.4649320000000  0.4703670000000  0.5261520000000 1.0
C      1  0.4964990000000  0.5581420000000  0.5840540000000 1.0
C      1  0.5320670000000  0.5610560000000  0.4431200000000 1.0
C      1  0.4874350000000  0.4275290000000  0.4992400000000 1.0
C      1  0.4369600000000  0.5649650000000  0.5028530000000 1.0
C      1  0.6016410000000  0.4249750000000  0.4423330000000 1.0
C      1  0.5337160000000  0.4268520000000  0.5572510000000 1.0
C      1  0.5131220000000  0.5496140000000  0.4229210000000 1.0
C      1  0.4660320000000  0.5234780000000  0.6028660000000 1.0
C      1  0.4660080000000  0.5314060000000  0.4168390000000 1.0
C      1  0.5359700000000  0.4714320000000  0.5300330000000 1.0
C      1  0.5203980000000  0.5779720000000  0.4650430000000 1.0
C      1  0.4772820000000  0.4349370000000  0.4370800000000 1.0
C      1  0.5851200000000  0.4912670000000  0.5195040000000 1.0
C      1  0.5263120000000  0.4460710000000  0.4211370000000 1.0
C      1  0.5759950000000  0.5354430000000  0.5006700000000 1.0
C      1  0.5501600000000  0.4648030000000  0.4287750000000 1.0
C      1  0.4676660000000  0.5980190000000  0.5140290000000 1.0
C      1  0.4606880000000  0.4603890000000  0.4448310000000 1.0
C      1  0.5028100000000  0.4658840000000  0.4721830000000 1.0
C      1  0.5776430000000  0.4691460000000  0.4410750000000 1.0
C      1  0.5584150000000  0.4115560000000  0.4902450000000 1.0
C      1  0.5709240000000  0.4221550000000  0.5114840000000 1.0
C      1  0.4759780000000  0.4794590000000  0.5833420000000 1.0
C      1  0.4617620000000  0.4432500000000  0.5070360000000 1.0
C      1  0.4557840000000  0.5432440000000  0.4981260000000 1.0
C      1  0.4531920000000  0.5359160000000  0.4700610000000 1.0
C      1  0.5177310000000  0.4801750000000  0.5537040000000 1.0
C      1  0.4633560000000  0.4518760000000  0.5807590000000 1.0
C      1  0.5039230000000  0.5067140000000  0.3988600000000 1.0
C      1  0.5231450000000  0.5282250000000  0.4059960000000 1.0
C      1  0.4567890000000  0.5021910000000  0.5873300000000 1.0
C      1  0.4260690000000  0.5193060000000  0.4688010000000 1.0
C      1  0.5421870000000  0.5034570000000  0.4925280000000 1.0
C      1  0.5214500000000  0.4239500000000  0.5303410000000 1.0
C      1  0.4395450000000  0.4526000000000  0.4642810000000 1.0
C      1  0.4268450000000  0.4927030000000  0.4416610000000 1.0
C      1  0.5262710000000  0.4479840000000  0.5141990000000 1.0
C      1  0.4485130000000  0.5787520000000  0.5268730000000 1.0
C      1  0.5564590000000  0.5529180000000  0.5446690000000 1.0
C      1  0.4667640000000  0.5328940000000  0.5425900000000 1.0
C      1  0.5228340000000  0.4650530000000  0.5808180000000 1.0
C      1  0.4946690000000  0.4125370000000  0.5240470000000 1.0
C      1  0.4501230000000  0.4831760000000  0.4259370000000 1.0
C      1  0.5397040000000  0.5737140000000  0.4875800000000 1.0
C      1  0.5347900000000  0.5167050000000  0.5722640000000 1.0
C      1  0.4846600000000  0.4401160000000  0.5625920000000 1.0
C      1  0.5036800000000  0.4830210000000  0.5953280000000 1.0
C      1  0.4394090000000  0.4553590000000  0.5666260000000 1.0
C      1  0.5663970000000  0.5319960000000  0.5283240000000 1.0
C      1  0.4437870000000  0.5094140000000  0.5630130000000 1.0
C      1  0.5862460000000  0.5076660000000  0.4937570000000 1.0
C      1  0.5237560000000  0.4923050000000  0.5113090000000 1.0
C      1  0.5238100000000  0.5632010000000  0.5800860000000 1.0
C      1  0.5288560000000  0.5172050000000  0.4486910000000 1.0
C      1  0.5074800000000  0.4345290000000  0.4413030000000 1.0
C      1  0.5042250000000  0.4509920000000  0.4964640000000 1.0
C      1  0.4771010000000  0.4760060000000  0.4634050000000 1.0
C      1  0.5121920000000  0.5111430000000  0.5904380000000 1.0
C      1  0.4479610000000  0.4233450000000  0.5264780000000 1.0
C      1  0.5893960000000  0.4640300000000  0.5230000000000 1.0
C      1  0.5139060000000  0.4940010000000  0.4482290000000 1.0
C      1  0.6164190000000  0.4417120000000  0.4574220000000 1.0
C      1  0.5317170000000  0.5260930000000  0.4779100000000 1.0
C      1  0.4731970000000  0.4173890000000  0.5436790000000 1.0
C      1  0.4687030000000  0.5951010000000  0.4838550000000 1.0
C      1  0.5714270000000  0.5221760000000  0.4385060000000 1.0
C      1  0.4977000000000  0.5093690000000  0.5125220000000 1.0
C      1  0.4891320000000  0.4080740000000  0.4747080000000 1.0
C      1  0.4840650000000  0.5516220000000  0.4254520000000 1.0
C      1  0.4220070000000  0.5239340000000  0.5237710000000 1.0
C      1  0.5373430000000  0.5859650000000  0.5147070000000 1.0
C      1  0.5022640000000  0.5304230000000  0.4889990000000 1.0
C      1  0.4401860000000  0.4115080000000  0.4999870000000 1.0
C      1  0.4126620000000  0.4976480000000  0.5126020000000 1.0
C      1  0.5755870000000  0.4414160000000  0.5310590000000 1.0
C      1  0.5586320000000  0.4868770000000  0.4766280000000 1.0
C      1  0.5384560000000  0.4094140000000  0.4726030000000 1.0
C      1  0.4856620000000  0.5007660000000  0.4498290000000 1.0
C      1  0.5142030000000  0.4119090000000  0.4589520000000 1.0
C      1  0.5885300000000  0.4464940000000  0.4553700000000 1.0
C      1  0.4239810000000  0.5287120000000  0.5545220000000 1.0
C      1  0.4154050000000  0.4764160000000  0.5300050000000 1.0
END
