TITL C-950528-5794-722 -5.7995047606763e-06 125000 -1048.0444549345 0 0 167 (C1) n - 1
REM
REM in /home/bkarasulu/work/CARBON/AIRSS/Generating-Clusters/EDIP-Nigel-Params/with-SteepDescent/Only-C1/SD-CG/HFTN-CG
REM
REM
REM
REM
REM
REM ./C.cell (11c1c37f851c82e70ff6c80c92926a4b)
REM
REM compiler GCC version 9.2.1 20190827 (Red Hat 9.2.1-1)
REM options -cpp -mtune=generic -march=x86-64 -g -O0 -fpre-include=/usr/include/finclude/math-vector-fortran.h
REM seed 1712464705 -1755334192 1046561181 -1715348608 430544376 -241633132 -230413073 -826033264 2107799486 -936714194 -342985122 1342243327 1615170458 -462536822 -526119695 -871514881 -1638595973 -332884615 -889603885 1534577706 -1137567283 -56686235 -273018598 1538054589 260602058 2021300851 -1727023804 -1408877085 351047822 1852861346 1237185740 -696359610 -1643587489
REM
CELL 1.54180   50.00000   50.00000   50.00000   90.00000   90.00000   90.00000
LATT -1
SFAC C  
C      1  0.4843250000000  0.4532120000000  0.5932470000000 1.0
C      1  0.4816520000000  0.5621460000000  0.4660140000000 1.0
C      1  0.4508800000000  0.4224170000000  0.5131090000000 1.0
C      1  0.4998500000000  0.5040190000000  0.4578280000000 1.0
C      1  0.4810620000000  0.4228770000000  0.4197940000000 1.0
C      1  0.4946840000000  0.4983450000000  0.6120130000000 1.0
C      1  0.5262330000000  0.5504960000000  0.4786950000000 1.0
C      1  0.4302110000000  0.5125790000000  0.5169940000000 1.0
C      1  0.4586920000000  0.4565810000000  0.5047880000000 1.0
C      1  0.4853500000000  0.5244100000000  0.6132970000000 1.0
C      1  0.4549040000000  0.4870050000000  0.5817280000000 1.0
C      1  0.3974370000000  0.5049260000000  0.4834350000000 1.0
C      1  0.4510340000000  0.4621340000000  0.4230540000000 1.0
C      1  0.4221300000000  0.4554310000000  0.4662880000000 1.0
C      1  0.5427940000000  0.5486960000000  0.4040380000000 1.0
C      1  0.4382540000000  0.4709590000000  0.4859220000000 1.0
C      1  0.5264200000000  0.5829660000000  0.5447130000000 1.0
C      1  0.5147850000000  0.4643210000000  0.5469900000000 1.0
C      1  0.4922100000000  0.5446560000000  0.4423430000000 1.0
C      1  0.5454340000000  0.5572630000000  0.4339640000000 1.0
C      1  0.4955790000000  0.5660250000000  0.4211720000000 1.0
C      1  0.5559110000000  0.5701380000000  0.5055580000000 1.0
C      1  0.4957720000000  0.4036370000000  0.4739040000000 1.0
C      1  0.4608690000000  0.5813800000000  0.4555840000000 1.0
C      1  0.3894900000000  0.5170850000000  0.4578150000000 1.0
C      1  0.4801180000000  0.5661250000000  0.5201870000000 1.0
C      1  0.4711370000000  0.5193880000000  0.4955610000000 1.0
C      1  0.4859150000000  0.4302340000000  0.4630740000000 1.0
C      1  0.5295880000000  0.5139540000000  0.5383820000000 1.0
C      1  0.5850360000000  0.4304310000000  0.5015160000000 1.0
C      1  0.5611160000000  0.4897940000000  0.4923980000000 1.0
C      1  0.4902760000000  0.5471920000000  0.5419900000000 1.0
C      1  0.6117060000000  0.5064690000000  0.5410710000000 1.0
C      1  0.4583440000000  0.4428980000000  0.5832330000000 1.0
C      1  0.5426590000000  0.5174600000000  0.3975480000000 1.0
C      1  0.5102120000000  0.5876090000000  0.4370760000000 1.0
C      1  0.5471410000000  0.5952180000000  0.4635250000000 1.0
C      1  0.4078160000000  0.5506420000000  0.5169840000000 1.0
C      1  0.5622600000000  0.5016470000000  0.5833960000000 1.0
C      1  0.6036950000000  0.4788130000000  0.4993110000000 1.0
C      1  0.5317650000000  0.4678750000000  0.5946760000000 1.0
C      1  0.5546430000000  0.5448840000000  0.4882870000000 1.0
C      1  0.4681700000000  0.5073270000000  0.4042710000000 1.0
C      1  0.5167580000000  0.6047800000000  0.5011000000000 1.0
C      1  0.5078430000000  0.3880530000000  0.4524080000000 1.0
C      1  0.4443700000000  0.4887280000000  0.4109970000000 1.0
C      1  0.4578910000000  0.5991800000000  0.4807740000000 1.0
C      1  0.5599670000000  0.5133920000000  0.5336930000000 1.0
C      1  0.4297790000000  0.4146470000000  0.4930220000000 1.0
C      1  0.5499330000000  0.4080150000000  0.5343710000000 1.0
C      1  0.4073260000000  0.4960660000000  0.5440590000000 1.0
C      1  0.5593720000000  0.4184380000000  0.5082550000000 1.0
C      1  0.4665100000000  0.5267630000000  0.4292360000000 1.0
C      1  0.4315280000000  0.4690740000000  0.5833940000000 1.0
C      1  0.5530590000000  0.4229020000000  0.5604820000000 1.0
C      1  0.4702850000000  0.3905100000000  0.4837950000000 1.0
C      1  0.5245160000000  0.5119450000000  0.4409010000000 1.0
C      1  0.3964490000000  0.5443030000000  0.4559060000000 1.0
C      1  0.4027470000000  0.4722740000000  0.4535240000000 1.0
C      1  0.5581580000000  0.4711970000000  0.5821900000000 1.0
C      1  0.5421380000000  0.4130340000000  0.4855520000000 1.0
C      1  0.5120840000000  0.5506990000000  0.5833180000000 1.0
C      1  0.5243770000000  0.4246990000000  0.5701260000000 1.0
C      1  0.5379120000000  0.5416930000000  0.5939140000000 1.0
C      1  0.5378800000000  0.4497010000000  0.4475290000000 1.0
C      1  0.5630140000000  0.5496130000000  0.5817190000000 1.0
C      1  0.4484290000000  0.5201650000000  0.5699510000000 1.0
C      1  0.5087900000000  0.4205560000000  0.5453280000000 1.0
C      1  0.4902550000000  0.3847790000000  0.5266400000000 1.0
C      1  0.4262320000000  0.5044400000000  0.4272680000000 1.0
C      1  0.5520000000000  0.4739770000000  0.5150330000000 1.0
C      1  0.4391080000000  0.5622990000000  0.4521120000000 1.0
C      1  0.4849460000000  0.4792540000000  0.4497280000000 1.0
C      1  0.5129340000000  0.5331760000000  0.4973560000000 1.0
C      1  0.5599120000000  0.5021810000000  0.4358420000000 1.0
C      1  0.4742910000000  0.4501130000000  0.4110310000000 1.0
C      1  0.6012510000000  0.5140600000000  0.4602520000000 1.0
C      1  0.4549780000000  0.5806530000000  0.5296830000000 1.0
C      1  0.4423760000000  0.5624900000000  0.5509360000000 1.0
C      1  0.4724430000000  0.5502970000000  0.4949140000000 1.0
C      1  0.5835730000000  0.5728000000000  0.4962560000000 1.0
C      1  0.4687090000000  0.3963950000000  0.5122130000000 1.0
C      1  0.4688240000000  0.6001300000000  0.5489060000000 1.0
C      1  0.4856520000000  0.4386760000000  0.5426440000000 1.0
C      1  0.4169470000000  0.5489690000000  0.5458460000000 1.0
C      1  0.5108340000000  0.4232540000000  0.4201150000000 1.0
C      1  0.3926270000000  0.4806920000000  0.5200870000000 1.0
C      1  0.5256600000000  0.4047010000000  0.4383160000000 1.0
C      1  0.5050260000000  0.5810970000000  0.4662670000000 1.0
C      1  0.4711570000000  0.4729750000000  0.5557430000000 1.0
C      1  0.4474580000000  0.5509410000000  0.4260770000000 1.0
C      1  0.5415790000000  0.5607080000000  0.5320580000000 1.0
C      1  0.5621970000000  0.4529430000000  0.5573630000000 1.0
C      1  0.5660980000000  0.5177150000000  0.5034570000000 1.0
C      1  0.5936120000000  0.4867470000000  0.4706270000000 1.0
C      1  0.5236730000000  0.5411510000000  0.4494130000000 1.0
C      1  0.5200420000000  0.4511550000000  0.4231700000000 1.0
C      1  0.5120200000000  0.5491200000000  0.4014040000000 1.0
C      1  0.4950280000000  0.4941730000000  0.4031060000000 1.0
C      1  0.5362870000000  0.4887600000000  0.4765610000000 1.0
C      1  0.4590440000000  0.5087480000000  0.5219010000000 1.0
C      1  0.5898510000000  0.4283410000000  0.4740460000000 1.0
C      1  0.5059840000000  0.5945280000000  0.5260010000000 1.0
C      1  0.4708440000000  0.5210320000000  0.5469290000000 1.0
C      1  0.6019770000000  0.5344930000000  0.5328660000000 1.0
C      1  0.5084020000000  0.4920730000000  0.5357000000000 1.0
C      1  0.4389380000000  0.4266920000000  0.5407110000000 1.0
C      1  0.4463710000000  0.4029260000000  0.4701150000000 1.0
C      1  0.4875890000000  0.4982920000000  0.5540040000000 1.0
C      1  0.5966040000000  0.5223300000000  0.5037730000000 1.0
C      1  0.4949460000000  0.4694840000000  0.4210490000000 1.0
C      1  0.4404830000000  0.4453580000000  0.4447980000000 1.0
C      1  0.4585830000000  0.5498780000000  0.5786010000000 1.0
C      1  0.4518540000000  0.4715320000000  0.5306620000000 1.0
C      1  0.5454770000000  0.4203970000000  0.4558680000000 1.0
C      1  0.5254890000000  0.4619880000000  0.4706830000000 1.0
C      1  0.4659960000000  0.5729110000000  0.4183010000000 1.0
C      1  0.5161450000000  0.4079460000000  0.4954570000000 1.0
C      1  0.5748580000000  0.4525770000000  0.4371350000000 1.0
C      1  0.4153610000000  0.5734720000000  0.4947750000000 1.0
C      1  0.4493420000000  0.5146850000000  0.4754980000000 1.0
C      1  0.4622210000000  0.4292000000000  0.5581630000000 1.0
C      1  0.4814310000000  0.5774210000000  0.5651540000000 1.0
C      1  0.4269560000000  0.4542080000000  0.5374740000000 1.0
C      1  0.5416150000000  0.5132220000000  0.6000280000000 1.0
C      1  0.4200580000000  0.5218460000000  0.5581140000000 1.0
C      1  0.4135850000000  0.5642980000000  0.4651300000000 1.0
C      1  0.5404600000000  0.5908350000000  0.4904590000000 1.0
C      1  0.6211340000000  0.4954380000000  0.5153770000000 1.0
C      1  0.5786940000000  0.5255430000000  0.5756150000000 1.0
C      1  0.4357860000000  0.5427280000000  0.5063960000000 1.0
C      1  0.4101930000000  0.4369550000000  0.4878980000000 1.0
C      1  0.5798210000000  0.5233180000000  0.4430710000000 1.0
C      1  0.4898210000000  0.6152030000000  0.5383530000000 1.0
C      1  0.5748380000000  0.5371880000000  0.5467540000000 1.0
C      1  0.4953690000000  0.4583720000000  0.4705680000000 1.0
C      1  0.5752410000000  0.4265260000000  0.4502180000000 1.0
C      1  0.4018800000000  0.4967800000000  0.4400070000000 1.0
C      1  0.5879070000000  0.4623730000000  0.5438360000000 1.0
C      1  0.4958040000000  0.4900520000000  0.5070400000000 1.0
C      1  0.5924790000000  0.4560640000000  0.5147380000000 1.0
C      1  0.4147660000000  0.4697300000000  0.5598100000000 1.0
C      1  0.5707200000000  0.4773610000000  0.4516230000000 1.0
C      1  0.4947200000000  0.6050150000000  0.4814640000000 1.0
C      1  0.5872130000000  0.4917480000000  0.5482140000000 1.0
C      1  0.5207790000000  0.4938570000000  0.6008260000000 1.0
C      1  0.4589970000000  0.4231040000000  0.4502560000000 1.0
C      1  0.4742530000000  0.4789360000000  0.6042550000000 1.0
C      1  0.3777280000000  0.4932210000000  0.4999680000000 1.0
C      1  0.5422100000000  0.4608890000000  0.5374690000000 1.0
C      1  0.5153280000000  0.3993330000000  0.5245010000000 1.0
C      1  0.5714580000000  0.5497760000000  0.4503230000000 1.0
C      1  0.5151360000000  0.5152490000000  0.4114870000000 1.0
C      1  0.4576450000000  0.5045180000000  0.4496070000000 1.0
C      1  0.4864940000000  0.4639170000000  0.4979250000000 1.0
C      1  0.5391060000000  0.5860750000000  0.4382950000000 1.0
C      1  0.5187370000000  0.5390940000000  0.5274200000000 1.0
C      1  0.5128880000000  0.4523840000000  0.5783770000000 1.0
C      1  0.4277890000000  0.4993510000000  0.4892580000000 1.0
C      1  0.4856540000000  0.5448260000000  0.5947350000000 1.0
C      1  0.5921360000000  0.5601770000000  0.4715890000000 1.0
C      1  0.4073770000000  0.4553130000000  0.5141680000000 1.0
C      1  0.5624090000000  0.4999140000000  0.4072900000000 1.0
C      1  0.5118920000000  0.5047740000000  0.4860620000000 1.0
C      1  0.5106660000000  0.5754400000000  0.5688760000000 1.0
C      1  0.6077060000000  0.5358810000000  0.4792200000000 1.0
C      1  0.4403580000000  0.5899550000000  0.5029710000000 1.0
END
