TITL C-950530-3293-68 -6.2244836661932e-06 125000 -745.434436740466 0 0 119 (C1) n - 1
REM
REM in /home/bkarasulu/work/CARBON/AIRSS/Generating-Clusters/EDIP-Nigel-Params/with-SteepDescent/Only-C1/SD-CG/HFTN-CG
REM
REM
REM
REM
REM
REM ./C.cell (11c1c37f851c82e70ff6c80c92926a4b)
REM
REM compiler GCC version 9.2.1 20190827 (Red Hat 9.2.1-1)
REM options -cpp -mtune=generic -march=x86-64 -g -O0 -fpre-include=/usr/include/finclude/math-vector-fortran.h
REM seed -873151358 -1737801622 636623851 -879592281 -1413605738 -700651048 663674192 1760652478 1458139566 226612129 -810118941 1345518953 -334815603 802176590 -86015044 533964823 1371839464 64226538 229118819 1484910352 1760482898 1440174054 -352360419 1113688155 1459363180 -2039335081 -455370680 -264385598 1052998255 1087890276 -286970131 -1052472120 1341465171
REM
CELL 1.54180   50.00000   50.00000   50.00000   90.00000   90.00000   90.00000
LATT -1
SFAC C  
C      1  0.5325250000000  0.5112430000000  0.5861030000000 1.0
C      1  0.4979690000000  0.4752710000000  0.4531730000000 1.0
C      1  0.4650710000000  0.5674130000000  0.5696840000000 1.0
C      1  0.4739620000000  0.5894670000000  0.4545110000000 1.0
C      1  0.5053300000000  0.5786990000000  0.5377920000000 1.0
C      1  0.5090820000000  0.5132710000000  0.5267030000000 1.0
C      1  0.5503610000000  0.5309480000000  0.5749780000000 1.0
C      1  0.5505160000000  0.4678110000000  0.5733250000000 1.0
C      1  0.4158870000000  0.4729920000000  0.5492050000000 1.0
C      1  0.5553330000000  0.5734730000000  0.5368700000000 1.0
C      1  0.4791970000000  0.4900530000000  0.5355640000000 1.0
C      1  0.5408630000000  0.4401410000000  0.5678330000000 1.0
C      1  0.4476620000000  0.4422800000000  0.4734880000000 1.0
C      1  0.4133390000000  0.5344940000000  0.5274740000000 1.0
C      1  0.4836030000000  0.5190170000000  0.4579910000000 1.0
C      1  0.4108010000000  0.5619330000000  0.5241490000000 1.0
C      1  0.4770030000000  0.4144640000000  0.4418870000000 1.0
C      1  0.5331330000000  0.4922080000000  0.4261640000000 1.0
C      1  0.5755270000000  0.5517060000000  0.5414830000000 1.0
C      1  0.5047560000000  0.5882110000000  0.5105090000000 1.0
C      1  0.4928380000000  0.4075400000000  0.5045020000000 1.0
C      1  0.5254060000000  0.5423830000000  0.4278830000000 1.0
C      1  0.4693840000000  0.4801420000000  0.4405490000000 1.0
C      1  0.4452900000000  0.4204830000000  0.4938300000000 1.0
C      1  0.5236360000000  0.4906690000000  0.5388080000000 1.0
C      1  0.5472230000000  0.4856940000000  0.4859730000000 1.0
C      1  0.5777750000000  0.4931140000000  0.5087950000000 1.0
C      1  0.4021600000000  0.4697520000000  0.5250100000000 1.0
C      1  0.4931420000000  0.5014900000000  0.4106310000000 1.0
C      1  0.4888290000000  0.4634270000000  0.5251140000000 1.0
C      1  0.4221370000000  0.4572930000000  0.5078600000000 1.0
C      1  0.4513020000000  0.5155310000000  0.4965700000000 1.0
C      1  0.4315000000000  0.4513240000000  0.5569320000000 1.0
C      1  0.5286460000000  0.5617000000000  0.5460720000000 1.0
C      1  0.5491850000000  0.4381500000000  0.5394510000000 1.0
C      1  0.4746250000000  0.5465130000000  0.4329280000000 1.0
C      1  0.4430370000000  0.5126860000000  0.4275400000000 1.0
C      1  0.5594050000000  0.5067260000000  0.4238790000000 1.0
C      1  0.4966730000000  0.4733470000000  0.4831210000000 1.0
C      1  0.5255410000000  0.4639670000000  0.4960600000000 1.0
C      1  0.6000670000000  0.5524100000000  0.5274790000000 1.0
C      1  0.5927370000000  0.5503230000000  0.5006570000000 1.0
C      1  0.4212730000000  0.5175790000000  0.5040360000000 1.0
C      1  0.5727540000000  0.4741260000000  0.5534540000000 1.0
C      1  0.4639940000000  0.5021480000000  0.4093330000000 1.0
C      1  0.5177390000000  0.4655800000000  0.5248270000000 1.0
C      1  0.4568280000000  0.5456560000000  0.5826480000000 1.0
C      1  0.4656010000000  0.4173590000000  0.5162360000000 1.0
C      1  0.4903910000000  0.5325510000000  0.4842670000000 1.0
C      1  0.5498190000000  0.4358060000000  0.4448520000000 1.0
C      1  0.5580670000000  0.5267180000000  0.5460740000000 1.0
C      1  0.4252710000000  0.4671570000000  0.4428870000000 1.0
C      1  0.5110580000000  0.5282780000000  0.5950970000000 1.0
C      1  0.5115970000000  0.4087100000000  0.5282970000000 1.0
C      1  0.4994590000000  0.4250600000000  0.4537080000000 1.0
C      1  0.5102040000000  0.4502260000000  0.4416270000000 1.0
C      1  0.4143030000000  0.5227520000000  0.5527420000000 1.0
C      1  0.4513800000000  0.4964300000000  0.5747330000000 1.0
C      1  0.4292820000000  0.5703340000000  0.5066710000000 1.0
C      1  0.5374740000000  0.4204230000000  0.5192000000000 1.0
C      1  0.5176800000000  0.4542470000000  0.4111580000000 1.0
C      1  0.4347250000000  0.5468860000000  0.4653820000000 1.0
C      1  0.6036920000000  0.5031700000000  0.5002320000000 1.0
C      1  0.4943420000000  0.4843390000000  0.6055500000000 1.0
C      1  0.4668370000000  0.5411250000000  0.4997120000000 1.0
C      1  0.4722980000000  0.4773460000000  0.5640530000000 1.0
C      1  0.4512660000000  0.4568940000000  0.4316440000000 1.0
C      1  0.4880970000000  0.5699270000000  0.4411610000000 1.0
C      1  0.5138680000000  0.5014320000000  0.4507750000000 1.0
C      1  0.4282190000000  0.4290900000000  0.5148350000000 1.0
C      1  0.5535690000000  0.5356190000000  0.4269730000000 1.0
C      1  0.5703430000000  0.5450610000000  0.4485910000000 1.0
C      1  0.4483720000000  0.5382170000000  0.4401970000000 1.0
C      1  0.4810000000000  0.5967290000000  0.4994320000000 1.0
C      1  0.5565080000000  0.4313930000000  0.4721640000000 1.0
C      1  0.4998690000000  0.4726360000000  0.5798480000000 1.0
C      1  0.4643160000000  0.5191980000000  0.5866760000000 1.0
C      1  0.4978250000000  0.4233590000000  0.5517000000000 1.0
C      1  0.4641120000000  0.4689260000000  0.4840360000000 1.0
C      1  0.4201400000000  0.4547030000000  0.4694310000000 1.0
C      1  0.5968940000000  0.5257880000000  0.4859600000000 1.0
C      1  0.5163600000000  0.5653320000000  0.4436050000000 1.0
C      1  0.5265390000000  0.4867280000000  0.5692120000000 1.0
C      1  0.4275270000000  0.4985730000000  0.5574510000000 1.0
C      1  0.5285670000000  0.5064740000000  0.4773230000000 1.0
C      1  0.5333290000000  0.5773390000000  0.4647800000000 1.0
C      1  0.4638710000000  0.5875080000000  0.4799570000000 1.0
C      1  0.5813440000000  0.5222870000000  0.4622400000000 1.0
C      1  0.4761260000000  0.4388930000000  0.5382030000000 1.0
C      1  0.5327350000000  0.4334000000000  0.4915010000000 1.0
C      1  0.5458160000000  0.4560810000000  0.4244480000000 1.0
C      1  0.4884590000000  0.5118650000000  0.6011030000000 1.0
C      1  0.5714860000000  0.4997310000000  0.5376440000000 1.0
C      1  0.5774310000000  0.4974160000000  0.4466360000000 1.0
C      1  0.5084880000000  0.4794710000000  0.3994040000000 1.0
C      1  0.5052740000000  0.5096440000000  0.4958530000000 1.0
C      1  0.5069760000000  0.4211730000000  0.4818290000000 1.0
C      1  0.4511180000000  0.4973910000000  0.5211510000000 1.0
C      1  0.4226020000000  0.4963400000000  0.4408350000000 1.0
C      1  0.5759410000000  0.4530070000000  0.4775880000000 1.0
C      1  0.4485090000000  0.4713160000000  0.5092760000000 1.0
C      1  0.5787030000000  0.4629730000000  0.5066810000000 1.0
C      1  0.5610400000000  0.5674750000000  0.4646250000000 1.0
C      1  0.4053150000000  0.5096950000000  0.4581660000000 1.0
C      1  0.5081540000000  0.5251240000000  0.4137620000000 1.0
C      1  0.5306330000000  0.5341050000000  0.5314860000000 1.0
C      1  0.4489820000000  0.5625140000000  0.4875040000000 1.0
C      1  0.4582980000000  0.4983330000000  0.4665040000000 1.0
C      1  0.5743290000000  0.4514940000000  0.5338490000000 1.0
C      1  0.5120330000000  0.4390460000000  0.5728030000000 1.0
C      1  0.5621090000000  0.4749580000000  0.4608880000000 1.0
C      1  0.4138240000000  0.5289030000000  0.4766130000000 1.0
C      1  0.5286870000000  0.5852290000000  0.4939880000000 1.0
C      1  0.5543290000000  0.5823900000000  0.5084480000000 1.0
C      1  0.5310880000000  0.5540830000000  0.5755080000000 1.0
C      1  0.4825690000000  0.5788590000000  0.5532880000000 1.0
C      1  0.5735280000000  0.5697800000000  0.4905990000000 1.0
C      1  0.4559060000000  0.4319530000000  0.4466230000000 1.0
C      1  0.4590520000000  0.4503770000000  0.5598960000000 1.0
END
