TITL C-950522-5749-661 -4.21053697077561e-07 125000 -410.512077682833 0 0 69 (C1) n - 1
REM
REM in /home/bkarasulu/work/CARBON/AIRSS/Generating-Clusters/EDIP-Nigel-Params/with-SteepDescent/Only-C1/SD-CG/HFTN-CG
REM
REM
REM
REM
REM
REM ./C.cell (11c1c37f851c82e70ff6c80c92926a4b)
REM
REM compiler GCC version 9.2.1 20190827 (Red Hat 9.2.1-1)
REM options -cpp -mtune=generic -march=x86-64 -g -O0 -fpre-include=/usr/include/finclude/math-vector-fortran.h
REM seed 1622341810 -2103100458 -95172067 -271160638 1211324783 556949752 637711951 818951136 -1808368329 -525172003 255297181 986283263 760542827 573557133 -221019421 -1215712942 -553406202 -1108214353 -1559805736 -2105211732 -512747818 1013621270 -166768823 -1603497542 -1105349322 -597003529 1060128087 664311444 245803567 -2021720032 -1811894437 -1758907207 -1029343682
REM
CELL 1.54180   50.00000   50.00000   50.00000   90.00000   90.00000   90.00000
LATT -1
SFAC C  
C      1  0.4552510000000  0.4270480000000  0.5082620000000 1.0
C      1  0.4973700000000  0.5456160000000  0.4464850000000 1.0
C      1  0.5273990000000  0.5593120000000  0.4851690000000 1.0
C      1  0.5247530000000  0.4289540000000  0.5164340000000 1.0
C      1  0.5118060000000  0.5600180000000  0.5365100000000 1.0
C      1  0.4599300000000  0.4766110000000  0.5441220000000 1.0
C      1  0.5164960000000  0.4266580000000  0.4573690000000 1.0
C      1  0.4416940000000  0.5231920000000  0.5463870000000 1.0
C      1  0.4773040000000  0.4132300000000  0.4970350000000 1.0
C      1  0.4790820000000  0.4815440000000  0.5652470000000 1.0
C      1  0.5232150000000  0.5438810000000  0.4611140000000 1.0
C      1  0.4957120000000  0.4673460000000  0.4746810000000 1.0
C      1  0.5426170000000  0.5262100000000  0.5533060000000 1.0
C      1  0.5267420000000  0.4936500000000  0.4297500000000 1.0
C      1  0.4624640000000  0.4398400000000  0.4282020000000 1.0
C      1  0.4983800000000  0.5031720000000  0.4335810000000 1.0
C      1  0.5648450000000  0.4691650000000  0.5333610000000 1.0
C      1  0.5299510000000  0.4942070000000  0.4999580000000 1.0
C      1  0.4705700000000  0.5786250000000  0.5556290000000 1.0
C      1  0.4554810000000  0.4955050000000  0.4951270000000 1.0
C      1  0.4681990000000  0.5565920000000  0.5722860000000 1.0
C      1  0.5623780000000  0.4864250000000  0.4630930000000 1.0
C      1  0.5157690000000  0.5167590000000  0.5119630000000 1.0
C      1  0.4701800000000  0.4852490000000  0.4716350000000 1.0
C      1  0.4836490000000  0.4556650000000  0.4278490000000 1.0
C      1  0.5053690000000  0.4526130000000  0.4484290000000 1.0
C      1  0.5654630000000  0.5285160000000  0.4920920000000 1.0
C      1  0.4717230000000  0.5157660000000  0.5089930000000 1.0
C      1  0.4940300000000  0.5267940000000  0.4899600000000 1.0
C      1  0.5024260000000  0.4149200000000  0.5082570000000 1.0
C      1  0.4945430000000  0.5300730000000  0.4229960000000 1.0
C      1  0.5267000000000  0.4378590000000  0.5430890000000 1.0
C      1  0.5502790000000  0.5054960000000  0.4429270000000 1.0
C      1  0.4925330000000  0.5047780000000  0.4648210000000 1.0
C      1  0.5228310000000  0.5022080000000  0.5534130000000 1.0
C      1  0.4314790000000  0.5308650000000  0.4837890000000 1.0
C      1  0.4283590000000  0.5435440000000  0.5327280000000 1.0
C      1  0.4923620000000  0.5033000000000  0.5292490000000 1.0
C      1  0.5734550000000  0.4830590000000  0.5119260000000 1.0
C      1  0.4396740000000  0.4958550000000  0.5361840000000 1.0
C      1  0.5032600000000  0.5684120000000  0.4958920000000 1.0
C      1  0.5409820000000  0.4423160000000  0.4976160000000 1.0
C      1  0.4778080000000  0.5617440000000  0.4876780000000 1.0
C      1  0.4188670000000  0.5050700000000  0.4885680000000 1.0
C      1  0.4310810000000  0.5478450000000  0.5061850000000 1.0
C      1  0.5409960000000  0.4364010000000  0.4696400000000 1.0
C      1  0.4661010000000  0.4367250000000  0.4854340000000 1.0
C      1  0.5029350000000  0.4630260000000  0.5613230000000 1.0
C      1  0.4477470000000  0.5362360000000  0.4592660000000 1.0
C      1  0.5585490000000  0.4977110000000  0.4921850000000 1.0
C      1  0.5294310000000  0.5318130000000  0.5788520000000 1.0
C      1  0.5460910000000  0.4578170000000  0.5510810000000 1.0
C      1  0.5291360000000  0.4759740000000  0.5660510000000 1.0
C      1  0.4637820000000  0.5296450000000  0.5639050000000 1.0
C      1  0.4934770000000  0.4725900000000  0.5248480000000 1.0
C      1  0.4808130000000  0.4830040000000  0.4216840000000 1.0
C      1  0.4724950000000  0.5522630000000  0.4613500000000 1.0
C      1  0.5055640000000  0.5192570000000  0.5867360000000 1.0
C      1  0.5720290000000  0.5392360000000  0.4668160000000 1.0
C      1  0.5469130000000  0.5482530000000  0.5051110000000 1.0
C      1  0.5135940000000  0.4687580000000  0.5006330000000 1.0
C      1  0.4834270000000  0.5099870000000  0.5715960000000 1.0
C      1  0.4979900000000  0.5743940000000  0.5558380000000 1.0
C      1  0.5291920000000  0.4653230000000  0.4353730000000 1.0
C      1  0.4424390000000  0.5233200000000  0.4366280000000 1.0
C      1  0.4217590000000  0.4904820000000  0.5134200000000 1.0
C      1  0.5515770000000  0.4593850000000  0.4533550000000 1.0
C      1  0.5491060000000  0.5337330000000  0.4510720000000 1.0
C      1  0.5303960000000  0.5391610000000  0.5284580000000 1.0
END
