TITL C-950521-2237-323 -1.87066115612908e-06 125000 -687.252788838194 0 0 112 (C1) n - 1
REM
REM in /home/bkarasulu/work/CARBON/AIRSS/Generating-Clusters/EDIP-Nigel-Params/with-SteepDescent/Only-C1/SD-CG/HFTN-CG
REM
REM
REM
REM
REM
REM ./C.cell (11c1c37f851c82e70ff6c80c92926a4b)
REM
REM compiler GCC version 9.2.1 20190827 (Red Hat 9.2.1-1)
REM options -cpp -mtune=generic -march=x86-64 -g -O0 -fpre-include=/usr/include/finclude/math-vector-fortran.h
REM seed 490095484 -1583193172 1045274147 -1818290499 -907818919 -1311439442 1451937673 986251581 1528721824 923750706 1070169511 -751303697 221731016 -1535000620 -1753101515 1434352140 -1193600226 1772494330 1585346794 -1808063632 -1963542612 -1687169513 1567234740 562634390 -261429184 -52230643 -1347914822 -1165903944 -1910081944 -1165751582 1507648944 1780606717 85901706
REM
CELL 1.54180   50.00000   50.00000   50.00000   90.00000   90.00000   90.00000
LATT -1
SFAC C  
C      1  0.5059010000000  0.4668060000000  0.5852420000000 1.0
C      1  0.5102700000000  0.4347210000000  0.5507660000000 1.0
C      1  0.4851720000000  0.5330510000000  0.4817670000000 1.0
C      1  0.4737270000000  0.4728800000000  0.5389300000000 1.0
C      1  0.5661570000000  0.4640600000000  0.4555280000000 1.0
C      1  0.5280450000000  0.5913370000000  0.5212510000000 1.0
C      1  0.4788480000000  0.4004990000000  0.5336600000000 1.0
C      1  0.5577730000000  0.5670610000000  0.4636240000000 1.0
C      1  0.4274920000000  0.4769840000000  0.5600440000000 1.0
C      1  0.5120350000000  0.5575740000000  0.5580770000000 1.0
C      1  0.5801870000000  0.5414020000000  0.5179260000000 1.0
C      1  0.5077080000000  0.5336460000000  0.5278840000000 1.0
C      1  0.5081810000000  0.5152870000000  0.5842300000000 1.0
C      1  0.4576710000000  0.5053540000000  0.4229660000000 1.0
C      1  0.5980250000000  0.4966450000000  0.4933020000000 1.0
C      1  0.4931040000000  0.4439400000000  0.5725930000000 1.0
C      1  0.4252630000000  0.5179400000000  0.5134800000000 1.0
C      1  0.5654140000000  0.4826200000000  0.5330780000000 1.0
C      1  0.4820160000000  0.4885500000000  0.4191740000000 1.0
C      1  0.4792810000000  0.4655650000000  0.4647000000000 1.0
C      1  0.5618320000000  0.5523480000000  0.4390230000000 1.0
C      1  0.5901650000000  0.5158330000000  0.4734460000000 1.0
C      1  0.4914730000000  0.5342820000000  0.4505590000000 1.0
C      1  0.4849000000000  0.5223630000000  0.5509390000000 1.0
C      1  0.5381580000000  0.4425600000000  0.5561350000000 1.0
C      1  0.5279030000000  0.4422810000000  0.4327820000000 1.0
C      1  0.4791770000000  0.5903710000000  0.5152700000000 1.0
C      1  0.5194450000000  0.4107140000000  0.4834720000000 1.0
C      1  0.4279050000000  0.4552100000000  0.4983660000000 1.0
C      1  0.4097920000000  0.4949140000000  0.5061650000000 1.0
C      1  0.5413690000000  0.4986270000000  0.5399550000000 1.0
C      1  0.4983010000000  0.4204890000000  0.5255410000000 1.0
C      1  0.5591940000000  0.5234250000000  0.4330920000000 1.0
C      1  0.5146660000000  0.5137990000000  0.4553440000000 1.0
C      1  0.5216360000000  0.4773350000000  0.5521990000000 1.0
C      1  0.4573070000000  0.5142500000000  0.5146920000000 1.0
C      1  0.4646450000000  0.4929560000000  0.5906860000000 1.0
C      1  0.5443230000000  0.5655360000000  0.5107410000000 1.0
C      1  0.4806500000000  0.5836830000000  0.4773340000000 1.0
C      1  0.5338610000000  0.5847320000000  0.4653990000000 1.0
C      1  0.4464760000000  0.4335630000000  0.5482810000000 1.0
C      1  0.5036700000000  0.5592220000000  0.4388460000000 1.0
C      1  0.4177710000000  0.4794080000000  0.4844990000000 1.0
C      1  0.4926970000000  0.4920640000000  0.5819840000000 1.0
C      1  0.4493550000000  0.4693560000000  0.5804330000000 1.0
C      1  0.4366660000000  0.4878800000000  0.4361350000000 1.0
C      1  0.4557610000000  0.5651270000000  0.4742280000000 1.0
C      1  0.4356930000000  0.4955220000000  0.4657420000000 1.0
C      1  0.4456130000000  0.4613760000000  0.4312000000000 1.0
C      1  0.5094520000000  0.4686090000000  0.4765610000000 1.0
C      1  0.4217240000000  0.5267850000000  0.5421810000000 1.0
C      1  0.4667360000000  0.4531550000000  0.5619410000000 1.0
C      1  0.5739500000000  0.5021490000000  0.4511510000000 1.0
C      1  0.5474520000000  0.4410770000000  0.4549680000000 1.0
C      1  0.5170080000000  0.4813880000000  0.4045060000000 1.0
C      1  0.5046950000000  0.5953360000000  0.5055030000000 1.0
C      1  0.5291490000000  0.5292210000000  0.4759760000000 1.0
C      1  0.5123460000000  0.5089210000000  0.4059540000000 1.0
C      1  0.5711440000000  0.5333380000000  0.4891140000000 1.0
C      1  0.5053690000000  0.5806780000000  0.4583080000000 1.0
C      1  0.4638140000000  0.5021270000000  0.5408930000000 1.0
C      1  0.4852760000000  0.5673070000000  0.5619530000000 1.0
C      1  0.5474340000000  0.5237900000000  0.5550250000000 1.0
C      1  0.5596820000000  0.5442130000000  0.5383130000000 1.0
C      1  0.4780210000000  0.5058500000000  0.4938960000000 1.0
C      1  0.4382120000000  0.5057530000000  0.5571400000000 1.0
C      1  0.5469120000000  0.4186150000000  0.5198020000000 1.0
C      1  0.4774510000000  0.5857040000000  0.5425620000000 1.0
C      1  0.5469740000000  0.5136710000000  0.4914460000000 1.0
C      1  0.4842710000000  0.4408790000000  0.5053940000000 1.0
C      1  0.4203560000000  0.5383100000000  0.4927190000000 1.0
C      1  0.4966350000000  0.3987630000000  0.4719150000000 1.0
C      1  0.5294920000000  0.4399120000000  0.4793270000000 1.0
C      1  0.5534630000000  0.5943630000000  0.5089410000000 1.0
C      1  0.4273570000000  0.5259420000000  0.4668040000000 1.0
C      1  0.4379270000000  0.5518720000000  0.5474550000000 1.0
C      1  0.5050280000000  0.4884530000000  0.5047870000000 1.0
C      1  0.5217210000000  0.4067050000000  0.5121460000000 1.0
C      1  0.5477040000000  0.4417860000000  0.5029650000000 1.0
C      1  0.5798670000000  0.5730680000000  0.4800210000000 1.0
C      1  0.5332800000000  0.5261970000000  0.4171630000000 1.0
C      1  0.4965220000000  0.5516670000000  0.5032890000000 1.0
C      1  0.5527850000000  0.4870690000000  0.4691990000000 1.0
C      1  0.5754990000000  0.4361510000000  0.4998280000000 1.0
C      1  0.4493940000000  0.5168670000000  0.5831350000000 1.0
C      1  0.4419950000000  0.4330250000000  0.4840960000000 1.0
C      1  0.5236460000000  0.5336400000000  0.5691250000000 1.0
C      1  0.5277970000000  0.4713270000000  0.4290170000000 1.0
C      1  0.4403100000000  0.5708230000000  0.5238930000000 1.0
C      1  0.4455810000000  0.5448610000000  0.4537840000000 1.0
C      1  0.4620980000000  0.4590200000000  0.5160020000000 1.0
C      1  0.4293390000000  0.4559320000000  0.5372210000000 1.0
C      1  0.5918940000000  0.4589680000000  0.5001330000000 1.0
C      1  0.5767390000000  0.4822870000000  0.5063250000000 1.0
C      1  0.5262750000000  0.5090630000000  0.5154660000000 1.0
C      1  0.4649050000000  0.5307350000000  0.4367740000000 1.0
C      1  0.5582150000000  0.4572370000000  0.5432950000000 1.0
C      1  0.5274220000000  0.5543040000000  0.4224950000000 1.0
C      1  0.5251670000000  0.4854080000000  0.4561700000000 1.0
C      1  0.4657580000000  0.5445300000000  0.5636810000000 1.0
C      1  0.4637340000000  0.4889260000000  0.4751970000000 1.0
C      1  0.4417800000000  0.4129340000000  0.5038650000000 1.0
C      1  0.5878540000000  0.5663620000000  0.5058060000000 1.0
C      1  0.4738510000000  0.4639370000000  0.4344890000000 1.0
C      1  0.4714310000000  0.4385110000000  0.4772270000000 1.0
C      1  0.4844460000000  0.4192450000000  0.4579630000000 1.0
C      1  0.4662950000000  0.5432270000000  0.5201440000000 1.0
C      1  0.4533340000000  0.4116260000000  0.5297910000000 1.0
C      1  0.5015080000000  0.4731190000000  0.5304390000000 1.0
C      1  0.4355030000000  0.5633440000000  0.4959880000000 1.0
C      1  0.5237330000000  0.5557570000000  0.4888790000000 1.0
C      1  0.5026160000000  0.4310160000000  0.4397460000000 1.0
END
