TITL C-951338-5626-632 -1.16254424677379e-06 125000 -232.238017394591 0 0 39 (C1) n - 1
REM
REM in /home/bkarasulu/work/CARBON/AIRSS/Generating-Clusters/EDIP-Nigel-Params/with-SteepDescent/Only-C1/SD-CG/HFTN-CG
REM
REM
REM
REM
REM
REM ./C.cell (11c1c37f851c82e70ff6c80c92926a4b)
REM
REM compiler GCC version 9.2.1 20190827 (Red Hat 9.2.1-1)
REM options -cpp -mtune=generic -march=x86-64 -g -O0 -fpre-include=/usr/include/finclude/math-vector-fortran.h
REM seed -533432476 1407875569 -1628752409 -1056640433 207668003 1097682794 1891706834 -836001080 -1318152216 -1823714773 1036984099 -1224054567 711131696 -248651554 -1660995641 2138108443 1342378492 -1939684631 279964602 1601732747 -491265333 755326845 -115224321 1125966746 758557255 -71708386 2051234197 499226178 1955790315 342906732 603297651 1062940047 -674970809
REM
CELL 1.54180   50.00000   50.00000   50.00000   90.00000   90.00000   90.00000
LATT -1
SFAC C  
C      1  0.4733200000000  0.4609410000000  0.4645000000000 1.0
C      1  0.4893990000000  0.5052840000000  0.5392390000000 1.0
C      1  0.5171680000000  0.4997500000000  0.5529920000000 1.0
C      1  0.5430260000000  0.4698380000000  0.5322080000000 1.0
C      1  0.5210800000000  0.4822520000000  0.5759410000000 1.0
C      1  0.4812470000000  0.4649490000000  0.5118100000000 1.0
C      1  0.5154640000000  0.4907810000000  0.4520560000000 1.0
C      1  0.5030540000000  0.4685700000000  0.4685280000000 1.0
C      1  0.4751070000000  0.5228110000000  0.4491690000000 1.0
C      1  0.5554820000000  0.5085280000000  0.5009910000000 1.0
C      1  0.5590850000000  0.4925640000000  0.4782270000000 1.0
C      1  0.4401000000000  0.5217100000000  0.4763430000000 1.0
C      1  0.4570970000000  0.5016910000000  0.4593890000000 1.0
C      1  0.4413250000000  0.5197410000000  0.5070520000000 1.0
C      1  0.5062690000000  0.5534180000000  0.5322720000000 1.0
C      1  0.5387480000000  0.4436250000000  0.4872750000000 1.0
C      1  0.5058060000000  0.5091050000000  0.5046050000000 1.0
C      1  0.5052960000000  0.4766980000000  0.4984240000000 1.0
C      1  0.5430700000000  0.4905450000000  0.4565510000000 1.0
C      1  0.5395360000000  0.5188250000000  0.5458400000000 1.0
C      1  0.5205090000000  0.4452930000000  0.4668570000000 1.0
C      1  0.5218800000000  0.5400210000000  0.4518920000000 1.0
C      1  0.4612050000000  0.4574920000000  0.4915410000000 1.0
C      1  0.5312400000000  0.5413600000000  0.5272780000000 1.0
C      1  0.4748950000000  0.5271610000000  0.5516930000000 1.0
C      1  0.4449260000000  0.4907110000000  0.5159960000000 1.0
C      1  0.4863550000000  0.5260580000000  0.4915090000000 1.0
C      1  0.4699720000000  0.4835050000000  0.5313730000000 1.0
C      1  0.4656770000000  0.5400930000000  0.5064400000000 1.0
C      1  0.4562430000000  0.4759760000000  0.4474260000000 1.0
C      1  0.5280050000000  0.4594820000000  0.5082010000000 1.0
C      1  0.5306230000000  0.4635920000000  0.5579440000000 1.0
C      1  0.5543390000000  0.4982840000000  0.5290930000000 1.0
C      1  0.5305190000000  0.5425970000000  0.4775580000000 1.0
C      1  0.4619070000000  0.5447130000000  0.4678230000000 1.0
C      1  0.4788440000000  0.5475750000000  0.5332230000000 1.0
C      1  0.4363680000000  0.4704430000000  0.4973170000000 1.0
C      1  0.5316080000000  0.5261310000000  0.5013880000000 1.0
C      1  0.5042060000000  0.5178860000000  0.4520370000000 1.0
END
