TITL C-950527-2551-411 -1.2634615386499e-06 125000 -544.110284604408 0 0 88 (C1) n - 1
REM
REM in /home/bkarasulu/work/CARBON/AIRSS/Generating-Clusters/EDIP-Nigel-Params/with-SteepDescent/Only-C1/SD-CG/HFTN-CG
REM
REM
REM
REM
REM
REM ./C.cell (11c1c37f851c82e70ff6c80c92926a4b)
REM
REM compiler GCC version 9.2.1 20190827 (Red Hat 9.2.1-1)
REM options -cpp -mtune=generic -march=x86-64 -g -O0 -fpre-include=/usr/include/finclude/math-vector-fortran.h
REM seed 1319244372 1399726676 -1062070360 786926446 -1693257680 67510949 912200339 1647634326 1296212113 -1278054194 -1189430342 -1559658026 71469194 -846870079 -41965609 -1603710871 -1250688928 1534750029 241426206 -2102320510 -2091965036 1112257817 -2038484563 -841301426 403365910 -1980027073 -1666335432 1281159027 -650658930 1593114638 -264371515 2108800234 1269213383
REM
CELL 1.54180   50.00000   50.00000   50.00000   90.00000   90.00000   90.00000
LATT -1
SFAC C  
C      1  0.5354950000000  0.4690500000000  0.4294510000000 1.0
C      1  0.4502510000000  0.4581830000000  0.5675110000000 1.0
C      1  0.4910010000000  0.4779990000000  0.5244530000000 1.0
C      1  0.4748530000000  0.5071540000000  0.5536360000000 1.0
C      1  0.4850260000000  0.5347020000000  0.4890690000000 1.0
C      1  0.5473720000000  0.5651430000000  0.5046820000000 1.0
C      1  0.4896930000000  0.4488830000000  0.4333120000000 1.0
C      1  0.5716760000000  0.5112980000000  0.4686570000000 1.0
C      1  0.5408970000000  0.5587140000000  0.5333570000000 1.0
C      1  0.5735370000000  0.5054850000000  0.5153930000000 1.0
C      1  0.4382710000000  0.4876550000000  0.5304740000000 1.0
C      1  0.4702020000000  0.4093020000000  0.4920490000000 1.0
C      1  0.5384540000000  0.5145120000000  0.4344750000000 1.0
C      1  0.5297200000000  0.5344180000000  0.4779530000000 1.0
C      1  0.4448490000000  0.4480120000000  0.4749360000000 1.0
C      1  0.5566540000000  0.4210070000000  0.4732390000000 1.0
C      1  0.5010410000000  0.5242380000000  0.5553330000000 1.0
C      1  0.4587870000000  0.5124530000000  0.4407830000000 1.0
C      1  0.5252740000000  0.4835230000000  0.5707380000000 1.0
C      1  0.4872460000000  0.5510730000000  0.4644850000000 1.0
C      1  0.4103700000000  0.5466210000000  0.4761890000000 1.0
C      1  0.4686300000000  0.5630170000000  0.5484210000000 1.0
C      1  0.4663450000000  0.4276490000000  0.4711570000000 1.0
C      1  0.5630840000000  0.5012670000000  0.4432710000000 1.0
C      1  0.4740950000000  0.5367530000000  0.4397510000000 1.0
C      1  0.4472500000000  0.5377500000000  0.5116120000000 1.0
C      1  0.5634370000000  0.4911940000000  0.4901420000000 1.0
C      1  0.5311810000000  0.5785630000000  0.4829770000000 1.0
C      1  0.5166730000000  0.5719170000000  0.5444310000000 1.0
C      1  0.4259500000000  0.4913440000000  0.4823260000000 1.0
C      1  0.5107200000000  0.4130170000000  0.4549920000000 1.0
C      1  0.4737220000000  0.5776900000000  0.5235880000000 1.0
C      1  0.4670010000000  0.4644810000000  0.4276490000000 1.0
C      1  0.4142440000000  0.5177290000000  0.4769560000000 1.0
C      1  0.5021410000000  0.5735890000000  0.5172410000000 1.0
C      1  0.5181900000000  0.4903600000000  0.5206850000000 1.0
C      1  0.5308200000000  0.4294190000000  0.4660250000000 1.0
C      1  0.4185590000000  0.5361720000000  0.5013240000000 1.0
C      1  0.5181110000000  0.5211870000000  0.5293360000000 1.0
C      1  0.5205010000000  0.4556780000000  0.4789280000000 1.0
C      1  0.4791560000000  0.5772120000000  0.4770370000000 1.0
C      1  0.5523310000000  0.4592130000000  0.5362730000000 1.0
C      1  0.4564440000000  0.4733440000000  0.5897470000000 1.0
C      1  0.5022500000000  0.4450680000000  0.5513610000000 1.0
C      1  0.5535310000000  0.5376470000000  0.5497600000000 1.0
C      1  0.5464710000000  0.4448630000000  0.5131370000000 1.0
C      1  0.5155730000000  0.5106080000000  0.5787650000000 1.0
C      1  0.4575750000000  0.4655190000000  0.5395670000000 1.0
C      1  0.5612950000000  0.4723650000000  0.4443150000000 1.0
C      1  0.5217430000000  0.4312940000000  0.5092790000000 1.0
C      1  0.4770020000000  0.4909190000000  0.5029070000000 1.0
C      1  0.5490410000000  0.5394320000000  0.5771500000000 1.0
C      1  0.5382490000000  0.4831070000000  0.5434170000000 1.0
C      1  0.5050630000000  0.5888010000000  0.4908700000000 1.0
C      1  0.4856770000000  0.4249770000000  0.4491690000000 1.0
C      1  0.4787120000000  0.4829850000000  0.5735950000000 1.0
C      1  0.4322870000000  0.4490600000000  0.5018760000000 1.0
C      1  0.4372810000000  0.4736400000000  0.4625440000000 1.0
C      1  0.5334070000000  0.5259520000000  0.5942130000000 1.0
C      1  0.4738750000000  0.4256830000000  0.5147850000000 1.0
C      1  0.5170250000000  0.5538240000000  0.4586090000000 1.0
C      1  0.4262960000000  0.5019520000000  0.5531770000000 1.0
C      1  0.5597570000000  0.5376240000000  0.4721020000000 1.0
C      1  0.5280840000000  0.4950020000000  0.4160800000000 1.0
C      1  0.4216430000000  0.4767220000000  0.5074510000000 1.0
C      1  0.4526180000000  0.4845410000000  0.4408280000000 1.0
C      1  0.5748890000000  0.4655620000000  0.4789830000000 1.0
C      1  0.4959990000000  0.5543810000000  0.5595010000000 1.0
C      1  0.4990770000000  0.5023610000000  0.4180810000000 1.0
C      1  0.4510740000000  0.4414500000000  0.5234370000000 1.0
C      1  0.4581500000000  0.5072470000000  0.5186540000000 1.0
C      1  0.4470970000000  0.5435120000000  0.5421250000000 1.0
C      1  0.5315280000000  0.4851040000000  0.4915720000000 1.0
C      1  0.5547490000000  0.5093550000000  0.5377430000000 1.0
C      1  0.4599840000000  0.5696250000000  0.4992420000000 1.0
C      1  0.5190130000000  0.5054690000000  0.4731420000000 1.0
C      1  0.5653940000000  0.4411300000000  0.4912520000000 1.0
C      1  0.4957380000000  0.4909520000000  0.4466550000000 1.0
C      1  0.5093350000000  0.5422020000000  0.5067280000000 1.0
C      1  0.5110170000000  0.4644600000000  0.4470520000000 1.0
C      1  0.4998980000000  0.4306500000000  0.5273530000000 1.0
C      1  0.4885950000000  0.5070520000000  0.4808750000000 1.0
C      1  0.4476860000000  0.5199360000000  0.5596180000000 1.0
C      1  0.5836450000000  0.5310680000000  0.5102230000000 1.0
C      1  0.4965170000000  0.5322210000000  0.4205560000000 1.0
C      1  0.5712870000000  0.5511940000000  0.4948280000000 1.0
C      1  0.5229330000000  0.5401860000000  0.4324730000000 1.0
C      1  0.5026830000000  0.4653260000000  0.5709020000000 1.0
END
