TITL C-950522-5749-701 -2.97616432134909e-06 125000 -681.709936800292 0 0 110 (C1) n - 1
REM
REM in /home/bkarasulu/work/CARBON/AIRSS/Generating-Clusters/EDIP-Nigel-Params/with-SteepDescent/Only-C1/SD-CG/HFTN-CG
REM
REM
REM
REM
REM
REM ./C.cell (11c1c37f851c82e70ff6c80c92926a4b)
REM
REM compiler GCC version 9.2.1 20190827 (Red Hat 9.2.1-1)
REM options -cpp -mtune=generic -march=x86-64 -g -O0 -fpre-include=/usr/include/finclude/math-vector-fortran.h
REM seed -1983117100 -1941581077 -1820199018 -1043017576 -360603778 -149509458 987301143 2049000283 -61997651 1232715466 632963686 -1811563500 935379890 292104675 798169916 693334737 -457855638 643711530 -1144182814 606936573 2058761608 1590416906 -1950569225 391796597 982779691 341196083 -199047816 -1070632061 1409951465 -1955400111 -1739960738 -111837151 -1375316639
REM
CELL 1.54180   50.00000   50.00000   50.00000   90.00000   90.00000   90.00000
LATT -1
SFAC C  
C      1  0.4055930000000  0.4991010000000  0.4863830000000 1.0
C      1  0.4470670000000  0.4326190000000  0.5257200000000 1.0
C      1  0.4522020000000  0.5743040000000  0.5047790000000 1.0
C      1  0.5821620000000  0.4812010000000  0.5382170000000 1.0
C      1  0.5401870000000  0.5350480000000  0.4976010000000 1.0
C      1  0.4419210000000  0.5443470000000  0.5656650000000 1.0
C      1  0.4192190000000  0.5426220000000  0.5396600000000 1.0
C      1  0.5744680000000  0.4499870000000  0.4950590000000 1.0
C      1  0.5087450000000  0.5661990000000  0.5543040000000 1.0
C      1  0.4343460000000  0.4327860000000  0.4978510000000 1.0
C      1  0.5284060000000  0.5400210000000  0.4175590000000 1.0
C      1  0.4627950000000  0.5422900000000  0.4118320000000 1.0
C      1  0.4846570000000  0.5549460000000  0.4831630000000 1.0
C      1  0.5373650000000  0.4852120000000  0.4934450000000 1.0
C      1  0.5698850000000  0.5586910000000  0.5033330000000 1.0
C      1  0.4931160000000  0.5110050000000  0.4826740000000 1.0
C      1  0.4424380000000  0.4889350000000  0.4550420000000 1.0
C      1  0.5472930000000  0.5070890000000  0.5099460000000 1.0
C      1  0.5257890000000  0.5058410000000  0.5920410000000 1.0
C      1  0.4686110000000  0.5170700000000  0.4234210000000 1.0
C      1  0.4427730000000  0.5512830000000  0.5217660000000 1.0
C      1  0.4938500000000  0.4701080000000  0.4226970000000 1.0
C      1  0.4422980000000  0.5532240000000  0.4293170000000 1.0
C      1  0.5039480000000  0.5899400000000  0.5014250000000 1.0
C      1  0.5101950000000  0.5571860000000  0.4324220000000 1.0
C      1  0.5092090000000  0.4465310000000  0.5819460000000 1.0
C      1  0.4570990000000  0.5684580000000  0.4506910000000 1.0
C      1  0.4078060000000  0.5179300000000  0.5321610000000 1.0
C      1  0.5103410000000  0.4490160000000  0.4356450000000 1.0
C      1  0.4789340000000  0.5826840000000  0.5162330000000 1.0
C      1  0.4983330000000  0.4775390000000  0.5173810000000 1.0
C      1  0.4532270000000  0.4266290000000  0.4522070000000 1.0
C      1  0.5480770000000  0.5267120000000  0.4373570000000 1.0
C      1  0.4968630000000  0.5017540000000  0.4259860000000 1.0
C      1  0.4544150000000  0.4205530000000  0.4795290000000 1.0
C      1  0.5778130000000  0.4529540000000  0.4487840000000 1.0
C      1  0.5352020000000  0.4875730000000  0.4643580000000 1.0
C      1  0.4542320000000  0.5005830000000  0.5558600000000 1.0
C      1  0.4906950000000  0.4670430000000  0.5439910000000 1.0
C      1  0.5199210000000  0.5635190000000  0.4589570000000 1.0
C      1  0.5005910000000  0.4248130000000  0.5661620000000 1.0
C      1  0.5532120000000  0.4405860000000  0.4570050000000 1.0
C      1  0.5056730000000  0.5434580000000  0.5713100000000 1.0
C      1  0.5459110000000  0.5156770000000  0.5601760000000 1.0
C      1  0.4381360000000  0.4622570000000  0.4909640000000 1.0
C      1  0.4093370000000  0.4945630000000  0.5161660000000 1.0
C      1  0.4717420000000  0.5160290000000  0.5383500000000 1.0
C      1  0.5565680000000  0.4284270000000  0.4839360000000 1.0
C      1  0.5307620000000  0.4201590000000  0.4974100000000 1.0
C      1  0.4984240000000  0.4975490000000  0.5835600000000 1.0
C      1  0.5888970000000  0.4945960000000  0.4733380000000 1.0
C      1  0.4984130000000  0.5040090000000  0.5521590000000 1.0
C      1  0.4761950000000  0.4255000000000  0.5218550000000 1.0
C      1  0.4802410000000  0.4873380000000  0.4973890000000 1.0
C      1  0.4615090000000  0.4715570000000  0.5556460000000 1.0
C      1  0.5284500000000  0.4591610000000  0.4566400000000 1.0
C      1  0.4205410000000  0.4779050000000  0.4712640000000 1.0
C      1  0.5703830000000  0.4596330000000  0.5223120000000 1.0
C      1  0.4793180000000  0.5483750000000  0.4524890000000 1.0
C      1  0.5867140000000  0.5101730000000  0.4485280000000 1.0
C      1  0.4503970000000  0.5177060000000  0.5798450000000 1.0
C      1  0.5268390000000  0.4383420000000  0.5223260000000 1.0
C      1  0.4636550000000  0.4617410000000  0.5830900000000 1.0
C      1  0.5864150000000  0.4651960000000  0.4728510000000 1.0
C      1  0.4681010000000  0.4596260000000  0.4149620000000 1.0
C      1  0.5185610000000  0.5389990000000  0.5191000000000 1.0
C      1  0.5274900000000  0.5880880000000  0.5160620000000 1.0
C      1  0.4425810000000  0.5090020000000  0.4347770000000 1.0
C      1  0.5071660000000  0.4534300000000  0.4796880000000 1.0
C      1  0.5198040000000  0.4637650000000  0.5047850000000 1.0
C      1  0.4516810000000  0.4405080000000  0.4283470000000 1.0
C      1  0.5791340000000  0.5370880000000  0.4573830000000 1.0
C      1  0.5612040000000  0.5044060000000  0.4221630000000 1.0
C      1  0.4909890000000  0.4680370000000  0.5885170000000 1.0
C      1  0.5182040000000  0.5132550000000  0.4076440000000 1.0
C      1  0.4929790000000  0.5335710000000  0.5035170000000 1.0
C      1  0.5512840000000  0.4605540000000  0.5625160000000 1.0
C      1  0.4810900000000  0.5412840000000  0.5862360000000 1.0
C      1  0.4701750000000  0.4622020000000  0.4807490000000 1.0
C      1  0.4798640000000  0.4210050000000  0.4930960000000 1.0
C      1  0.4411660000000  0.4593270000000  0.5380980000000 1.0
C      1  0.5710160000000  0.4806550000000  0.5643910000000 1.0
C      1  0.4700830000000  0.5212560000000  0.4666770000000 1.0
C      1  0.5362660000000  0.4518590000000  0.5839140000000 1.0
C      1  0.5228530000000  0.5365760000000  0.4721610000000 1.0
C      1  0.4358320000000  0.4795350000000  0.5159380000000 1.0
C      1  0.4219750000000  0.5219570000000  0.4769570000000 1.0
C      1  0.4472970000000  0.5743310000000  0.4767490000000 1.0
C      1  0.5236540000000  0.5120940000000  0.4519860000000 1.0
C      1  0.5822110000000  0.5085930000000  0.5264320000000 1.0
C      1  0.5410260000000  0.4965510000000  0.4039430000000 1.0
C      1  0.5881430000000  0.5127810000000  0.4966750000000 1.0
C      1  0.4631360000000  0.5464370000000  0.5436150000000 1.0
C      1  0.4576630000000  0.5017610000000  0.5111560000000 1.0
C      1  0.5825150000000  0.5390370000000  0.4861420000000 1.0
C      1  0.5516030000000  0.4451760000000  0.5381240000000 1.0
C      1  0.5305650000000  0.5320890000000  0.5811080000000 1.0
C      1  0.5061910000000  0.5851410000000  0.4729230000000 1.0
C      1  0.5056160000000  0.4234470000000  0.4780160000000 1.0
C      1  0.4255810000000  0.5315390000000  0.4409300000000 1.0
C      1  0.4819610000000  0.5708960000000  0.5432190000000 1.0
C      1  0.4984300000000  0.4368700000000  0.5397440000000 1.0
C      1  0.4624250000000  0.4688500000000  0.4523200000000 1.0
C      1  0.5299610000000  0.5648430000000  0.5327650000000 1.0
C      1  0.4771200000000  0.5152170000000  0.5961510000000 1.0
C      1  0.5024290000000  0.4231420000000  0.4471530000000 1.0
C      1  0.5681930000000  0.5299170000000  0.5442480000000 1.0
C      1  0.4489720000000  0.5225500000000  0.4889230000000 1.0
C      1  0.5255040000000  0.5118580000000  0.5376760000000 1.0
C      1  0.5604910000000  0.5556120000000  0.5311440000000 1.0
END
