TITL C-951348-1603-615 -2.02148227644437e-06 125000 -307.265923322304 0 0 51 (C1) n - 1
REM
REM in /home/bkarasulu/work/CARBON/AIRSS/Generating-Clusters/EDIP-Nigel-Params/with-SteepDescent/Only-C1/SD-CG/HFTN-CG
REM
REM
REM
REM
REM
REM ./C.cell (11c1c37f851c82e70ff6c80c92926a4b)
REM
REM compiler GCC version 9.2.1 20190827 (Red Hat 9.2.1-1)
REM options -cpp -mtune=generic -march=x86-64 -g -O0 -fpre-include=/usr/include/finclude/math-vector-fortran.h
REM seed -299501156 -712628894 -1723361423 -1402134566 -1221593604 642054457 1305427785 -540549097 1551613843 28386650 -426785437 -302254338 1513966490 456902351 -1956394427 -1298628094 1639411146 1429006408 -11650164 -290964800 -669648191 -2023723710 -1884833035 1012581819 -919031077 953220526 55811712 -2359645 -1910116958 661654188 821810342 1968051911 -1748100719
REM
CELL 1.54180   50.00000   50.00000   50.00000   90.00000   90.00000   90.00000
LATT -1
SFAC C  
C      1  0.5570240000000  0.4939830000000  0.5427940000000 1.0
C      1  0.5185740000000  0.4705850000000  0.4806140000000 1.0
C      1  0.5421650000000  0.4707010000000  0.5314130000000 1.0
C      1  0.4498710000000  0.4385490000000  0.5021260000000 1.0
C      1  0.4561750000000  0.5204050000000  0.5508080000000 1.0
C      1  0.4911990000000  0.5514860000000  0.5576290000000 1.0
C      1  0.4857960000000  0.4685880000000  0.4265770000000 1.0
C      1  0.4452250000000  0.4925620000000  0.4838960000000 1.0
C      1  0.4507690000000  0.5171080000000  0.4669720000000 1.0
C      1  0.5524160000000  0.4886500000000  0.4555640000000 1.0
C      1  0.5538680000000  0.5408580000000  0.5346860000000 1.0
C      1  0.4598800000000  0.4715350000000  0.4688500000000 1.0
C      1  0.5030120000000  0.5363780000000  0.4301470000000 1.0
C      1  0.5317090000000  0.4370660000000  0.4957390000000 1.0
C      1  0.4834460000000  0.5642700000000  0.4996890000000 1.0
C      1  0.4543700000000  0.4990320000000  0.5120840000000 1.0
C      1  0.4506230000000  0.4469530000000  0.5275230000000 1.0
C      1  0.4634560000000  0.5082380000000  0.4411050000000 1.0
C      1  0.4696930000000  0.4652200000000  0.5364490000000 1.0
C      1  0.5395060000000  0.5057660000000  0.5646450000000 1.0
C      1  0.5148100000000  0.4722070000000  0.5410090000000 1.0
C      1  0.5497230000000  0.5289960000000  0.4741260000000 1.0
C      1  0.4747440000000  0.5037480000000  0.5656030000000 1.0
C      1  0.5048730000000  0.4434450000000  0.4869490000000 1.0
C      1  0.5112940000000  0.4928630000000  0.5618350000000 1.0
C      1  0.4938500000000  0.5122660000000  0.4435020000000 1.0
C      1  0.4623690000000  0.5590570000000  0.5190800000000 1.0
C      1  0.5063550000000  0.5285790000000  0.5477060000000 1.0
C      1  0.5091050000000  0.5500150000000  0.5014160000000 1.0
C      1  0.4983860000000  0.5177410000000  0.4731570000000 1.0
C      1  0.4613700000000  0.4437760000000  0.4774030000000 1.0
C      1  0.5066530000000  0.4865090000000  0.4333850000000 1.0
C      1  0.5526520000000  0.5163620000000  0.4490080000000 1.0
C      1  0.5268390000000  0.4742710000000  0.4515930000000 1.0
C      1  0.5251150000000  0.5459570000000  0.4753700000000 1.0
C      1  0.5608250000000  0.5161410000000  0.5232080000000 1.0
C      1  0.5358160000000  0.5339030000000  0.5553300000000 1.0
C      1  0.4940940000000  0.4685100000000  0.5219590000000 1.0
C      1  0.5500250000000  0.4571620000000  0.5060240000000 1.0
C      1  0.5546550000000  0.5099700000000  0.4953440000000 1.0
C      1  0.5021460000000  0.4933140000000  0.4934900000000 1.0
C      1  0.4372500000000  0.5079920000000  0.5330590000000 1.0
C      1  0.5034890000000  0.5244400000000  0.5170150000000 1.0
C      1  0.5603730000000  0.4845000000000  0.4834980000000 1.0
C      1  0.4853370000000  0.4302280000000  0.4714340000000 1.0
C      1  0.4726540000000  0.5231200000000  0.5098300000000 1.0
C      1  0.4662210000000  0.5475590000000  0.5456680000000 1.0
C      1  0.4635460000000  0.4786560000000  0.4408250000000 1.0
C      1  0.4729280000000  0.5321760000000  0.4810450000000 1.0
C      1  0.4700020000000  0.4765260000000  0.5622700000000 1.0
C      1  0.5137250000000  0.5520750000000  0.4495480000000 1.0
END
