TITL C-950535-5962-252 1.24963604781326e-06 125000 -934.656055604104 0 0 149 (C1) n - 1
REM
REM in /home/bkarasulu/work/CARBON/AIRSS/Generating-Clusters/EDIP-Nigel-Params/with-SteepDescent/Only-C1/SD-CG/HFTN-CG
REM
REM
REM
REM
REM
REM ./C.cell (11c1c37f851c82e70ff6c80c92926a4b)
REM
REM compiler GCC version 9.2.1 20190827 (Red Hat 9.2.1-1)
REM options -cpp -mtune=generic -march=x86-64 -g -O0 -fpre-include=/usr/include/finclude/math-vector-fortran.h
REM seed -15811012 -982527420 1702541649 -291541156 -265505971 -1050168911 466472853 1489479757 921373752 860019614 -1200319873 -297426642 82737373 -99432465 342446354 738082233 1674333973 -1527751219 345282018 -1694704024 927195770 1276622481 -2066475430 -899507467 -462968652 -502415766 203563961 -1883351148 -750738342 -1226418229 -2108991785 214388031 1253987475
REM
CELL 1.54180   50.00000   50.00000   50.00000   90.00000   90.00000   90.00000
LATT -1
SFAC C  
C      1  0.5108290000000  0.5604690000000  0.4545980000000 1.0
C      1  0.4451280000000  0.4190730000000  0.4964050000000 1.0
C      1  0.4740130000000  0.5809190000000  0.4385850000000 1.0
C      1  0.4895880000000  0.3981940000000  0.4976950000000 1.0
C      1  0.5314550000000  0.6012010000000  0.4906390000000 1.0
C      1  0.4864030000000  0.4856720000000  0.5350650000000 1.0
C      1  0.5496380000000  0.5850140000000  0.5327110000000 1.0
C      1  0.5465030000000  0.4763230000000  0.4978820000000 1.0
C      1  0.5028980000000  0.5873640000000  0.4437420000000 1.0
C      1  0.4557180000000  0.4626980000000  0.5842560000000 1.0
C      1  0.4899910000000  0.5396380000000  0.4073360000000 1.0
C      1  0.5174040000000  0.4095050000000  0.4959880000000 1.0
C      1  0.3880460000000  0.4756660000000  0.4862270000000 1.0
C      1  0.4511070000000  0.4340710000000  0.4404950000000 1.0
C      1  0.4368330000000  0.5023090000000  0.4868990000000 1.0
C      1  0.5376160000000  0.5669720000000  0.5631960000000 1.0
C      1  0.5820730000000  0.4751700000000  0.4949700000000 1.0
C      1  0.5400780000000  0.5366730000000  0.5691180000000 1.0
C      1  0.5344730000000  0.4497550000000  0.5052180000000 1.0
C      1  0.5492400000000  0.4484090000000  0.4631710000000 1.0
C      1  0.5172200000000  0.5059120000000  0.6016980000000 1.0
C      1  0.4773820000000  0.4912120000000  0.4586410000000 1.0
C      1  0.4917060000000  0.4958730000000  0.5049690000000 1.0
C      1  0.5116850000000  0.6119380000000  0.5067190000000 1.0
C      1  0.4851170000000  0.5355270000000  0.4809870000000 1.0
C      1  0.4997310000000  0.4099980000000  0.5507450000000 1.0
C      1  0.4563050000000  0.4877720000000  0.5416080000000 1.0
C      1  0.4681630000000  0.5206320000000  0.4058580000000 1.0
C      1  0.4062280000000  0.4545570000000  0.5011290000000 1.0
C      1  0.4518690000000  0.4155380000000  0.5250840000000 1.0
C      1  0.5838210000000  0.5499880000000  0.5309000000000 1.0
C      1  0.4411910000000  0.4327900000000  0.5458350000000 1.0
C      1  0.5910600000000  0.4711660000000  0.4660910000000 1.0
C      1  0.5470780000000  0.4866690000000  0.5264520000000 1.0
C      1  0.5214980000000  0.5333920000000  0.5926610000000 1.0
C      1  0.4596530000000  0.4384760000000  0.5680390000000 1.0
C      1  0.4685370000000  0.4111200000000  0.4806540000000 1.0
C      1  0.5350220000000  0.4883330000000  0.4014680000000 1.0
C      1  0.5617240000000  0.4122930000000  0.4982190000000 1.0
C      1  0.5223140000000  0.5546500000000  0.5034440000000 1.0
C      1  0.4475010000000  0.5717690000000  0.4802910000000 1.0
C      1  0.4865570000000  0.4400900000000  0.5142410000000 1.0
C      1  0.5012640000000  0.4486570000000  0.5905160000000 1.0
C      1  0.4059930000000  0.5457970000000  0.4796270000000 1.0
C      1  0.5588010000000  0.5801900000000  0.4575760000000 1.0
C      1  0.5357920000000  0.4030450000000  0.4732130000000 1.0
C      1  0.4147300000000  0.4749820000000  0.5579810000000 1.0
C      1  0.5406730000000  0.5384800000000  0.4034320000000 1.0
C      1  0.5775210000000  0.5109020000000  0.4244040000000 1.0
C      1  0.5355930000000  0.4858570000000  0.5874780000000 1.0
C      1  0.4935130000000  0.4806670000000  0.4348330000000 1.0
C      1  0.5137490000000  0.5290110000000  0.3929570000000 1.0
C      1  0.4268590000000  0.4400200000000  0.4848400000000 1.0
C      1  0.5507210000000  0.4296350000000  0.5204010000000 1.0
C      1  0.5215750000000  0.4865170000000  0.5621300000000 1.0
C      1  0.5849760000000  0.4281830000000  0.4891430000000 1.0
C      1  0.5243370000000  0.5272190000000  0.5444800000000 1.0
C      1  0.3976530000000  0.4840490000000  0.4592200000000 1.0
C      1  0.5091730000000  0.4988470000000  0.3912160000000 1.0
C      1  0.4418510000000  0.4840920000000  0.5692290000000 1.0
C      1  0.4326910000000  0.4848310000000  0.4283570000000 1.0
C      1  0.4428290000000  0.5123380000000  0.5832820000000 1.0
C      1  0.5214010000000  0.4922680000000  0.4545930000000 1.0
C      1  0.4703390000000  0.5210940000000  0.5925660000000 1.0
C      1  0.5352150000000  0.4245040000000  0.4528250000000 1.0
C      1  0.4328680000000  0.5293270000000  0.5604800000000 1.0
C      1  0.4892930000000  0.4370150000000  0.5635930000000 1.0
C      1  0.4470770000000  0.5250340000000  0.5034080000000 1.0
C      1  0.4532090000000  0.5650710000000  0.4523160000000 1.0
C      1  0.5117470000000  0.5512920000000  0.5310880000000 1.0
C      1  0.4795960000000  0.4039470000000  0.5262460000000 1.0
C      1  0.6155770000000  0.5147320000000  0.4967870000000 1.0
C      1  0.4492220000000  0.5920450000000  0.5350900000000 1.0
C      1  0.4759400000000  0.5285550000000  0.5498430000000 1.0
C      1  0.5532890000000  0.5330610000000  0.4757210000000 1.0
C      1  0.5916240000000  0.4983800000000  0.5359060000000 1.0
C      1  0.4890830000000  0.4991630000000  0.5966320000000 1.0
C      1  0.5226540000000  0.4967880000000  0.4871860000000 1.0
C      1  0.5858270000000  0.5249290000000  0.5476940000000 1.0
C      1  0.4624070000000  0.5833160000000  0.5572610000000 1.0
C      1  0.4899720000000  0.5844310000000  0.5511730000000 1.0
C      1  0.4681800000000  0.5998940000000  0.5157010000000 1.0
C      1  0.4345750000000  0.5469370000000  0.4380860000000 1.0
C      1  0.4303100000000  0.4455980000000  0.4565160000000 1.0
C      1  0.5343990000000  0.5973230000000  0.4615340000000 1.0
C      1  0.3834300000000  0.5017630000000  0.4976500000000 1.0
C      1  0.5373330000000  0.5416560000000  0.4523320000000 1.0
C      1  0.5350250000000  0.4154260000000  0.5656890000000 1.0
C      1  0.5426700000000  0.5157550000000  0.5243060000000 1.0
C      1  0.4711030000000  0.5832420000000  0.4920880000000 1.0
C      1  0.5476540000000  0.5122140000000  0.4164480000000 1.0
C      1  0.5392970000000  0.4435280000000  0.5676130000000 1.0
C      1  0.4815470000000  0.4705710000000  0.5963380000000 1.0
C      1  0.4685040000000  0.4141660000000  0.4518830000000 1.0
C      1  0.5785820000000  0.4437060000000  0.4639530000000 1.0
C      1  0.4138690000000  0.5326220000000  0.4539810000000 1.0
C      1  0.5806780000000  0.5254910000000  0.4651590000000 1.0
C      1  0.4230730000000  0.4882780000000  0.5088210000000 1.0
C      1  0.4962940000000  0.4558300000000  0.5395410000000 1.0
C      1  0.4449420000000  0.5307160000000  0.4177410000000 1.0
C      1  0.5713290000000  0.5716310000000  0.5447560000000 1.0
C      1  0.4966220000000  0.5477720000000  0.5870180000000 1.0
C      1  0.4427630000000  0.4699710000000  0.5213720000000 1.0
C      1  0.4887400000000  0.5452170000000  0.4377120000000 1.0
C      1  0.4501430000000  0.5175000000000  0.5384820000000 1.0
C      1  0.5846070000000  0.5523760000000  0.5007590000000 1.0
C      1  0.5077620000000  0.5708100000000  0.5705190000000 1.0
C      1  0.4790870000000  0.4919110000000  0.4081360000000 1.0
C      1  0.5822740000000  0.5382490000000  0.4368600000000 1.0
C      1  0.5309530000000  0.5161140000000  0.4404420000000 1.0
C      1  0.4624060000000  0.4558690000000  0.5002810000000 1.0
C      1  0.3906070000000  0.5296280000000  0.5001370000000 1.0
C      1  0.4781150000000  0.4780420000000  0.4855960000000 1.0
C      1  0.4564850000000  0.4465970000000  0.4159410000000 1.0
C      1  0.4842420000000  0.5204940000000  0.4571040000000 1.0
C      1  0.5900070000000  0.4499450000000  0.5096020000000 1.0
C      1  0.4781810000000  0.5241140000000  0.5044890000000 1.0
C      1  0.4226660000000  0.5045250000000  0.4596750000000 1.0
C      1  0.4070370000000  0.5240430000000  0.5473540000000 1.0
C      1  0.5433860000000  0.5785510000000  0.5042810000000 1.0
C      1  0.4305880000000  0.5520550000000  0.4973960000000 1.0
C      1  0.4916520000000  0.4079280000000  0.4375300000000 1.0
C      1  0.4044280000000  0.5401850000000  0.5235530000000 1.0
C      1  0.4844990000000  0.5430930000000  0.5269660000000 1.0
C      1  0.5316910000000  0.4116240000000  0.5377380000000 1.0
C      1  0.5960290000000  0.4981000000000  0.5078000000000 1.0
C      1  0.5085930000000  0.4299520000000  0.4420130000000 1.0
C      1  0.4150250000000  0.4658600000000  0.4423690000000 1.0
C      1  0.4209570000000  0.4530270000000  0.5370840000000 1.0
C      1  0.5337400000000  0.4637300000000  0.4192240000000 1.0
C      1  0.4945780000000  0.6034640000000  0.5275130000000 1.0
C      1  0.5432240000000  0.4723650000000  0.4461960000000 1.0
C      1  0.4535230000000  0.4741780000000  0.4110580000000 1.0
C      1  0.5344930000000  0.5249350000000  0.4970730000000 1.0
C      1  0.5827330000000  0.4916410000000  0.4468110000000 1.0
C      1  0.5098470000000  0.4378460000000  0.4958650000000 1.0
C      1  0.5673480000000  0.5732320000000  0.4871120000000 1.0
C      1  0.5634720000000  0.4920020000000  0.5749230000000 1.0
C      1  0.4994460000000  0.5603660000000  0.4832370000000 1.0
C      1  0.5062420000000  0.4534450000000  0.4245370000000 1.0
C      1  0.4043460000000  0.4961400000000  0.5408400000000 1.0
C      1  0.5741050000000  0.4476330000000  0.5346350000000 1.0
C      1  0.5306630000000  0.4559290000000  0.5929100000000 1.0
C      1  0.6014680000000  0.5351350000000  0.4840050000000 1.0
C      1  0.5260320000000  0.4618390000000  0.5463750000000 1.0
C      1  0.4999000000000  0.5071260000000  0.5544140000000 1.0
C      1  0.5575730000000  0.5556490000000  0.4339160000000 1.0
C      1  0.5673470000000  0.5214500000000  0.5710570000000 1.0
C      1  0.5705490000000  0.4789370000000  0.5452980000000 1.0
END
