TITL C-951342-2639-456 -1.2897535577611e-06 125000 -823.197556639033 0 0 133 (C1) n - 1
REM
REM in /home/bkarasulu/work/CARBON/AIRSS/Generating-Clusters/EDIP-Nigel-Params/with-SteepDescent/Only-C1/SD-CG/HFTN-CG
REM
REM
REM
REM
REM
REM ./C.cell (11c1c37f851c82e70ff6c80c92926a4b)
REM
REM compiler GCC version 9.2.1 20190827 (Red Hat 9.2.1-1)
REM options -cpp -mtune=generic -march=x86-64 -g -O0 -fpre-include=/usr/include/finclude/math-vector-fortran.h
REM seed -667251871 1241732188 84989956 1537967864 1339280333 -1280617170 106790879 1913627144 279428267 -71699967 -1955075978 -2058245957 1531789442 492500592 758968429 -114034920 -416375036 275620585 307516631 1790646478 2050664859 -1903674039 1259804418 2118273901 -1892626256 631000674 1136723105 481017743 -1544884006 -818911848 1090151860 -1581905880 -2092672515
REM
CELL 1.54180   50.00000   50.00000   50.00000   90.00000   90.00000   90.00000
LATT -1
SFAC C  
C      1  0.5901180000000  0.4870290000000  0.5357980000000 1.0
C      1  0.4620760000000  0.5268390000000  0.4048410000000 1.0
C      1  0.5165500000000  0.4959530000000  0.5985900000000 1.0
C      1  0.4783190000000  0.4137050000000  0.4810150000000 1.0
C      1  0.5271560000000  0.4866050000000  0.4628230000000 1.0
C      1  0.5575520000000  0.5778580000000  0.5071790000000 1.0
C      1  0.5482720000000  0.5207140000000  0.4289890000000 1.0
C      1  0.4642460000000  0.5586260000000  0.4959660000000 1.0
C      1  0.4556840000000  0.4322670000000  0.4805790000000 1.0
C      1  0.5102000000000  0.5104900000000  0.3997790000000 1.0
C      1  0.5428270000000  0.4629460000000  0.5732540000000 1.0
C      1  0.4925300000000  0.5816980000000  0.5300030000000 1.0
C      1  0.4997790000000  0.5736770000000  0.5579180000000 1.0
C      1  0.4842520000000  0.4764270000000  0.4800650000000 1.0
C      1  0.5609830000000  0.5491570000000  0.4669550000000 1.0
C      1  0.4819680000000  0.5057010000000  0.4042580000000 1.0
C      1  0.4081630000000  0.4366340000000  0.4903450000000 1.0
C      1  0.5972900000000  0.4507590000000  0.5064510000000 1.0
C      1  0.4101130000000  0.5228840000000  0.5273280000000 1.0
C      1  0.4368930000000  0.4225510000000  0.5255710000000 1.0
C      1  0.4779030000000  0.5035990000000  0.5785910000000 1.0
C      1  0.5356570000000  0.4030620000000  0.5254280000000 1.0
C      1  0.4915960000000  0.4549590000000  0.5807430000000 1.0
C      1  0.5754800000000  0.4617030000000  0.5258790000000 1.0
C      1  0.5240650000000  0.4056410000000  0.4982300000000 1.0
C      1  0.4678310000000  0.4865150000000  0.5344880000000 1.0
C      1  0.5136380000000  0.5185550000000  0.4817490000000 1.0
C      1  0.4351020000000  0.5248300000000  0.4501070000000 1.0
C      1  0.4604870000000  0.5900600000000  0.5004140000000 1.0
C      1  0.4373480000000  0.5540810000000  0.4598460000000 1.0
C      1  0.4351650000000  0.4766960000000  0.4960790000000 1.0
C      1  0.5034290000000  0.4480960000000  0.5236200000000 1.0
C      1  0.4127470000000  0.4813610000000  0.5555550000000 1.0
C      1  0.4097890000000  0.4929240000000  0.5283910000000 1.0
C      1  0.4739970000000  0.4863580000000  0.4539010000000 1.0
C      1  0.5213070000000  0.4672960000000  0.5083910000000 1.0
C      1  0.4735010000000  0.4563930000000  0.5236100000000 1.0
C      1  0.5504470000000  0.5529430000000  0.5651540000000 1.0
C      1  0.5161610000000  0.4732070000000  0.5817970000000 1.0
C      1  0.5365920000000  0.4217770000000  0.4764830000000 1.0
C      1  0.4680040000000  0.5592580000000  0.4647300000000 1.0
C      1  0.4455220000000  0.5002280000000  0.5148630000000 1.0
C      1  0.4757440000000  0.4315820000000  0.4359010000000 1.0
C      1  0.4963180000000  0.4144790000000  0.5035670000000 1.0
C      1  0.5586600000000  0.5009470000000  0.5036400000000 1.0
C      1  0.4894560000000  0.4556250000000  0.4230080000000 1.0
C      1  0.5711820000000  0.4573020000000  0.4659460000000 1.0
C      1  0.4723070000000  0.4788650000000  0.4099880000000 1.0
C      1  0.5162080000000  0.4357470000000  0.5490750000000 1.0
C      1  0.5633740000000  0.4319430000000  0.4792950000000 1.0
C      1  0.5285600000000  0.5755790000000  0.4354210000000 1.0
C      1  0.4416670000000  0.4866580000000  0.4140640000000 1.0
C      1  0.5469530000000  0.4918120000000  0.4239740000000 1.0
C      1  0.5187120000000  0.5605920000000  0.4141390000000 1.0
C      1  0.4703180000000  0.5509670000000  0.5890240000000 1.0
C      1  0.5882540000000  0.5053150000000  0.5103380000000 1.0
C      1  0.4823260000000  0.5264840000000  0.5950650000000 1.0
C      1  0.5447950000000  0.4432120000000  0.5510720000000 1.0
C      1  0.4595960000000  0.5305910000000  0.5433860000000 1.0
C      1  0.4631350000000  0.5189470000000  0.4961780000000 1.0
C      1  0.5655280000000  0.4787970000000  0.5775920000000 1.0
C      1  0.5783460000000  0.5579440000000  0.5217250000000 1.0
C      1  0.5409600000000  0.5039120000000  0.5565740000000 1.0
C      1  0.4636550000000  0.4301220000000  0.5381880000000 1.0
C      1  0.5308740000000  0.5635760000000  0.5448910000000 1.0
C      1  0.4581850000000  0.4876710000000  0.5634870000000 1.0
C      1  0.4123660000000  0.5138530000000  0.4650890000000 1.0
C      1  0.5768730000000  0.4278650000000  0.5060350000000 1.0
C      1  0.4300560000000  0.5002250000000  0.5673390000000 1.0
C      1  0.5345720000000  0.5286070000000  0.5750440000000 1.0
C      1  0.4516220000000  0.4376350000000  0.4512210000000 1.0
C      1  0.5573690000000  0.4228450000000  0.5313960000000 1.0
C      1  0.4262350000000  0.4562710000000  0.5578070000000 1.0
C      1  0.4795130000000  0.5337880000000  0.4545470000000 1.0
C      1  0.5195050000000  0.5449610000000  0.4976040000000 1.0
C      1  0.4624440000000  0.4592950000000  0.4943150000000 1.0
C      1  0.5017270000000  0.5229760000000  0.5555610000000 1.0
C      1  0.4223240000000  0.5535240000000  0.4841710000000 1.0
C      1  0.5499410000000  0.5243130000000  0.4574230000000 1.0
C      1  0.5233640000000  0.5812420000000  0.4623550000000 1.0
C      1  0.5127430000000  0.4645780000000  0.4786700000000 1.0
C      1  0.4696220000000  0.5537730000000  0.4034750000000 1.0
C      1  0.4931950000000  0.5664770000000  0.4051610000000 1.0
C      1  0.4504770000000  0.4664290000000  0.4454670000000 1.0
C      1  0.5392660000000  0.5876690000000  0.5278680000000 1.0
C      1  0.5052020000000  0.4931490000000  0.4395480000000 1.0
C      1  0.5283690000000  0.5389250000000  0.5264740000000 1.0
C      1  0.4939320000000  0.5845810000000  0.4650980000000 1.0
C      1  0.5877000000000  0.5391790000000  0.4758540000000 1.0
C      1  0.5503150000000  0.5200850000000  0.5316440000000 1.0
C      1  0.5594580000000  0.4679190000000  0.4396950000000 1.0
C      1  0.5931510000000  0.5125370000000  0.4639290000000 1.0
C      1  0.5513270000000  0.4735850000000  0.5118410000000 1.0
C      1  0.5909800000000  0.5366320000000  0.5051630000000 1.0
C      1  0.5589510000000  0.4988350000000  0.4713380000000 1.0
C      1  0.4118130000000  0.4586620000000  0.5093840000000 1.0
C      1  0.4839140000000  0.6027870000000  0.4854010000000 1.0
C      1  0.4380760000000  0.5168250000000  0.4189660000000 1.0
C      1  0.4228900000000  0.5264510000000  0.5543620000000 1.0
C      1  0.5030390000000  0.4300150000000  0.5747680000000 1.0
C      1  0.5095410000000  0.5227330000000  0.6030730000000 1.0
C      1  0.5405480000000  0.5649360000000  0.4835550000000 1.0
C      1  0.5786800000000  0.4961120000000  0.5603400000000 1.0
C      1  0.4728110000000  0.5718260000000  0.5703230000000 1.0
C      1  0.5047450000000  0.6169720000000  0.4991240000000 1.0
C      1  0.5241870000000  0.4862700000000  0.4069640000000 1.0
C      1  0.5081360000000  0.4917810000000  0.5172200000000 1.0
C      1  0.4185770000000  0.4428260000000  0.5340810000000 1.0
C      1  0.4850470000000  0.5325180000000  0.5322610000000 1.0
C      1  0.4926620000000  0.4196260000000  0.4566410000000 1.0
C      1  0.4265950000000  0.5399250000000  0.5089210000000 1.0
C      1  0.5158590000000  0.4377640000000  0.4612930000000 1.0
C      1  0.4230340000000  0.4750370000000  0.4456540000000 1.0
C      1  0.4651830000000  0.5955860000000  0.5294870000000 1.0
C      1  0.5959440000000  0.4657780000000  0.4804960000000 1.0
C      1  0.5186990000000  0.4516380000000  0.4343650000000 1.0
C      1  0.4845930000000  0.4077560000000  0.5301450000000 1.0
C      1  0.6010010000000  0.4944380000000  0.4852460000000 1.0
C      1  0.4912580000000  0.5028610000000  0.4959810000000 1.0
C      1  0.5452110000000  0.4475980000000  0.4252410000000 1.0
C      1  0.4433120000000  0.5518770000000  0.5327060000000 1.0
C      1  0.5113420000000  0.4058650000000  0.5449930000000 1.0
C      1  0.5134370000000  0.5983350000000  0.5182650000000 1.0
C      1  0.5065100000000  0.5230050000000  0.4519340000000 1.0
C      1  0.4510560000000  0.5778520000000  0.5489540000000 1.0
C      1  0.4211130000000  0.4879450000000  0.4706000000000 1.0
C      1  0.4633960000000  0.4563830000000  0.5668200000000 1.0
C      1  0.4897990000000  0.5555970000000  0.5130390000000 1.0
C      1  0.5693620000000  0.5404740000000  0.5446860000000 1.0
C      1  0.4320280000000  0.4219080000000  0.4957840000000 1.0
C      1  0.5043500000000  0.4945440000000  0.5454970000000 1.0
C      1  0.4608710000000  0.5135560000000  0.4635620000000 1.0
C      1  0.5229250000000  0.5314520000000  0.4174470000000 1.0
END
