TITL C-951338-5626-447 7.21535239658922e-07 125000 -244.085183993388 0 0 41 (C1) n - 1
REM
REM in /home/bkarasulu/work/CARBON/AIRSS/Generating-Clusters/EDIP-Nigel-Params/with-SteepDescent/Only-C1/SD-CG/HFTN-CG
REM
REM
REM
REM
REM
REM ./C.cell (11c1c37f851c82e70ff6c80c92926a4b)
REM
REM compiler GCC version 9.2.1 20190827 (Red Hat 9.2.1-1)
REM options -cpp -mtune=generic -march=x86-64 -g -O0 -fpre-include=/usr/include/finclude/math-vector-fortran.h
REM seed 994326157 -2043458572 -2136753362 -2032634490 2061345013 1490707668 1731238143 -418762551 26939464 -2039587498 1694729459 -2124399926 1415991524 79825740 1012433733 -221190112 1402166329 872477170 -1288197169 -1931034779 204509712 2122798361 -2073661034 -941373308 1938204741 1425916935 -1835466623 193656463 2124901555 1440631574 -1301341432 619967219 742466370
REM
CELL 1.54180   50.00000   50.00000   50.00000   90.00000   90.00000   90.00000
LATT -1
SFAC C  
C      1  0.4630670000000  0.5522560000000  0.5119290000000 1.0
C      1  0.5170160000000  0.4787940000000  0.4308960000000 1.0
C      1  0.5083170000000  0.5199150000000  0.5054370000000 1.0
C      1  0.5373060000000  0.5595630000000  0.5208980000000 1.0
C      1  0.4585380000000  0.4831550000000  0.5294980000000 1.0
C      1  0.4996440000000  0.4638070000000  0.4476200000000 1.0
C      1  0.4985200000000  0.4710590000000  0.5585180000000 1.0
C      1  0.4613990000000  0.4457010000000  0.4915220000000 1.0
C      1  0.4992930000000  0.5137790000000  0.5479600000000 1.0
C      1  0.4764170000000  0.4924370000000  0.5514180000000 1.0
C      1  0.5081980000000  0.5596390000000  0.5333330000000 1.0
C      1  0.4583920000000  0.4538810000000  0.5228480000000 1.0
C      1  0.5572290000000  0.5108100000000  0.5370590000000 1.0
C      1  0.5422840000000  0.4879160000000  0.5430870000000 1.0
C      1  0.4860460000000  0.4986700000000  0.4984620000000 1.0
C      1  0.4867050000000  0.4394190000000  0.5206570000000 1.0
C      1  0.5195040000000  0.4944940000000  0.5605780000000 1.0
C      1  0.5329900000000  0.4664920000000  0.5250540000000 1.0
C      1  0.5080080000000  0.4960580000000  0.4759120000000 1.0
C      1  0.4528900000000  0.5338850000000  0.4931060000000 1.0
C      1  0.4632540000000  0.5365660000000  0.4657000000000 1.0
C      1  0.5343430000000  0.5090330000000  0.4912700000000 1.0
C      1  0.4713850000000  0.5050500000000  0.4450680000000 1.0
C      1  0.5004740000000  0.5411220000000  0.5529460000000 1.0
C      1  0.5457510000000  0.4554450000000  0.5028610000000 1.0
C      1  0.5095530000000  0.4527210000000  0.4732240000000 1.0
C      1  0.5169080000000  0.5063080000000  0.4299260000000 1.0
C      1  0.5590600000000  0.5355760000000  0.5243930000000 1.0
C      1  0.4558140000000  0.5044830000000  0.5004920000000 1.0
C      1  0.5367970000000  0.4484860000000  0.4783070000000 1.0
C      1  0.4910630000000  0.4366390000000  0.4892330000000 1.0
C      1  0.5047050000000  0.5467330000000  0.4902530000000 1.0
C      1  0.4890610000000  0.5621650000000  0.5102140000000 1.0
C      1  0.5323680000000  0.5581780000000  0.4896300000000 1.0
C      1  0.4725460000000  0.4762680000000  0.4504250000000 1.0
C      1  0.4564220000000  0.4692320000000  0.4737150000000 1.0
C      1  0.4388460000000  0.4890680000000  0.4823730000000 1.0
C      1  0.5075700000000  0.4562840000000  0.5345320000000 1.0
C      1  0.4922010000000  0.5414120000000  0.4630240000000 1.0
C      1  0.4989330000000  0.5133870000000  0.4521630000000 1.0
C      1  0.5511830000000  0.5341140000000  0.4944560000000 1.0
END
