TITL C-951334-9093-283 1.45059720274294e-06 125000 -1176.39710972346 0 0 187 (C1) n - 1
REM
REM in /home/bkarasulu/work/CARBON/AIRSS/Generating-Clusters/EDIP-Nigel-Params/with-SteepDescent/Only-C1/SD-CG/HFTN-CG
REM
REM
REM
REM
REM
REM ./C.cell (11c1c37f851c82e70ff6c80c92926a4b)
REM
REM compiler GCC version 9.2.1 20190827 (Red Hat 9.2.1-1)
REM options -cpp -mtune=generic -march=x86-64 -g -O0 -fpre-include=/usr/include/finclude/math-vector-fortran.h
REM seed -1074823770 -112451530 1737860352 -1486103961 -359048000 2030939560 1299430363 -475809665 -1309360386 -273759347 1047575763 -1723285249 76596521 1172923022 810325178 1159269984 -1297479521 727458812 -1702512436 -1035518718 -318442762 373680138 903245234 241855272 -420335490 -1174168930 1104397050 -1457439319 116062428 -1646503863 1732809140 -300624957 334412758
REM
CELL 1.54180   50.00000   50.00000   50.00000   90.00000   90.00000   90.00000
LATT -1
SFAC C  
C      1  0.4894010000000  0.5292800000000  0.5674930000000 1.0
C      1  0.5483580000000  0.4161840000000  0.5193520000000 1.0
C      1  0.6009620000000  0.5315500000000  0.5026580000000 1.0
C      1  0.5540490000000  0.5234020000000  0.5627340000000 1.0
C      1  0.3878290000000  0.4879010000000  0.4876490000000 1.0
C      1  0.5210040000000  0.4550350000000  0.4006130000000 1.0
C      1  0.4856200000000  0.5310200000000  0.3816620000000 1.0
C      1  0.5002070000000  0.5249990000000  0.4901890000000 1.0
C      1  0.5839060000000  0.4818010000000  0.5842450000000 1.0
C      1  0.4856430000000  0.4854970000000  0.5175810000000 1.0
C      1  0.5340080000000  0.4048530000000  0.5457850000000 1.0
C      1  0.4940430000000  0.4755960000000  0.4854300000000 1.0
C      1  0.5084270000000  0.5898160000000  0.4147300000000 1.0
C      1  0.5641750000000  0.6150660000000  0.4861940000000 1.0
C      1  0.4172050000000  0.4580500000000  0.5469070000000 1.0
C      1  0.5265670000000  0.5348100000000  0.5046120000000 1.0
C      1  0.5816360000000  0.5190240000000  0.4567200000000 1.0
C      1  0.5218300000000  0.5287680000000  0.5328770000000 1.0
C      1  0.4821820000000  0.4277210000000  0.4162020000000 1.0
C      1  0.5671020000000  0.5728570000000  0.5651590000000 1.0
C      1  0.4423600000000  0.4155570000000  0.5329090000000 1.0
C      1  0.5206200000000  0.5018010000000  0.5439530000000 1.0
C      1  0.5233480000000  0.4232240000000  0.5701910000000 1.0
C      1  0.5100030000000  0.3913290000000  0.5340760000000 1.0
C      1  0.5003530000000  0.5007910000000  0.4712720000000 1.0
C      1  0.5641990000000  0.4346570000000  0.4458760000000 1.0
C      1  0.5438950000000  0.4318480000000  0.5920290000000 1.0
C      1  0.4272850000000  0.4434600000000  0.5979110000000 1.0
C      1  0.4022030000000  0.4709060000000  0.4694800000000 1.0
C      1  0.4325430000000  0.5098270000000  0.5181810000000 1.0
C      1  0.4298370000000  0.4864800000000  0.4995380000000 1.0
C      1  0.4343250000000  0.4310170000000  0.4757540000000 1.0
C      1  0.5926180000000  0.5641890000000  0.4694400000000 1.0
C      1  0.5556440000000  0.6004450000000  0.4640690000000 1.0
C      1  0.5362210000000  0.4590290000000  0.6035480000000 1.0
C      1  0.4703780000000  0.4719610000000  0.5465410000000 1.0
C      1  0.4046060000000  0.5139300000000  0.5529250000000 1.0
C      1  0.4307180000000  0.5111270000000  0.6009260000000 1.0
C      1  0.5878590000000  0.4548590000000  0.5758660000000 1.0
C      1  0.5259790000000  0.5436190000000  0.4042170000000 1.0
C      1  0.5260670000000  0.4011960000000  0.4621590000000 1.0
C      1  0.6082080000000  0.5058770000000  0.5435550000000 1.0
C      1  0.4829450000000  0.6100900000000  0.4799930000000 1.0
C      1  0.5059340000000  0.5752640000000  0.5131180000000 1.0
C      1  0.4808600000000  0.5972560000000  0.4544730000000 1.0
C      1  0.4482870000000  0.5165930000000  0.5437770000000 1.0
C      1  0.4438660000000  0.5876140000000  0.5528960000000 1.0
C      1  0.5206750000000  0.4524090000000  0.5601900000000 1.0
C      1  0.4875270000000  0.4114340000000  0.5338460000000 1.0
C      1  0.5254700000000  0.4995760000000  0.3888410000000 1.0
C      1  0.5519260000000  0.5236900000000  0.4973640000000 1.0
C      1  0.4562440000000  0.4459260000000  0.4887740000000 1.0
C      1  0.4399310000000  0.5338080000000  0.5870300000000 1.0
C      1  0.4449670000000  0.4898500000000  0.5887520000000 1.0
C      1  0.5976000000000  0.5372400000000  0.4754580000000 1.0
C      1  0.5305930000000  0.5639390000000  0.5025520000000 1.0
C      1  0.5706560000000  0.4338750000000  0.5822810000000 1.0
C      1  0.5637820000000  0.4601950000000  0.5334680000000 1.0
C      1  0.4021940000000  0.4488410000000  0.5125620000000 1.0
C      1  0.5106230000000  0.5529000000000  0.5717550000000 1.0
C      1  0.3873960000000  0.5161830000000  0.4823360000000 1.0
C      1  0.4442020000000  0.5283570000000  0.4741140000000 1.0
C      1  0.5553570000000  0.5571330000000  0.4407040000000 1.0
C      1  0.5509750000000  0.4634230000000  0.5621560000000 1.0
C      1  0.4096920000000  0.4855060000000  0.5564120000000 1.0
C      1  0.4479400000000  0.4645530000000  0.5088100000000 1.0
C      1  0.4082390000000  0.5464730000000  0.5128340000000 1.0
C      1  0.5140420000000  0.5333000000000  0.4304730000000 1.0
C      1  0.5796290000000  0.4200540000000  0.5156430000000 1.0
C      1  0.4277510000000  0.5887120000000  0.5285710000000 1.0
C      1  0.5281290000000  0.5545870000000  0.5966140000000 1.0
C      1  0.5295240000000  0.4070550000000  0.4926360000000 1.0
C      1  0.4749030000000  0.5312020000000  0.5390040000000 1.0
C      1  0.5677510000000  0.5741130000000  0.4606470000000 1.0
C      1  0.4838320000000  0.5254560000000  0.4327530000000 1.0
C      1  0.4585010000000  0.4827890000000  0.4540990000000 1.0
C      1  0.4601190000000  0.5670940000000  0.4019270000000 1.0
C      1  0.5628510000000  0.4841770000000  0.5137430000000 1.0
C      1  0.4264640000000  0.4370290000000  0.5706610000000 1.0
C      1  0.4227850000000  0.5559530000000  0.4328320000000 1.0
C      1  0.5553840000000  0.4841240000000  0.5951090000000 1.0
C      1  0.5881190000000  0.5537040000000  0.5558380000000 1.0
C      1  0.5640050000000  0.4432790000000  0.4738430000000 1.0
C      1  0.5664350000000  0.4739040000000  0.4765020000000 1.0
C      1  0.4837140000000  0.5153170000000  0.5144680000000 1.0
C      1  0.4086720000000  0.4807810000000  0.4424200000000 1.0
C      1  0.5417290000000  0.5092430000000  0.5869700000000 1.0
C      1  0.5631560000000  0.5138450000000  0.5265310000000 1.0
C      1  0.5538040000000  0.5655710000000  0.5896190000000 1.0
C      1  0.6173180000000  0.4823380000000  0.5319720000000 1.0
C      1  0.4855850000000  0.5730270000000  0.4906280000000 1.0
C      1  0.4802710000000  0.6092870000000  0.5291380000000 1.0
C      1  0.4284310000000  0.5337590000000  0.5584790000000 1.0
C      1  0.4424840000000  0.5140760000000  0.4054110000000 1.0
C      1  0.3957510000000  0.4767300000000  0.5130080000000 1.0
C      1  0.4036440000000  0.5096980000000  0.4365690000000 1.0
C      1  0.4478270000000  0.4180090000000  0.5613400000000 1.0
C      1  0.5750210000000  0.5362720000000  0.4313510000000 1.0
C      1  0.4829540000000  0.5597870000000  0.3874630000000 1.0
C      1  0.4782020000000  0.4193760000000  0.5613340000000 1.0
C      1  0.4633060000000  0.3999190000000  0.5211660000000 1.0
C      1  0.4047530000000  0.5187520000000  0.5228880000000 1.0
C      1  0.4731850000000  0.5146030000000  0.4039040000000 1.0
C      1  0.4533570000000  0.4920720000000  0.5602650000000 1.0
C      1  0.5893920000000  0.4427990000000  0.5334500000000 1.0
C      1  0.4649730000000  0.6104220000000  0.5029930000000 1.0
C      1  0.4433050000000  0.4989760000000  0.4748220000000 1.0
C      1  0.5640520000000  0.5987010000000  0.5076090000000 1.0
C      1  0.4072690000000  0.4445010000000  0.4830440000000 1.0
C      1  0.5868140000000  0.4323860000000  0.4887520000000 1.0
C      1  0.4166250000000  0.5410260000000  0.4813830000000 1.0
C      1  0.5069030000000  0.4664990000000  0.6026130000000 1.0
C      1  0.3877100000000  0.5224800000000  0.4556270000000 1.0
C      1  0.4606730000000  0.5649500000000  0.5042160000000 1.0
C      1  0.4898030000000  0.5486200000000  0.4750740000000 1.0
C      1  0.5152030000000  0.5263910000000  0.3823380000000 1.0
C      1  0.4470470000000  0.4530660000000  0.5353480000000 1.0
C      1  0.4579000000000  0.4411330000000  0.4055340000000 1.0
C      1  0.4963880000000  0.4358100000000  0.5186410000000 1.0
C      1  0.5338080000000  0.4840170000000  0.5028520000000 1.0
C      1  0.5066590000000  0.4769170000000  0.3862300000000 1.0
C      1  0.5144690000000  0.4814130000000  0.5246240000000 1.0
C      1  0.4427940000000  0.4650840000000  0.6007420000000 1.0
C      1  0.4587470000000  0.4685920000000  0.3931290000000 1.0
C      1  0.4697890000000  0.5348400000000  0.5901490000000 1.0
C      1  0.5131480000000  0.3851600000000  0.5049040000000 1.0
C      1  0.4348080000000  0.5849860000000  0.4710600000000 1.0
C      1  0.4907770000000  0.4384650000000  0.4583330000000 1.0
C      1  0.4349700000000  0.4718810000000  0.4318150000000 1.0
C      1  0.4734230000000  0.5605550000000  0.5303680000000 1.0
C      1  0.4451850000000  0.5739970000000  0.4243970000000 1.0
C      1  0.4437570000000  0.5886250000000  0.5017740000000 1.0
C      1  0.4974910000000  0.4148680000000  0.5810670000000 1.0
C      1  0.5445580000000  0.5740960000000  0.5451580000000 1.0
C      1  0.5084310000000  0.4277970000000  0.4022930000000 1.0
C      1  0.4370930000000  0.4848190000000  0.4046250000000 1.0
C      1  0.5480690000000  0.4806450000000  0.4320370000000 1.0
C      1  0.4206190000000  0.5599420000000  0.5375650000000 1.0
C      1  0.5294740000000  0.5270870000000  0.6073490000000 1.0
C      1  0.4813730000000  0.4851630000000  0.3991190000000 1.0
C      1  0.5454870000000  0.4902220000000  0.4609230000000 1.0
C      1  0.5094860000000  0.5686240000000  0.3971860000000 1.0
C      1  0.5331030000000  0.5464750000000  0.5527390000000 1.0
C      1  0.6126110000000  0.4714660000000  0.4697270000000 1.0
C      1  0.5966620000000  0.5059240000000  0.5707000000000 1.0
C      1  0.5238290000000  0.4588260000000  0.4829600000000 1.0
C      1  0.6110830000000  0.4580280000000  0.5200670000000 1.0
C      1  0.5044070000000  0.5168970000000  0.6198480000000 1.0
C      1  0.5282060000000  0.4127310000000  0.4156930000000 1.0
C      1  0.4811350000000  0.5320730000000  0.6156970000000 1.0
C      1  0.4666720000000  0.5444330000000  0.4572260000000 1.0
C      1  0.5524290000000  0.5183470000000  0.4670200000000 1.0
C      1  0.4990920000000  0.5807230000000  0.5651070000000 1.0
C      1  0.5232430000000  0.4655600000000  0.4280220000000 1.0
C      1  0.5194240000000  0.4460360000000  0.4493910000000 1.0
C      1  0.4149980000000  0.5643890000000  0.4619560000000 1.0
C      1  0.5492420000000  0.4996160000000  0.4073770000000 1.0
C      1  0.4579150000000  0.5764510000000  0.4517270000000 1.0
C      1  0.5068150000000  0.5962100000000  0.4412750000000 1.0
C      1  0.6040700000000  0.4560270000000  0.4919920000000 1.0
C      1  0.4730500000000  0.5853810000000  0.5475770000000 1.0
C      1  0.5892060000000  0.4825020000000  0.4565720000000 1.0
C      1  0.5019390000000  0.4890580000000  0.6184950000000 1.0
C      1  0.5172150000000  0.4526850000000  0.5312890000000 1.0
C      1  0.4254530000000  0.5264860000000  0.4264390000000 1.0
C      1  0.4982810000000  0.4703840000000  0.5730650000000 1.0
C      1  0.5089700000000  0.6028260000000  0.5247600000000 1.0
C      1  0.5356600000000  0.4217880000000  0.4422240000000 1.0
C      1  0.5808640000000  0.5313230000000  0.5726910000000 1.0
C      1  0.5725420000000  0.4620390000000  0.4343530000000 1.0
C      1  0.5034870000000  0.5004670000000  0.5670010000000 1.0
C      1  0.4831160000000  0.5002010000000  0.4478140000000 1.0
C      1  0.5586760000000  0.5271640000000  0.4083370000000 1.0
C      1  0.5539810000000  0.5744020000000  0.5169600000000 1.0
C      1  0.5096120000000  0.4312120000000  0.4919290000000 1.0
C      1  0.4627660000000  0.3850490000000  0.4975340000000 1.0
C      1  0.4370320000000  0.4416270000000  0.4266590000000 1.0
C      1  0.5914300000000  0.5264750000000  0.5294150000000 1.0
C      1  0.5214250000000  0.5940910000000  0.5503960000000 1.0
C      1  0.4448820000000  0.4223420000000  0.4481300000000 1.0
C      1  0.5428700000000  0.4445620000000  0.5204240000000 1.0
C      1  0.4732980000000  0.4599830000000  0.4699520000000 1.0
C      1  0.5340370000000  0.5392100000000  0.4518500000000 1.0
C      1  0.5300460000000  0.6050830000000  0.4538430000000 1.0
C      1  0.4767280000000  0.4158870000000  0.4439330000000 1.0
C      1  0.4964660000000  0.3945710000000  0.4598140000000 1.0
C      1  0.4888660000000  0.3859560000000  0.4873530000000 1.0
END
