TITL C-951335-1172-227 7.84271546990697e-07 125000 -140.891897580985 0 0 25 (C1) n - 1
REM
REM in /home/bkarasulu/work/CARBON/AIRSS/Generating-Clusters/EDIP-Nigel-Params/with-SteepDescent/Only-C1/SD-CG/HFTN-CG
REM
REM
REM
REM
REM
REM ./C.cell (11c1c37f851c82e70ff6c80c92926a4b)
REM
REM compiler GCC version 9.2.1 20190827 (Red Hat 9.2.1-1)
REM options -cpp -mtune=generic -march=x86-64 -g -O0 -fpre-include=/usr/include/finclude/math-vector-fortran.h
REM seed -982504926 -361179444 -88555659 958099450 -1584718642 450445140 -2002980381 1757783469 299445391 428712673 -46483033 -2091630032 -1670220106 -667750065 383135331 -1277912503 -2028041720 1491632935 -688051739 557740491 -1011173382 1546386175 1325363722 -1322509959 -910720493 -2007599636 -1541790178 -3774343 1258837089 913665321 969407351 919262072 -1498873917
REM
CELL 1.54180   50.00000   50.00000   50.00000   90.00000   90.00000   90.00000
LATT -1
SFAC C  
C      1  0.5583230000000  0.5151220000000  0.5549030000000 1.0
C      1  0.4889780000000  0.5092620000000  0.4385990000000 1.0
C      1  0.4628070000000  0.5101770000000  0.5448840000000 1.0
C      1  0.4981370000000  0.4453630000000  0.5139490000000 1.0
C      1  0.4676380000000  0.5254470000000  0.4455180000000 1.0
C      1  0.5236240000000  0.4606880000000  0.5130950000000 1.0
C      1  0.4735360000000  0.4732320000000  0.5019650000000 1.0
C      1  0.4597670000000  0.4807070000000  0.5369620000000 1.0
C      1  0.5147990000000  0.5167250000000  0.4482840000000 1.0
C      1  0.5384530000000  0.5196940000000  0.5379940000000 1.0
C      1  0.5407400000000  0.5093210000000  0.5104210000000 1.0
C      1  0.5164830000000  0.4902700000000  0.5132990000000 1.0
C      1  0.4465460000000  0.5011630000000  0.5225700000000 1.0
C      1  0.5382890000000  0.5273240000000  0.4894880000000 1.0
C      1  0.5120410000000  0.5075830000000  0.5441470000000 1.0
C      1  0.4879870000000  0.5382500000000  0.5138090000000 1.0
C      1  0.4926170000000  0.4946960000000  0.4945000000000 1.0
C      1  0.4883980000000  0.5248820000000  0.5390510000000 1.0
C      1  0.4683330000000  0.5388730000000  0.4689120000000 1.0
C      1  0.5050110000000  0.4562930000000  0.4683330000000 1.0
C      1  0.5162310000000  0.5314330000000  0.4730290000000 1.0
C      1  0.4996410000000  0.4862770000000  0.4668180000000 1.0
C      1  0.4834650000000  0.4473980000000  0.4877250000000 1.0
C      1  0.5275440000000  0.4517880000000  0.4859260000000 1.0
C      1  0.4906100000000  0.5380320000000  0.4858210000000 1.0
END
