TITL C-950527-2551-27 -5.66689360865065e-06 125000 -817.226179188323 0 0 131 (C1) n - 1
REM
REM in /home/bkarasulu/work/CARBON/AIRSS/Generating-Clusters/EDIP-Nigel-Params/with-SteepDescent/Only-C1/SD-CG/HFTN-CG
REM
REM
REM
REM
REM
REM ./C.cell (11c1c37f851c82e70ff6c80c92926a4b)
REM
REM compiler GCC version 9.2.1 20190827 (Red Hat 9.2.1-1)
REM options -cpp -mtune=generic -march=x86-64 -g -O0 -fpre-include=/usr/include/finclude/math-vector-fortran.h
REM seed 716574907 -1823345872 2066680671 1825244250 -1343088201 -5409635 -1861050710 -280655844 -1583324865 -1590583389 -1523160831 90120781 -1911656432 -1556903380 603554033 445501235 -144377831 651644882 1491983529 1385444607 -1908765022 -696808186 -667656893 -217943783 1251115675 1914953188 -651043418 566892968 432192221 -2140667412 806419963 544920864 -624409232
REM
CELL 1.54180   50.00000   50.00000   50.00000   90.00000   90.00000   90.00000
LATT -1
SFAC C  
C      1  0.5923300000000  0.5291320000000  0.4955020000000 1.0
C      1  0.4131590000000  0.4905800000000  0.4862040000000 1.0
C      1  0.5736290000000  0.5506980000000  0.4942800000000 1.0
C      1  0.5914370000000  0.5164320000000  0.5220170000000 1.0
C      1  0.4248300000000  0.5618450000000  0.4916820000000 1.0
C      1  0.5643480000000  0.5582630000000  0.5409540000000 1.0
C      1  0.4505440000000  0.5756140000000  0.4877390000000 1.0
C      1  0.4769300000000  0.4529940000000  0.4739780000000 1.0
C      1  0.4815580000000  0.4032790000000  0.5250810000000 1.0
C      1  0.4825350000000  0.6065100000000  0.5099460000000 1.0
C      1  0.5387020000000  0.4022310000000  0.4899980000000 1.0
C      1  0.5727470000000  0.5706990000000  0.5150540000000 1.0
C      1  0.5347160000000  0.4992200000000  0.5209600000000 1.0
C      1  0.4678180000000  0.5316780000000  0.4765090000000 1.0
C      1  0.5553800000000  0.4784210000000  0.5646590000000 1.0
C      1  0.5461520000000  0.5257760000000  0.4142130000000 1.0
C      1  0.5584740000000  0.4788020000000  0.5175970000000 1.0
C      1  0.4991080000000  0.5435800000000  0.5973490000000 1.0
C      1  0.5410010000000  0.4326870000000  0.4367970000000 1.0
C      1  0.4037570000000  0.5267080000000  0.5180310000000 1.0
C      1  0.5624920000000  0.5095810000000  0.5625180000000 1.0
C      1  0.4677420000000  0.4608960000000  0.5852850000000 1.0
C      1  0.4697180000000  0.5453820000000  0.4207780000000 1.0
C      1  0.4584260000000  0.5644350000000  0.5850300000000 1.0
C      1  0.5886660000000  0.4872900000000  0.5185840000000 1.0
C      1  0.4399190000000  0.4292990000000  0.5069230000000 1.0
C      1  0.4499010000000  0.5580590000000  0.4402420000000 1.0
C      1  0.4292900000000  0.4416390000000  0.5544160000000 1.0
C      1  0.5349210000000  0.5527590000000  0.4239550000000 1.0
C      1  0.5632400000000  0.4217020000000  0.4508500000000 1.0
C      1  0.4672770000000  0.5147920000000  0.4244280000000 1.0
C      1  0.5686500000000  0.5165520000000  0.4321320000000 1.0
C      1  0.4468950000000  0.4618930000000  0.5638010000000 1.0
C      1  0.4682210000000  0.4868210000000  0.4112270000000 1.0
C      1  0.4029680000000  0.5186960000000  0.4888240000000 1.0
C      1  0.4426890000000  0.5350220000000  0.4577710000000 1.0
C      1  0.5067190000000  0.5297000000000  0.4375590000000 1.0
C      1  0.4745700000000  0.4467760000000  0.5280970000000 1.0
C      1  0.5674760000000  0.5273340000000  0.5369400000000 1.0
C      1  0.4567200000000  0.4320300000000  0.4616930000000 1.0
C      1  0.5820910000000  0.4897040000000  0.4284000000000 1.0
C      1  0.4991500000000  0.4399670000000  0.5458100000000 1.0
C      1  0.4865470000000  0.4456560000000  0.4258230000000 1.0
C      1  0.5043360000000  0.5901400000000  0.5161090000000 1.0
C      1  0.4221400000000  0.5089440000000  0.5354050000000 1.0
C      1  0.5471090000000  0.5405240000000  0.4692200000000 1.0
C      1  0.4792740000000  0.4960220000000  0.5460490000000 1.0
C      1  0.5502500000000  0.4618400000000  0.4927410000000 1.0
C      1  0.6075660000000  0.4765540000000  0.5001010000000 1.0
C      1  0.5242560000000  0.5474550000000  0.5192410000000 1.0
C      1  0.4457310000000  0.4939420000000  0.4958690000000 1.0
C      1  0.4633180000000  0.5179270000000  0.5573640000000 1.0
C      1  0.5320150000000  0.4177850000000  0.5158750000000 1.0
C      1  0.5441800000000  0.4824840000000  0.4638890000000 1.0
C      1  0.5170980000000  0.4075020000000  0.4708980000000 1.0
C      1  0.5207380000000  0.4328240000000  0.4572570000000 1.0
C      1  0.4125660000000  0.4496530000000  0.4679640000000 1.0
C      1  0.4698720000000  0.5780780000000  0.5631610000000 1.0
C      1  0.5496720000000  0.5612160000000  0.4481110000000 1.0
C      1  0.5187210000000  0.4809190000000  0.4222520000000 1.0
C      1  0.5179380000000  0.4929030000000  0.4979150000000 1.0
C      1  0.4319900000000  0.4324090000000  0.4781290000000 1.0
C      1  0.4143030000000  0.5552030000000  0.5183530000000 1.0
C      1  0.5412170000000  0.5825810000000  0.4862480000000 1.0
C      1  0.5874320000000  0.5109470000000  0.4719170000000 1.0
C      1  0.4306860000000  0.5626360000000  0.5412220000000 1.0
C      1  0.5134020000000  0.5321770000000  0.5596080000000 1.0
C      1  0.6043210000000  0.4861280000000  0.4472650000000 1.0
C      1  0.4796540000000  0.4959640000000  0.5959310000000 1.0
C      1  0.5213550000000  0.5109470000000  0.4183460000000 1.0
C      1  0.5335360000000  0.5619060000000  0.5447140000000 1.0
C      1  0.5267680000000  0.4842450000000  0.5741000000000 1.0
C      1  0.4536790000000  0.5793950000000  0.5384820000000 1.0
C      1  0.4416960000000  0.5125310000000  0.4386230000000 1.0
C      1  0.5069160000000  0.5125250000000  0.4805400000000 1.0
C      1  0.4347190000000  0.4850330000000  0.4440330000000 1.0
C      1  0.4176640000000  0.5402570000000  0.4735950000000 1.0
C      1  0.4927520000000  0.4446940000000  0.5755760000000 1.0
C      1  0.4838300000000  0.5030420000000  0.4631770000000 1.0
C      1  0.5641580000000  0.4145980000000  0.4788920000000 1.0
C      1  0.4545190000000  0.5401490000000  0.5968900000000 1.0
C      1  0.5059770000000  0.4677900000000  0.5895200000000 1.0
C      1  0.4574200000000  0.4417230000000  0.4309760000000 1.0
C      1  0.5166170000000  0.5698770000000  0.4979530000000 1.0
C      1  0.4991480000000  0.5821460000000  0.5657080000000 1.0
C      1  0.5236330000000  0.4464970000000  0.5056110000000 1.0
C      1  0.4444900000000  0.5280520000000  0.5359790000000 1.0
C      1  0.4992320000000  0.4521370000000  0.4527100000000 1.0
C      1  0.4216270000000  0.4409030000000  0.5268100000000 1.0
C      1  0.4929670000000  0.4698260000000  0.4098240000000 1.0
C      1  0.5593550000000  0.5133540000000  0.4604900000000 1.0
C      1  0.4900800000000  0.4516540000000  0.5019720000000 1.0
C      1  0.5066860000000  0.4121680000000  0.5353520000000 1.0
C      1  0.5629460000000  0.4707120000000  0.4418270000000 1.0
C      1  0.4603250000000  0.5897360000000  0.5116360000000 1.0
C      1  0.5128730000000  0.4801640000000  0.4518230000000 1.0
C      1  0.5450730000000  0.5864050000000  0.4586840000000 1.0
C      1  0.4124340000000  0.4662040000000  0.5161680000000 1.0
C      1  0.5588830000000  0.5933680000000  0.5055940000000 1.0
C      1  0.4555770000000  0.4040040000000  0.5124580000000 1.0
C      1  0.5521420000000  0.4592040000000  0.5400260000000 1.0
C      1  0.5961270000000  0.4823260000000  0.4752070000000 1.0
C      1  0.5030160000000  0.5157080000000  0.5993370000000 1.0
C      1  0.4950020000000  0.4801590000000  0.5079940000000 1.0
C      1  0.4557270000000  0.3898760000000  0.4869800000000 1.0
C      1  0.4995870000000  0.5363700000000  0.5313140000000 1.0
C      1  0.4685530000000  0.4047780000000  0.4654320000000 1.0
C      1  0.5167340000000  0.5880040000000  0.5426950000000 1.0
C      1  0.5598780000000  0.4308410000000  0.5266790000000 1.0
C      1  0.4578160000000  0.5146400000000  0.5853440000000 1.0
C      1  0.5450950000000  0.5257680000000  0.5169540000000 1.0
C      1  0.4353240000000  0.4836110000000  0.5235930000000 1.0
C      1  0.4124110000000  0.4764330000000  0.4604450000000 1.0
C      1  0.5164710000000  0.5351360000000  0.4665380000000 1.0
C      1  0.5497800000000  0.5241330000000  0.5834620000000 1.0
C      1  0.5438880000000  0.4597560000000  0.4223660000000 1.0
C      1  0.4917210000000  0.4038360000000  0.4822540000000 1.0
C      1  0.5126130000000  0.5630650000000  0.5827120000000 1.0
C      1  0.5693470000000  0.4372360000000  0.4979010000000 1.0
C      1  0.4466330000000  0.4688030000000  0.4230370000000 1.0
C      1  0.5216570000000  0.4580020000000  0.5353970000000 1.0
C      1  0.4599750000000  0.4717070000000  0.5395590000000 1.0
C      1  0.4657320000000  0.4813880000000  0.4751370000000 1.0
C      1  0.5295160000000  0.5066630000000  0.5919470000000 1.0
C      1  0.5150190000000  0.4992480000000  0.5500370000000 1.0
C      1  0.4910880000000  0.5743070000000  0.4538750000000 1.0
C      1  0.4618800000000  0.5778150000000  0.4592650000000 1.0
C      1  0.4847340000000  0.5130970000000  0.5188240000000 1.0
C      1  0.4967050000000  0.5584520000000  0.4279310000000 1.0
C      1  0.4583570000000  0.5212760000000  0.5051490000000 1.0
C      1  0.4973090000000  0.5564300000000  0.4768160000000 1.0
END
