TITL C-950527-2551-96 -5.68989966229876e-06 125000 -598.973090697536 0 0 96 (C1) n - 1
REM
REM in /home/bkarasulu/work/CARBON/AIRSS/Generating-Clusters/EDIP-Nigel-Params/with-SteepDescent/Only-C1/SD-CG/HFTN-CG
REM
REM
REM
REM
REM
REM ./C.cell (11c1c37f851c82e70ff6c80c92926a4b)
REM
REM compiler GCC version 9.2.1 20190827 (Red Hat 9.2.1-1)
REM options -cpp -mtune=generic -march=x86-64 -g -O0 -fpre-include=/usr/include/finclude/math-vector-fortran.h
REM seed 1144702919 1350460902 1491164683 1057319985 -1161309671 1469845181 2047035633 553528788 49208906 433350062 -146886502 789607862 -1829455708 1373679775 -429832076 -938681654 -821537105 363122587 -193107706 696989844 -778116508 271109797 -19493633 -1596752025 -2008153371 999063560 -1497006657 951405901 -1422697844 817112702 -1137730666 -329747817 847397711
REM
CELL 1.54180   50.00000   50.00000   50.00000   90.00000   90.00000   90.00000
LATT -1
SFAC C  
C      1  0.4585460000000  0.5738750000000  0.5361200000000 1.0
C      1  0.4284060000000  0.4549350000000  0.5122390000000 1.0
C      1  0.4811860000000  0.5586480000000  0.5757100000000 1.0
C      1  0.5121820000000  0.4559260000000  0.5011700000000 1.0
C      1  0.4402090000000  0.4422200000000  0.5366850000000 1.0
C      1  0.4328370000000  0.5411740000000  0.4995730000000 1.0
C      1  0.5387170000000  0.5585110000000  0.4529540000000 1.0
C      1  0.4846990000000  0.4576580000000  0.5576930000000 1.0
C      1  0.4859500000000  0.4160960000000  0.4828110000000 1.0
C      1  0.4594980000000  0.5390140000000  0.5692420000000 1.0
C      1  0.4359720000000  0.5305090000000  0.5267630000000 1.0
C      1  0.4772450000000  0.4114190000000  0.5440610000000 1.0
C      1  0.4395800000000  0.4411930000000  0.4873870000000 1.0
C      1  0.5258820000000  0.5270270000000  0.4886260000000 1.0
C      1  0.5643290000000  0.5551140000000  0.5255850000000 1.0
C      1  0.5300820000000  0.4159080000000  0.4643390000000 1.0
C      1  0.5523400000000  0.5607840000000  0.5529080000000 1.0
C      1  0.5610740000000  0.5247280000000  0.5274670000000 1.0
C      1  0.4827090000000  0.4453530000000  0.4377920000000 1.0
C      1  0.4948450000000  0.4299900000000  0.5545640000000 1.0
C      1  0.5611450000000  0.5406830000000  0.5712400000000 1.0
C      1  0.4554660000000  0.5831660000000  0.5096420000000 1.0
C      1  0.4203500000000  0.4961950000000  0.4869750000000 1.0
C      1  0.5219810000000  0.4289050000000  0.5438070000000 1.0
C      1  0.5746500000000  0.5170330000000  0.4538770000000 1.0
C      1  0.4627190000000  0.5596650000000  0.4641020000000 1.0
C      1  0.5200090000000  0.5723890000000  0.5011610000000 1.0
C      1  0.5394190000000  0.5113400000000  0.4208590000000 1.0
C      1  0.4994120000000  0.4727710000000  0.5784520000000 1.0
C      1  0.5607070000000  0.4410730000000  0.5089870000000 1.0
C      1  0.5231740000000  0.5624160000000  0.5530680000000 1.0
C      1  0.4895890000000  0.5027780000000  0.5254120000000 1.0
C      1  0.5347920000000  0.5187060000000  0.5151120000000 1.0
C      1  0.5784580000000  0.4625970000000  0.4954080000000 1.0
C      1  0.5401480000000  0.4507380000000  0.5549640000000 1.0
C      1  0.4755920000000  0.4919120000000  0.4291630000000 1.0
C      1  0.5553760000000  0.5303400000000  0.4362190000000 1.0
C      1  0.4667870000000  0.4328510000000  0.4999610000000 1.0
C      1  0.5119530000000  0.4788010000000  0.4572470000000 1.0
C      1  0.5076810000000  0.5858770000000  0.5448590000000 1.0
C      1  0.4315600000000  0.4837160000000  0.5104230000000 1.0
C      1  0.5204860000000  0.4446530000000  0.4141980000000 1.0
C      1  0.5097430000000  0.5937960000000  0.5174330000000 1.0
C      1  0.5836590000000  0.4807680000000  0.5185380000000 1.0
C      1  0.4656960000000  0.5395520000000  0.4313160000000 1.0
C      1  0.5472930000000  0.4834500000000  0.4310010000000 1.0
C      1  0.5669620000000  0.5106830000000  0.4854620000000 1.0
C      1  0.4538970000000  0.4610040000000  0.5567960000000 1.0
C      1  0.5638840000000  0.4808130000000  0.4770700000000 1.0
C      1  0.4877140000000  0.4262340000000  0.4570460000000 1.0
C      1  0.4689160000000  0.4766650000000  0.4757920000000 1.0
C      1  0.4797970000000  0.5814740000000  0.5554420000000 1.0
C      1  0.4457680000000  0.4907420000000  0.5575580000000 1.0
C      1  0.5519650000000  0.4629650000000  0.5298430000000 1.0
C      1  0.4344050000000  0.5014500000000  0.5327410000000 1.0
C      1  0.4667760000000  0.5091120000000  0.4801390000000 1.0
C      1  0.5118010000000  0.5701980000000  0.4568710000000 1.0
C      1  0.4803580000000  0.4608020000000  0.5022830000000 1.0
C      1  0.4558360000000  0.5115540000000  0.4299360000000 1.0
C      1  0.5493320000000  0.5445790000000  0.4777070000000 1.0
C      1  0.4583150000000  0.4211860000000  0.5264050000000 1.0
C      1  0.4281760000000  0.5045380000000  0.4388730000000 1.0
C      1  0.4718820000000  0.4783020000000  0.5271770000000 1.0
C      1  0.4454500000000  0.5496590000000  0.5459930000000 1.0
C      1  0.5131630000000  0.5057570000000  0.4695090000000 1.0
C      1  0.4895990000000  0.5007830000000  0.5836880000000 1.0
C      1  0.4920220000000  0.5368880000000  0.4204060000000 1.0
C      1  0.5138840000000  0.5894370000000  0.4786610000000 1.0
C      1  0.5427270000000  0.4532910000000  0.4289140000000 1.0
C      1  0.4907780000000  0.5497630000000  0.4665610000000 1.0
C      1  0.4939740000000  0.4411050000000  0.4127250000000 1.0
C      1  0.5285030000000  0.4750590000000  0.5168520000000 1.0
C      1  0.5085550000000  0.5475530000000  0.5735040000000 1.0
C      1  0.5149010000000  0.4119130000000  0.4895250000000 1.0
C      1  0.4351110000000  0.5205210000000  0.4794840000000 1.0
C      1  0.4844710000000  0.4729480000000  0.4488420000000 1.0
C      1  0.4480390000000  0.5644490000000  0.4897270000000 1.0
C      1  0.4224910000000  0.5288360000000  0.4535410000000 1.0
C      1  0.5193100000000  0.4995600000000  0.5300360000000 1.0
C      1  0.5253190000000  0.4303360000000  0.5120490000000 1.0
C      1  0.4813200000000  0.5214830000000  0.5046140000000 1.0
C      1  0.5503680000000  0.5656860000000  0.5006090000000 1.0
C      1  0.5122980000000  0.5183730000000  0.5768980000000 1.0
C      1  0.5135790000000  0.5210030000000  0.4146100000000 1.0
C      1  0.5186420000000  0.4527350000000  0.4707130000000 1.0
C      1  0.5705250000000  0.4870720000000  0.4486520000000 1.0
C      1  0.4443800000000  0.4617260000000  0.4657870000000 1.0
C      1  0.4220930000000  0.4811550000000  0.4608790000000 1.0
C      1  0.5010560000000  0.5442840000000  0.4954320000000 1.0
C      1  0.4641060000000  0.5097600000000  0.5714000000000 1.0
C      1  0.5819540000000  0.5090510000000  0.5119420000000 1.0
C      1  0.5451110000000  0.4400880000000  0.4565360000000 1.0
C      1  0.4881720000000  0.5186560000000  0.4590750000000 1.0
C      1  0.5288810000000  0.4736000000000  0.5721040000000 1.0
C      1  0.5312100000000  0.5021170000000  0.5598440000000 1.0
C      1  0.5580930000000  0.5167990000000  0.5566340000000 1.0
END
