TITL C-951336-9012-649 -2.95437516367087e-06 125000 -856.359230155674 0 0 137 (C1) n - 1
REM
REM in /home/bkarasulu/work/CARBON/AIRSS/Generating-Clusters/EDIP-Nigel-Params/with-SteepDescent/Only-C1/SD-CG/HFTN-CG
REM
REM
REM
REM
REM
REM ./C.cell (11c1c37f851c82e70ff6c80c92926a4b)
REM
REM compiler GCC version 9.2.1 20190827 (Red Hat 9.2.1-1)
REM options -cpp -mtune=generic -march=x86-64 -g -O0 -fpre-include=/usr/include/finclude/math-vector-fortran.h
REM seed 1315980074 1707291091 820900893 -729906745 790411815 -833654040 2072660176 803980332 1780538396 144102874 685529482 964027442 -1535328901 721906487 1080895047 -20439709 1677664342 231573357 -923352984 -1399067537 -718500212 -89707006 1252750276 -1752015637 633940895 1933726611 1235891856 -2102340285 1833119710 -644867804 -755820930 1166964442 -1865148423
REM
CELL 1.54180   50.00000   50.00000   50.00000   90.00000   90.00000   90.00000
LATT -1
SFAC C  
C      1  0.5095700000000  0.4902840000000  0.4973470000000 1.0
C      1  0.5333980000000  0.5120330000000  0.4275770000000 1.0
C      1  0.5855300000000  0.5411860000000  0.5314690000000 1.0
C      1  0.4513480000000  0.4570990000000  0.4959670000000 1.0
C      1  0.4773950000000  0.5437440000000  0.4791750000000 1.0
C      1  0.5137900000000  0.6000960000000  0.5079560000000 1.0
C      1  0.5276900000000  0.4874570000000  0.5191990000000 1.0
C      1  0.5814250000000  0.5128770000000  0.5426620000000 1.0
C      1  0.4825580000000  0.5490070000000  0.5866310000000 1.0
C      1  0.4389150000000  0.4769660000000  0.4549370000000 1.0
C      1  0.5137460000000  0.4454660000000  0.5037300000000 1.0
C      1  0.5431330000000  0.5928410000000  0.5112380000000 1.0
C      1  0.5686680000000  0.4495570000000  0.4369570000000 1.0
C      1  0.5038360000000  0.5191960000000  0.4137740000000 1.0
C      1  0.5046230000000  0.4132040000000  0.5320940000000 1.0
C      1  0.4724320000000  0.4845290000000  0.5627230000000 1.0
C      1  0.4846790000000  0.4878840000000  0.4550720000000 1.0
C      1  0.3960240000000  0.4995530000000  0.4898090000000 1.0
C      1  0.5909780000000  0.4534650000000  0.5809870000000 1.0
C      1  0.4167540000000  0.5208020000000  0.4488490000000 1.0
C      1  0.4965370000000  0.4677840000000  0.6005810000000 1.0
C      1  0.4650190000000  0.4312790000000  0.5088690000000 1.0
C      1  0.5870390000000  0.4949550000000  0.4441130000000 1.0
C      1  0.4699090000000  0.5086140000000  0.5439340000000 1.0
C      1  0.4572060000000  0.5643450000000  0.4331380000000 1.0
C      1  0.5740320000000  0.4352200000000  0.5001310000000 1.0
C      1  0.4301090000000  0.5521280000000  0.5307460000000 1.0
C      1  0.5015770000000  0.5985580000000  0.4819690000000 1.0
C      1  0.5267340000000  0.5790900000000  0.5580430000000 1.0
C      1  0.5559870000000  0.4137680000000  0.5080930000000 1.0
C      1  0.4429250000000  0.4720010000000  0.4257590000000 1.0
C      1  0.4695130000000  0.5182630000000  0.4251710000000 1.0
C      1  0.5137550000000  0.5108190000000  0.5883640000000 1.0
C      1  0.5530150000000  0.4107800000000  0.5359160000000 1.0
C      1  0.5248230000000  0.5434810000000  0.4632250000000 1.0
C      1  0.4960860000000  0.5480710000000  0.4573500000000 1.0
C      1  0.4869150000000  0.5651970000000  0.4349270000000 1.0
C      1  0.5062570000000  0.5385380000000  0.5256120000000 1.0
C      1  0.5540620000000  0.5017640000000  0.4767430000000 1.0
C      1  0.4567880000000  0.5649530000000  0.5348370000000 1.0
C      1  0.5395000000000  0.5630370000000  0.4443500000000 1.0
C      1  0.4640610000000  0.5252440000000  0.5887050000000 1.0
C      1  0.4022130000000  0.5403580000000  0.4655070000000 1.0
C      1  0.3968790000000  0.5276140000000  0.4921580000000 1.0
C      1  0.5201310000000  0.4556380000000  0.5846930000000 1.0
C      1  0.5490990000000  0.5075200000000  0.5087640000000 1.0
C      1  0.4682290000000  0.5837740000000  0.5149760000000 1.0
C      1  0.4597920000000  0.4930050000000  0.4112770000000 1.0
C      1  0.4864330000000  0.4965850000000  0.5902390000000 1.0
C      1  0.5341840000000  0.4974410000000  0.5704420000000 1.0
C      1  0.4938580000000  0.5904390000000  0.5265910000000 1.0
C      1  0.5299840000000  0.4270420000000  0.5417340000000 1.0
C      1  0.4533660000000  0.4433660000000  0.4220100000000 1.0
C      1  0.5094230000000  0.5385000000000  0.5814940000000 1.0
C      1  0.5548450000000  0.5293180000000  0.4193140000000 1.0
C      1  0.4497940000000  0.4636700000000  0.5939330000000 1.0
C      1  0.5662300000000  0.4602230000000  0.5687920000000 1.0
C      1  0.4733580000000  0.4502180000000  0.5972840000000 1.0
C      1  0.5537700000000  0.5432840000000  0.5625000000000 1.0
C      1  0.5942650000000  0.5397310000000  0.5033510000000 1.0
C      1  0.4363710000000  0.4748240000000  0.5730290000000 1.0
C      1  0.4267650000000  0.4446740000000  0.5317640000000 1.0
C      1  0.5636160000000  0.4622610000000  0.5067730000000 1.0
C      1  0.4877910000000  0.4529370000000  0.5210360000000 1.0
C      1  0.5779210000000  0.4973340000000  0.5167610000000 1.0
C      1  0.5371290000000  0.5369910000000  0.5156520000000 1.0
C      1  0.4655980000000  0.5063540000000  0.5126990000000 1.0
C      1  0.5059610000000  0.4021130000000  0.5056360000000 1.0
C      1  0.4984680000000  0.5167070000000  0.5446150000000 1.0
C      1  0.4203620000000  0.5622240000000  0.4717560000000 1.0
C      1  0.5284560000000  0.4291980000000  0.4579580000000 1.0
C      1  0.4696470000000  0.4136340000000  0.4688200000000 1.0
C      1  0.5431330000000  0.4856500000000  0.4203860000000 1.0
C      1  0.5065600000000  0.5410740000000  0.3955520000000 1.0
C      1  0.5306340000000  0.4121910000000  0.4922190000000 1.0
C      1  0.4918730000000  0.4624630000000  0.5514700000000 1.0
C      1  0.5952830000000  0.5107430000000  0.4946340000000 1.0
C      1  0.4765100000000  0.5664590000000  0.5610910000000 1.0
C      1  0.5207560000000  0.6015910000000  0.4617860000000 1.0
C      1  0.5237900000000  0.4284340000000  0.5721780000000 1.0
C      1  0.5085090000000  0.4444280000000  0.4723450000000 1.0
C      1  0.4398440000000  0.4238960000000  0.4373050000000 1.0
C      1  0.4066600000000  0.4816540000000  0.5084910000000 1.0
C      1  0.4377630000000  0.5112220000000  0.4981950000000 1.0
C      1  0.5638310000000  0.5496210000000  0.4360410000000 1.0
C      1  0.5744210000000  0.4515190000000  0.4653660000000 1.0
C      1  0.4993580000000  0.5631930000000  0.4098750000000 1.0
C      1  0.5369150000000  0.4587300000000  0.5201920000000 1.0
C      1  0.5811710000000  0.5119450000000  0.4671850000000 1.0
C      1  0.5317570000000  0.5562870000000  0.5760800000000 1.0
C      1  0.4450930000000  0.4069670000000  0.4576660000000 1.0
C      1  0.4872650000000  0.4008530000000  0.5524430000000 1.0
C      1  0.4812450000000  0.4394930000000  0.5707740000000 1.0
C      1  0.5020390000000  0.5687550000000  0.5439340000000 1.0
C      1  0.4390120000000  0.5060050000000  0.4643560000000 1.0
C      1  0.4620500000000  0.4631770000000  0.4679990000000 1.0
C      1  0.5581440000000  0.5148600000000  0.5626830000000 1.0
C      1  0.5498860000000  0.5817020000000  0.5381150000000 1.0
C      1  0.4466820000000  0.4224080000000  0.5302710000000 1.0
C      1  0.4803120000000  0.4004500000000  0.4918970000000 1.0
C      1  0.5013000000000  0.5028860000000  0.3900650000000 1.0
C      1  0.5807560000000  0.5587840000000  0.4835420000000 1.0
C      1  0.5303940000000  0.5129820000000  0.4588090000000 1.0
C      1  0.4548500000000  0.5948750000000  0.4703160000000 1.0
C      1  0.4199680000000  0.4555730000000  0.5038590000000 1.0
C      1  0.5709910000000  0.4780300000000  0.4273510000000 1.0
C      1  0.4866600000000  0.5276390000000  0.5029550000000 1.0
C      1  0.5019020000000  0.4093710000000  0.5768210000000 1.0
C      1  0.5578290000000  0.4712940000000  0.4792800000000 1.0
C      1  0.5526800000000  0.5745320000000  0.4872410000000 1.0
C      1  0.4350430000000  0.4700620000000  0.5448990000000 1.0
C      1  0.4495640000000  0.5396850000000  0.4190700000000 1.0
C      1  0.4248440000000  0.5339190000000  0.5535180000000 1.0
C      1  0.4754220000000  0.5820010000000  0.4856670000000 1.0
C      1  0.5576830000000  0.5526810000000  0.5350870000000 1.0
C      1  0.4251450000000  0.5394940000000  0.5025440000000 1.0
C      1  0.5433950000000  0.4721300000000  0.5818170000000 1.0
C      1  0.5149380000000  0.4922690000000  0.5464910000000 1.0
C      1  0.4233550000000  0.5318010000000  0.4239630000000 1.0
C      1  0.4425210000000  0.5736850000000  0.4574410000000 1.0
C      1  0.4816870000000  0.4432210000000  0.4307190000000 1.0
C      1  0.5797920000000  0.5411180000000  0.4596670000000 1.0
C      1  0.5394420000000  0.4410660000000  0.4339340000000 1.0
C      1  0.4600240000000  0.4129370000000  0.5542760000000 1.0
C      1  0.5245410000000  0.4649160000000  0.4254960000000 1.0
C      1  0.4808790000000  0.4396110000000  0.4603270000000 1.0
C      1  0.4700570000000  0.4762360000000  0.5094490000000 1.0
C      1  0.4945390000000  0.4698690000000  0.4266660000000 1.0
C      1  0.4844630000000  0.4816650000000  0.4002330000000 1.0
C      1  0.5086580000000  0.4955290000000  0.4700580000000 1.0
C      1  0.5446500000000  0.5870730000000  0.4605230000000 1.0
C      1  0.4097930000000  0.5114960000000  0.5461340000000 1.0
C      1  0.4234050000000  0.4928740000000  0.5296010000000 1.0
C      1  0.5900020000000  0.4758290000000  0.5657940000000 1.0
C      1  0.4678010000000  0.5145650000000  0.4554590000000 1.0
C      1  0.5341370000000  0.5518730000000  0.4902640000000 1.0
C      1  0.4541110000000  0.5285450000000  0.5598480000000 1.0
END
