TITL C-951339-9237-627 4.4873173949904e-07 125000 -610.427485672583 0 0 101 (C1) n - 1
REM
REM in /home/bkarasulu/work/CARBON/AIRSS/Generating-Clusters/EDIP-Nigel-Params/with-SteepDescent/Only-C1/SD-CG/HFTN-CG
REM
REM
REM
REM
REM
REM ./C.cell (11c1c37f851c82e70ff6c80c92926a4b)
REM
REM compiler GCC version 9.2.1 20190827 (Red Hat 9.2.1-1)
REM options -cpp -mtune=generic -march=x86-64 -g -O0 -fpre-include=/usr/include/finclude/math-vector-fortran.h
REM seed 526582391 -1305700868 -1247348578 -168825569 782031376 -1527749169 -275889081 -47639230 -1028411762 1971073186 -586241180 -2001727316 2091514267 261670424 1812746471 1688714975 297250856 343941813 -1977467703 1006343013 -526560679 1012495246 -555509604 -1563146553 1141041162 507365286 992840794 -1491111488 -728777624 721291616 933156420 -786733512 624409791
REM
CELL 1.54180   50.00000   50.00000   50.00000   90.00000   90.00000   90.00000
LATT -1
SFAC C  
C      1  0.4776370000000  0.4946360000000  0.5884040000000 1.0
C      1  0.4364820000000  0.4457680000000  0.5042230000000 1.0
C      1  0.5060650000000  0.5531890000000  0.4300400000000 1.0
C      1  0.5201240000000  0.5962630000000  0.5263470000000 1.0
C      1  0.5220560000000  0.4123550000000  0.5416930000000 1.0
C      1  0.5124600000000  0.5058070000000  0.4184240000000 1.0
C      1  0.4463280000000  0.5422780000000  0.5462100000000 1.0
C      1  0.4228280000000  0.5411610000000  0.4741140000000 1.0
C      1  0.5297900000000  0.4894040000000  0.5778670000000 1.0
C      1  0.5050780000000  0.4906860000000  0.4594470000000 1.0
C      1  0.5582490000000  0.5524530000000  0.4988820000000 1.0
C      1  0.5844970000000  0.5138320000000  0.4908350000000 1.0
C      1  0.4656900000000  0.5648640000000  0.4577800000000 1.0
C      1  0.5776700000000  0.5095270000000  0.4420290000000 1.0
C      1  0.4572630000000  0.4827870000000  0.4083760000000 1.0
C      1  0.5002080000000  0.5136010000000  0.5562370000000 1.0
C      1  0.5361100000000  0.4207710000000  0.4497750000000 1.0
C      1  0.4769450000000  0.4313700000000  0.4549420000000 1.0
C      1  0.4694690000000  0.4242890000000  0.5340310000000 1.0
C      1  0.4797670000000  0.5255300000000  0.5153620000000 1.0
C      1  0.4932140000000  0.5108720000000  0.3974160000000 1.0
C      1  0.4991500000000  0.5980400000000  0.4828000000000 1.0
C      1  0.4155950000000  0.5058130000000  0.5471890000000 1.0
C      1  0.4824690000000  0.5435530000000  0.4470960000000 1.0
C      1  0.5638880000000  0.4750520000000  0.5153130000000 1.0
C      1  0.4707670000000  0.4954190000000  0.4530140000000 1.0
C      1  0.5804210000000  0.5264250000000  0.4642350000000 1.0
C      1  0.4180250000000  0.5169980000000  0.5195660000000 1.0
C      1  0.5116040000000  0.4637420000000  0.4515810000000 1.0
C      1  0.5169730000000  0.5758880000000  0.4422430000000 1.0
C      1  0.4660930000000  0.4574040000000  0.4738600000000 1.0
C      1  0.5298710000000  0.5037110000000  0.4714860000000 1.0
C      1  0.4663080000000  0.5098240000000  0.4080120000000 1.0
C      1  0.5486770000000  0.5336680000000  0.5571120000000 1.0
C      1  0.5229840000000  0.4341200000000  0.5593180000000 1.0
C      1  0.4370340000000  0.4707460000000  0.5708450000000 1.0
C      1  0.4949590000000  0.5808010000000  0.5306400000000 1.0
C      1  0.4867850000000  0.5753700000000  0.4994900000000 1.0
C      1  0.4895150000000  0.4532760000000  0.4348950000000 1.0
C      1  0.5587060000000  0.5461390000000  0.4682980000000 1.0
C      1  0.5017370000000  0.4760980000000  0.5797370000000 1.0
C      1  0.4705280000000  0.5870240000000  0.5455090000000 1.0
C      1  0.4358100000000  0.4545120000000  0.4763150000000 1.0
C      1  0.4395800000000  0.5505500000000  0.4942400000000 1.0
C      1  0.5337610000000  0.4820080000000  0.5036790000000 1.0
C      1  0.5274780000000  0.3978380000000  0.4945540000000 1.0
C      1  0.4606700000000  0.5683570000000  0.4853230000000 1.0
C      1  0.4839670000000  0.5121270000000  0.4913690000000 1.0
C      1  0.5323210000000  0.5187090000000  0.5764340000000 1.0
C      1  0.5822750000000  0.4846000000000  0.4931250000000 1.0
C      1  0.5081570000000  0.4670150000000  0.5070180000000 1.0
C      1  0.5415720000000  0.5761520000000  0.5251450000000 1.0
C      1  0.4735250000000  0.4362150000000  0.5591800000000 1.0
C      1  0.5611990000000  0.4336140000000  0.4952990000000 1.0
C      1  0.4989260000000  0.4491680000000  0.5659020000000 1.0
C      1  0.5673820000000  0.4463440000000  0.5187050000000 1.0
C      1  0.5761180000000  0.4703740000000  0.4685870000000 1.0
C      1  0.5601610000000  0.4616050000000  0.4340540000000 1.0
C      1  0.4664760000000  0.5200600000000  0.4363210000000 1.0
C      1  0.5255740000000  0.5307520000000  0.4283250000000 1.0
C      1  0.4760290000000  0.4217370000000  0.4832700000000 1.0
C      1  0.4429740000000  0.5037110000000  0.5053810000000 1.0
C      1  0.5269490000000  0.5126370000000  0.5017030000000 1.0
C      1  0.5660360000000  0.4895660000000  0.5412740000000 1.0
C      1  0.5332370000000  0.5314300000000  0.4578320000000 1.0
C      1  0.4894560000000  0.5224340000000  0.5828350000000 1.0
C      1  0.5094420000000  0.4393820000000  0.5063140000000 1.0
C      1  0.4415100000000  0.4985050000000  0.4745130000000 1.0
C      1  0.5501810000000  0.4755760000000  0.5621720000000 1.0
C      1  0.4971490000000  0.5323990000000  0.4715380000000 1.0
C      1  0.4709010000000  0.5563840000000  0.5826560000000 1.0
C      1  0.4826520000000  0.4793940000000  0.4958530000000 1.0
C      1  0.4202200000000  0.4758500000000  0.5471060000000 1.0
C      1  0.4980710000000  0.5597510000000  0.5769490000000 1.0
C      1  0.4219080000000  0.5162650000000  0.4628810000000 1.0
C      1  0.5357450000000  0.5591100000000  0.5483850000000 1.0
C      1  0.4643660000000  0.4842480000000  0.5197080000000 1.0
C      1  0.4307350000000  0.5434550000000  0.5213460000000 1.0
C      1  0.5626000000000  0.5181800000000  0.5367730000000 1.0
C      1  0.4570940000000  0.5659560000000  0.5594770000000 1.0
C      1  0.4378240000000  0.5187150000000  0.5627410000000 1.0
C      1  0.5541440000000  0.4540580000000  0.4770930000000 1.0
C      1  0.4508200000000  0.4468080000000  0.5706400000000 1.0
C      1  0.5470050000000  0.4478660000000  0.5612400000000 1.0
C      1  0.4606420000000  0.4291040000000  0.5075580000000 1.0
C      1  0.5061370000000  0.5578680000000  0.5483280000000 1.0
C      1  0.5187970000000  0.5805450000000  0.4696200000000 1.0
C      1  0.4665830000000  0.4733700000000  0.4333780000000 1.0
C      1  0.4980260000000  0.5320940000000  0.5357170000000 1.0
C      1  0.4212600000000  0.4782990000000  0.4707640000000 1.0
C      1  0.4364080000000  0.4711320000000  0.5210090000000 1.0
C      1  0.5391110000000  0.4493700000000  0.4521090000000 1.0
C      1  0.5293430000000  0.5444330000000  0.5076130000000 1.0
C      1  0.4531310000000  0.4945720000000  0.5716730000000 1.0
C      1  0.5159960000000  0.4136550000000  0.5144820000000 1.0
C      1  0.5744750000000  0.5310090000000  0.5127200000000 1.0
C      1  0.5325700000000  0.4015450000000  0.4683340000000 1.0
C      1  0.5667030000000  0.4881730000000  0.4299470000000 1.0
C      1  0.5032390000000  0.4553670000000  0.4086880000000 1.0
C      1  0.5158680000000  0.4801510000000  0.4030100000000 1.0
C      1  0.5096910000000  0.5553440000000  0.4871210000000 1.0
END
