TITL C-951340-9809-538 1.01075018779515e-06 125000 -568.96852055012 0 0 93 (C1) n - 1
REM
REM in /home/bkarasulu/work/CARBON/AIRSS/Generating-Clusters/EDIP-Nigel-Params/with-SteepDescent/Only-C1/SD-CG/HFTN-CG
REM
REM
REM
REM
REM
REM ./C.cell (11c1c37f851c82e70ff6c80c92926a4b)
REM
REM compiler GCC version 9.2.1 20190827 (Red Hat 9.2.1-1)
REM options -cpp -mtune=generic -march=x86-64 -g -O0 -fpre-include=/usr/include/finclude/math-vector-fortran.h
REM seed -1955955274 563585772 1331978708 2034613391 1806805076 -146393185 -266666979 1697984283 860814662 438962268 -1433638125 -1645837638 -1076926677 1347381508 2071497513 1727543456 100878593 1573258347 -1872607329 1922691282 763277602 323913061 1396001766 184584805 217352431 -271400250 1538679501 2019756853 -1484814105 2048026960 412204853 -1272077419 688143486
REM
CELL 1.54180   50.00000   50.00000   50.00000   90.00000   90.00000   90.00000
LATT -1
SFAC C  
C      1  0.5631860000000  0.5051330000000  0.4853970000000 1.0
C      1  0.4511650000000  0.4631100000000  0.5773340000000 1.0
C      1  0.5324090000000  0.4252200000000  0.4580250000000 1.0
C      1  0.4741380000000  0.5480920000000  0.5481990000000 1.0
C      1  0.4671560000000  0.4675580000000  0.4970430000000 1.0
C      1  0.5285680000000  0.5745360000000  0.4406560000000 1.0
C      1  0.5175090000000  0.4040670000000  0.4943770000000 1.0
C      1  0.5134910000000  0.5393160000000  0.4455500000000 1.0
C      1  0.4920160000000  0.4246010000000  0.5301880000000 1.0
C      1  0.4896440000000  0.5700740000000  0.5390540000000 1.0
C      1  0.5427460000000  0.5284810000000  0.5644170000000 1.0
C      1  0.4694280000000  0.4298550000000  0.4536470000000 1.0
C      1  0.4381200000000  0.5046370000000  0.5692850000000 1.0
C      1  0.5635520000000  0.4916020000000  0.4441420000000 1.0
C      1  0.4307400000000  0.4816560000000  0.5844150000000 1.0
C      1  0.5416550000000  0.4120650000000  0.4816520000000 1.0
C      1  0.5211950000000  0.4884010000000  0.4220360000000 1.0
C      1  0.5577350000000  0.5486620000000  0.4654130000000 1.0
C      1  0.4783620000000  0.4787830000000  0.4717740000000 1.0
C      1  0.4722480000000  0.5641450000000  0.4395790000000 1.0
C      1  0.5372640000000  0.4300960000000  0.5152150000000 1.0
C      1  0.5443370000000  0.5042590000000  0.4280890000000 1.0
C      1  0.4840780000000  0.5286540000000  0.5670670000000 1.0
C      1  0.4772250000000  0.4769620000000  0.5777730000000 1.0
C      1  0.4468120000000  0.5721820000000  0.5188430000000 1.0
C      1  0.5576600000000  0.4691200000000  0.4605670000000 1.0
C      1  0.5465590000000  0.4585050000000  0.5104510000000 1.0
C      1  0.4736370000000  0.5577710000000  0.4879210000000 1.0
C      1  0.5282160000000  0.5758690000000  0.4911160000000 1.0
C      1  0.4977750000000  0.4452330000000  0.4310220000000 1.0
C      1  0.4849140000000  0.5270700000000  0.4874240000000 1.0
C      1  0.5089660000000  0.4661630000000  0.4766130000000 1.0
C      1  0.5454770000000  0.4480110000000  0.4431090000000 1.0
C      1  0.4242900000000  0.5034250000000  0.5431580000000 1.0
C      1  0.4387870000000  0.5275750000000  0.4537710000000 1.0
C      1  0.4520920000000  0.4421840000000  0.4920480000000 1.0
C      1  0.4831710000000  0.4522330000000  0.5388220000000 1.0
C      1  0.5514650000000  0.5559840000000  0.4378540000000 1.0
C      1  0.5364320000000  0.4864700000000  0.5848740000000 1.0
C      1  0.5233250000000  0.5871680000000  0.5159980000000 1.0
C      1  0.4441820000000  0.4781180000000  0.4379920000000 1.0
C      1  0.5172430000000  0.5748980000000  0.5396150000000 1.0
C      1  0.4463050000000  0.5496280000000  0.5385850000000 1.0
C      1  0.4262980000000  0.4715820000000  0.4608630000000 1.0
C      1  0.5059520000000  0.4389550000000  0.4614970000000 1.0
C      1  0.4960070000000  0.4222200000000  0.5009580000000 1.0
C      1  0.5359550000000  0.5382490000000  0.5125190000000 1.0
C      1  0.5769560000000  0.4968600000000  0.5089180000000 1.0
C      1  0.5559280000000  0.5310780000000  0.5363520000000 1.0
C      1  0.4234050000000  0.5366340000000  0.4990570000000 1.0
C      1  0.5197560000000  0.4228940000000  0.5398990000000 1.0
C      1  0.4718910000000  0.4224620000000  0.4835950000000 1.0
C      1  0.4749120000000  0.5807400000000  0.5170660000000 1.0
C      1  0.4924400000000  0.4649270000000  0.5125420000000 1.0
C      1  0.5284850000000  0.4971660000000  0.5372040000000 1.0
C      1  0.4257910000000  0.4919130000000  0.4817480000000 1.0
C      1  0.4918420000000  0.5152750000000  0.5160680000000 1.0
C      1  0.4679140000000  0.5027750000000  0.5617570000000 1.0
C      1  0.5758300000000  0.4940110000000  0.5572900000000 1.0
C      1  0.4332810000000  0.4751010000000  0.5315010000000 1.0
C      1  0.5100900000000  0.4916160000000  0.5127990000000 1.0
C      1  0.5134620000000  0.5299800000000  0.5712150000000 1.0
C      1  0.5231520000000  0.4599100000000  0.4262880000000 1.0
C      1  0.4695630000000  0.5020010000000  0.5301740000000 1.0
C      1  0.5389160000000  0.4736830000000  0.4849170000000 1.0
C      1  0.5000960000000  0.4616080000000  0.5632110000000 1.0
C      1  0.4221560000000  0.5193180000000  0.4754160000000 1.0
C      1  0.4503050000000  0.4882840000000  0.5106430000000 1.0
C      1  0.5769950000000  0.5310510000000  0.4801830000000 1.0
C      1  0.5553050000000  0.5686250000000  0.4870410000000 1.0
C      1  0.4524250000000  0.5076450000000  0.4369250000000 1.0
C      1  0.5765370000000  0.5096750000000  0.5335060000000 1.0
C      1  0.5175920000000  0.4866910000000  0.5631120000000 1.0
C      1  0.4767880000000  0.5168610000000  0.4218580000000 1.0
C      1  0.4877240000000  0.5421880000000  0.4313450000000 1.0
C      1  0.5329460000000  0.5153530000000  0.4917160000000 1.0
C      1  0.5433380000000  0.5323740000000  0.4221670000000 1.0
C      1  0.5110040000000  0.5244140000000  0.4721150000000 1.0
C      1  0.5720450000000  0.5510620000000  0.5068230000000 1.0
C      1  0.4331630000000  0.5265320000000  0.5254790000000 1.0
C      1  0.5473440000000  0.4545690000000  0.5574050000000 1.0
C      1  0.5132120000000  0.5783650000000  0.4654340000000 1.0
C      1  0.5121930000000  0.5323000000000  0.5328340000000 1.0
C      1  0.4677730000000  0.4624500000000  0.4484070000000 1.0
C      1  0.5232980000000  0.4410830000000  0.5628160000000 1.0
C      1  0.4968600000000  0.4991330000000  0.4139250000000 1.0
C      1  0.4645590000000  0.5075760000000  0.4742420000000 1.0
C      1  0.4329540000000  0.4465680000000  0.4719440000000 1.0
C      1  0.5561640000000  0.5047200000000  0.5761230000000 1.0
C      1  0.4517180000000  0.4562600000000  0.5480050000000 1.0
C      1  0.4376590000000  0.5612890000000  0.4929740000000 1.0
C      1  0.4840200000000  0.5721820000000  0.4639780000000 1.0
C      1  0.5507220000000  0.4742270000000  0.5360360000000 1.0
END
