TITL C-950522-5749-230 -4.46815865712823e-07 125000 -210.392410990327 0 0 35 (C1) n - 1
REM
REM in /home/bkarasulu/work/CARBON/AIRSS/Generating-Clusters/EDIP-Nigel-Params/with-SteepDescent/Only-C1/SD-CG/HFTN-CG
REM
REM
REM
REM
REM
REM ./C.cell (11c1c37f851c82e70ff6c80c92926a4b)
REM
REM compiler GCC version 9.2.1 20190827 (Red Hat 9.2.1-1)
REM options -cpp -mtune=generic -march=x86-64 -g -O0 -fpre-include=/usr/include/finclude/math-vector-fortran.h
REM seed 1734013240 -798233189 -2019976068 1948105418 1354973135 1284152231 375132040 300145254 -1761290902 933652142 965141913 -1699691366 -1361898082 -1619919196 1285483185 -1304130903 -1063080426 -2032368085 309889417 -1998129425 -90147499 -188660812 -523089395 313707776 1245095312 1215306153 1285600780 655728760 1662066370 2107370198 1034121612 408371399 1725331308
REM
CELL 1.54180   50.00000   50.00000   50.00000   90.00000   90.00000   90.00000
LATT -1
SFAC C  
C      1  0.4684340000000  0.4838450000000  0.5486470000000 1.0
C      1  0.5328670000000  0.4807510000000  0.4661060000000 1.0
C      1  0.4879410000000  0.5027880000000  0.5616710000000 1.0
C      1  0.4886980000000  0.4880400000000  0.4685070000000 1.0
C      1  0.4938130000000  0.4600800000000  0.4616640000000 1.0
C      1  0.5125250000000  0.5383650000000  0.5405720000000 1.0
C      1  0.5345320000000  0.4666090000000  0.5151600000000 1.0
C      1  0.4842790000000  0.5296870000000  0.5480800000000 1.0
C      1  0.4936980000000  0.5448240000000  0.4828310000000 1.0
C      1  0.4652660000000  0.4536210000000  0.4950890000000 1.0
C      1  0.4890570000000  0.4634660000000  0.5103870000000 1.0
C      1  0.5466450000000  0.5141000000000  0.5027480000000 1.0
C      1  0.5215700000000  0.4556220000000  0.4597510000000 1.0
C      1  0.4741560000000  0.4423260000000  0.4707630000000 1.0
C      1  0.5288490000000  0.5466700000000  0.4675540000000 1.0
C      1  0.4548920000000  0.5207780000000  0.4651550000000 1.0
C      1  0.4556150000000  0.4971590000000  0.5247170000000 1.0
C      1  0.4675050000000  0.5241990000000  0.5229900000000 1.0
C      1  0.5064220000000  0.5029720000000  0.4502990000000 1.0
C      1  0.4853970000000  0.4614810000000  0.5401520000000 1.0
C      1  0.4595480000000  0.4937630000000  0.4691700000000 1.0
C      1  0.5176040000000  0.4656590000000  0.5442010000000 1.0
C      1  0.4993350000000  0.4929840000000  0.4969310000000 1.0
C      1  0.5357610000000  0.5409890000000  0.4954490000000 1.0
C      1  0.5156480000000  0.5523600000000  0.5144960000000 1.0
C      1  0.5164310000000  0.4935010000000  0.5568730000000 1.0
C      1  0.5304070000000  0.5154860000000  0.5439440000000 1.0
C      1  0.5299670000000  0.4892740000000  0.4950460000000 1.0
C      1  0.4755500000000  0.5390910000000  0.4597140000000 1.0
C      1  0.4501780000000  0.4794820000000  0.4934060000000 1.0
C      1  0.5547840000000  0.5133460000000  0.5298670000000 1.0
C      1  0.4974630000000  0.5292360000000  0.4416950000000 1.0
C      1  0.5192590000000  0.5473800000000  0.4410640000000 1.0
C      1  0.5141680000000  0.4470360000000  0.5098910000000 1.0
C      1  0.4917360000000  0.5230330000000  0.5054100000000 1.0
END
