TITL C-950533-5798-118 6.51414527691753e-07 125000 -861.026634151143 0 0 137 (C1) n - 1
REM
REM in /home/bkarasulu/work/CARBON/AIRSS/Generating-Clusters/EDIP-Nigel-Params/with-SteepDescent/Only-C1/SD-CG/HFTN-CG
REM
REM
REM
REM
REM
REM ./C.cell (11c1c37f851c82e70ff6c80c92926a4b)
REM
REM compiler GCC version 9.2.1 20190827 (Red Hat 9.2.1-1)
REM options -cpp -mtune=generic -march=x86-64 -g -O0 -fpre-include=/usr/include/finclude/math-vector-fortran.h
REM seed 1833312886 1054747566 2035950083 -378485822 1241296096 1962710180 -229188515 -1066762788 1378465712 -785074624 1653982903 -739395811 -463161564 -879872670 -2120878265 2050073530 -1155716572 1406578742 763453526 -528474753 523999346 1003712265 1077394499 -1684462284 365128838 1393256568 -999480098 1813635065 -1754765618 -988879136 -310950278 -1773267771 262050461
REM
CELL 1.54180   50.00000   50.00000   50.00000   90.00000   90.00000   90.00000
LATT -1
SFAC C  
C      1  0.4373090000000  0.5305940000000  0.4675400000000 1.0
C      1  0.5329760000000  0.4299500000000  0.4396950000000 1.0
C      1  0.4760690000000  0.5930430000000  0.4476580000000 1.0
C      1  0.5926100000000  0.5372820000000  0.4645560000000 1.0
C      1  0.5125760000000  0.5223840000000  0.3971970000000 1.0
C      1  0.4613400000000  0.4304310000000  0.4514450000000 1.0
C      1  0.4998030000000  0.5791010000000  0.4416800000000 1.0
C      1  0.5001430000000  0.4454770000000  0.5903690000000 1.0
C      1  0.4174600000000  0.4435570000000  0.5026700000000 1.0
C      1  0.5076290000000  0.4938020000000  0.5075520000000 1.0
C      1  0.4606500000000  0.4608450000000  0.4028830000000 1.0
C      1  0.5775200000000  0.4808600000000  0.5455130000000 1.0
C      1  0.5694530000000  0.4582550000000  0.4496420000000 1.0
C      1  0.4904400000000  0.4729510000000  0.5957540000000 1.0
C      1  0.5951870000000  0.5110460000000  0.5082840000000 1.0
C      1  0.3992900000000  0.5185260000000  0.4947130000000 1.0
C      1  0.5265390000000  0.4978590000000  0.3996490000000 1.0
C      1  0.5305450000000  0.4773860000000  0.5223080000000 1.0
C      1  0.5001150000000  0.5620270000000  0.4183810000000 1.0
C      1  0.5318620000000  0.4535620000000  0.4223750000000 1.0
C      1  0.4967090000000  0.5464350000000  0.4904890000000 1.0
C      1  0.5299560000000  0.5812920000000  0.5057060000000 1.0
C      1  0.5506370000000  0.4391980000000  0.4610970000000 1.0
C      1  0.4425680000000  0.4341330000000  0.5163230000000 1.0
C      1  0.4748910000000  0.4129780000000  0.5385040000000 1.0
C      1  0.5472170000000  0.5635240000000  0.5495740000000 1.0
C      1  0.5250950000000  0.5821410000000  0.4564130000000 1.0
C      1  0.5219330000000  0.5734190000000  0.5626450000000 1.0
C      1  0.5116710000000  0.4926740000000  0.6007990000000 1.0
C      1  0.4817260000000  0.4268300000000  0.4319950000000 1.0
C      1  0.5301760000000  0.4913030000000  0.4590380000000 1.0
C      1  0.4609690000000  0.5748780000000  0.5096190000000 1.0
C      1  0.4571570000000  0.5726600000000  0.4524700000000 1.0
C      1  0.5118250000000  0.5131040000000  0.4627720000000 1.0
C      1  0.4837960000000  0.5951890000000  0.5084750000000 1.0
C      1  0.4749360000000  0.5313370000000  0.5948960000000 1.0
C      1  0.5374550000000  0.4472590000000  0.4877190000000 1.0
C      1  0.4250740000000  0.4880960000000  0.5573070000000 1.0
C      1  0.5584160000000  0.4676100000000  0.4217260000000 1.0
C      1  0.4358270000000  0.5139480000000  0.5669730000000 1.0
C      1  0.5081590000000  0.4596370000000  0.4889270000000 1.0
C      1  0.5451760000000  0.5434800000000  0.4313090000000 1.0
C      1  0.5906010000000  0.4831020000000  0.5190390000000 1.0
C      1  0.4481540000000  0.5653220000000  0.4814950000000 1.0
C      1  0.4951190000000  0.4898150000000  0.4209890000000 1.0
C      1  0.5137900000000  0.5215880000000  0.5261200000000 1.0
C      1  0.5814850000000  0.5295060000000  0.5495010000000 1.0
C      1  0.5776980000000  0.5047240000000  0.5623220000000 1.0
C      1  0.4158250000000  0.5666040000000  0.5205400000000 1.0
C      1  0.5190510000000  0.4576580000000  0.5417130000000 1.0
C      1  0.5598310000000  0.5182050000000  0.4305560000000 1.0
C      1  0.4895790000000  0.4475610000000  0.5105010000000 1.0
C      1  0.4678320000000  0.4838140000000  0.5773720000000 1.0
C      1  0.5047440000000  0.4173590000000  0.5301010000000 1.0
C      1  0.5579670000000  0.4322680000000  0.5438000000000 1.0
C      1  0.5126990000000  0.5268420000000  0.5724020000000 1.0
C      1  0.4441530000000  0.4428820000000  0.5596570000000 1.0
C      1  0.5876430000000  0.5347100000000  0.5230030000000 1.0
C      1  0.5412130000000  0.5562060000000  0.4586470000000 1.0
C      1  0.5687980000000  0.5503470000000  0.4780980000000 1.0
C      1  0.4569450000000  0.5099220000000  0.5861230000000 1.0
C      1  0.4719860000000  0.4356040000000  0.5573820000000 1.0
C      1  0.4897780000000  0.4593540000000  0.5410980000000 1.0
C      1  0.5522380000000  0.4960110000000  0.4125380000000 1.0
C      1  0.5808560000000  0.4956080000000  0.4699100000000 1.0
C      1  0.5529210000000  0.5716850000000  0.5213990000000 1.0
C      1  0.4217490000000  0.4527150000000  0.4717340000000 1.0
C      1  0.5444880000000  0.5296540000000  0.5300240000000 1.0
C      1  0.4730140000000  0.4968120000000  0.4400320000000 1.0
C      1  0.4477380000000  0.4779710000000  0.5131560000000 1.0
C      1  0.5680170000000  0.4561110000000  0.5591300000000 1.0
C      1  0.4740950000000  0.4822210000000  0.4657650000000 1.0
C      1  0.4461630000000  0.4814050000000  0.4821210000000 1.0
C      1  0.5011260000000  0.5201700000000  0.6068530000000 1.0
C      1  0.5277690000000  0.4385820000000  0.5810870000000 1.0
C      1  0.5444540000000  0.4118560000000  0.5012820000000 1.0
C      1  0.4402270000000  0.4645860000000  0.4239590000000 1.0
C      1  0.4945610000000  0.4573460000000  0.4610460000000 1.0
C      1  0.5058670000000  0.4217190000000  0.4490950000000 1.0
C      1  0.5901170000000  0.4323450000000  0.5068680000000 1.0
C      1  0.4742360000000  0.5567940000000  0.5772540000000 1.0
C      1  0.5384050000000  0.4866960000000  0.5880080000000 1.0
C      1  0.3957450000000  0.4941250000000  0.4818780000000 1.0
C      1  0.5884890000000  0.4601410000000  0.4988330000000 1.0
C      1  0.6073950000000  0.5195360000000  0.4834570000000 1.0
C      1  0.4573340000000  0.5500790000000  0.4331140000000 1.0
C      1  0.5230830000000  0.5363560000000  0.4772620000000 1.0
C      1  0.5729630000000  0.5555880000000  0.5079180000000 1.0
C      1  0.4471210000000  0.5021610000000  0.4290930000000 1.0
C      1  0.5516670000000  0.4709900000000  0.5017230000000 1.0
C      1  0.4275470000000  0.5404310000000  0.5595440000000 1.0
C      1  0.4980300000000  0.5492010000000  0.5198090000000 1.0
C      1  0.4425310000000  0.4682480000000  0.5707610000000 1.0
C      1  0.5563140000000  0.5086460000000  0.5817160000000 1.0
C      1  0.4512720000000  0.4080530000000  0.5234540000000 1.0
C      1  0.4491260000000  0.5611170000000  0.5573750000000 1.0
C      1  0.5910600000000  0.4676180000000  0.4687530000000 1.0
C      1  0.5419260000000  0.5304280000000  0.5686920000000 1.0
C      1  0.4809550000000  0.4267280000000  0.5833520000000 1.0
C      1  0.5058130000000  0.5814410000000  0.5222840000000 1.0
C      1  0.5457970000000  0.5238970000000  0.4955420000000 1.0
C      1  0.5216390000000  0.5964020000000  0.4817350000000 1.0
C      1  0.4714450000000  0.5283490000000  0.4861290000000 1.0
C      1  0.5211420000000  0.5431660000000  0.4150850000000 1.0
C      1  0.5014060000000  0.5531540000000  0.5662470000000 1.0
C      1  0.5518730000000  0.4954410000000  0.4818730000000 1.0
C      1  0.4102200000000  0.5388530000000  0.4771470000000 1.0
C      1  0.4700240000000  0.4242770000000  0.4781500000000 1.0
C      1  0.4671360000000  0.4969720000000  0.5232600000000 1.0
C      1  0.4403090000000  0.5800140000000  0.5322350000000 1.0
C      1  0.5641170000000  0.4273790000000  0.5160760000000 1.0
C      1  0.5153610000000  0.4126690000000  0.5025970000000 1.0
C      1  0.4769830000000  0.4846750000000  0.3973820000000 1.0
C      1  0.4171390000000  0.4823280000000  0.4686970000000 1.0
C      1  0.5489470000000  0.4598140000000  0.5827940000000 1.0
C      1  0.4570350000000  0.5232730000000  0.5130380000000 1.0
C      1  0.4901170000000  0.5034610000000  0.4806370000000 1.0
C      1  0.5290560000000  0.4310310000000  0.5513750000000 1.0
C      1  0.4832820000000  0.5227210000000  0.3954600000000 1.0
C      1  0.5139550000000  0.4716110000000  0.4402810000000 1.0
C      1  0.4688630000000  0.5475520000000  0.5269900000000 1.0
C      1  0.4951340000000  0.6066440000000  0.4853320000000 1.0
C      1  0.4385540000000  0.5284710000000  0.4381980000000 1.0
C      1  0.5843440000000  0.5148470000000  0.4457420000000 1.0
C      1  0.4213370000000  0.4862140000000  0.5269580000000 1.0
C      1  0.5044230000000  0.5086800000000  0.5507520000000 1.0
C      1  0.4119520000000  0.5401810000000  0.5347990000000 1.0
C      1  0.4191160000000  0.5172840000000  0.5164150000000 1.0
C      1  0.4041070000000  0.4642030000000  0.5175360000000 1.0
C      1  0.5110800000000  0.5945010000000  0.5482200000000 1.0
C      1  0.4187300000000  0.5641150000000  0.4898340000000 1.0
C      1  0.4772080000000  0.4384330000000  0.4070970000000 1.0
C      1  0.4374910000000  0.4454010000000  0.4462560000000 1.0
C      1  0.4755720000000  0.5482690000000  0.4097720000000 1.0
C      1  0.4816850000000  0.4888320000000  0.5484810000000 1.0
C      1  0.4987450000000  0.4174010000000  0.4783140000000 1.0
C      1  0.4624930000000  0.4448590000000  0.4981830000000 1.0
END
