TITL C-950530-3293-55 -2.56604017901926e-06 125000 -1049.31552915703 0 0 165 (C1) n - 1
REM
REM in /home/bkarasulu/work/CARBON/AIRSS/Generating-Clusters/EDIP-Nigel-Params/with-SteepDescent/Only-C1/SD-CG/HFTN-CG
REM
REM
REM
REM
REM
REM ./C.cell (11c1c37f851c82e70ff6c80c92926a4b)
REM
REM compiler GCC version 9.2.1 20190827 (Red Hat 9.2.1-1)
REM options -cpp -mtune=generic -march=x86-64 -g -O0 -fpre-include=/usr/include/finclude/math-vector-fortran.h
REM seed 1406827725 1921253739 -1912569046 1199577474 2119814951 -397895567 -1095380788 14045346 794565402 105484838 -2136885185 1519066053 -1567414019 144990632 884312383 -512992055 784976366 1708982763 -1502173619 -413116617 1198557090 323619712 1950845429 -1220535628 -1912397326 -1153195994 -1977853378 -3648913 1972167063 112315033 427727220 2101645108 -1703855204
REM
CELL 1.54180   50.00000   50.00000   50.00000   90.00000   90.00000   90.00000
LATT -1
SFAC C  
C      1  0.5867930000000  0.4771710000000  0.5492200000000 1.0
C      1  0.4857980000000  0.4956980000000  0.4447100000000 1.0
C      1  0.4418680000000  0.4955860000000  0.4986730000000 1.0
C      1  0.4229830000000  0.4077300000000  0.5272180000000 1.0
C      1  0.4822580000000  0.5938680000000  0.4607120000000 1.0
C      1  0.5770290000000  0.5587820000000  0.5558830000000 1.0
C      1  0.5793140000000  0.4870780000000  0.5774510000000 1.0
C      1  0.4968460000000  0.4225210000000  0.5111570000000 1.0
C      1  0.4361420000000  0.5318380000000  0.5238820000000 1.0
C      1  0.4830400000000  0.4107380000000  0.4421460000000 1.0
C      1  0.4890470000000  0.5315710000000  0.5169590000000 1.0
C      1  0.5419430000000  0.4183320000000  0.4451850000000 1.0
C      1  0.5061740000000  0.5883620000000  0.5545890000000 1.0
C      1  0.4237950000000  0.5038620000000  0.4065670000000 1.0
C      1  0.5525230000000  0.4738730000000  0.5826030000000 1.0
C      1  0.4544250000000  0.4536240000000  0.5734100000000 1.0
C      1  0.4364880000000  0.5455050000000  0.4215310000000 1.0
C      1  0.5130620000000  0.4808890000000  0.4447670000000 1.0
C      1  0.4606100000000  0.4676190000000  0.5991370000000 1.0
C      1  0.5318880000000  0.5163110000000  0.4002650000000 1.0
C      1  0.4543810000000  0.4115850000000  0.4875400000000 1.0
C      1  0.5865180000000  0.5304680000000  0.5534960000000 1.0
C      1  0.5858040000000  0.4602900000000  0.4477780000000 1.0
C      1  0.5213460000000  0.5198070000000  0.4428480000000 1.0
C      1  0.5414430000000  0.4384440000000  0.4260880000000 1.0
C      1  0.4776040000000  0.5392560000000  0.5422040000000 1.0
C      1  0.5613750000000  0.4796100000000  0.4074620000000 1.0
C      1  0.6037270000000  0.5154660000000  0.5212940000000 1.0
C      1  0.5854630000000  0.5734990000000  0.5341680000000 1.0
C      1  0.5804980000000  0.5329440000000  0.4525890000000 1.0
C      1  0.4365410000000  0.5176460000000  0.5706520000000 1.0
C      1  0.4886320000000  0.5206940000000  0.4277390000000 1.0
C      1  0.5324480000000  0.4970150000000  0.5824660000000 1.0
C      1  0.5873690000000  0.4712260000000  0.5013220000000 1.0
C      1  0.4983690000000  0.5517010000000  0.4721680000000 1.0
C      1  0.4124050000000  0.4882760000000  0.5001250000000 1.0
C      1  0.5071380000000  0.4637970000000  0.4715390000000 1.0
C      1  0.4513730000000  0.6111280000000  0.4969740000000 1.0
C      1  0.4114300000000  0.4825960000000  0.4529350000000 1.0
C      1  0.4078020000000  0.5306080000000  0.4777180000000 1.0
C      1  0.5615560000000  0.4900740000000  0.5367990000000 1.0
C      1  0.4033150000000  0.4956760000000  0.5449360000000 1.0
C      1  0.4909250000000  0.5672460000000  0.4476500000000 1.0
C      1  0.4988760000000  0.4876620000000  0.5847730000000 1.0
C      1  0.5488960000000  0.5216260000000  0.5909720000000 1.0
C      1  0.4980730000000  0.6056300000000  0.4857420000000 1.0
C      1  0.5338150000000  0.5819970000000  0.4262430000000 1.0
C      1  0.4714090000000  0.5455510000000  0.4373490000000 1.0
C      1  0.4547310000000  0.4968330000000  0.5971930000000 1.0
C      1  0.4765200000000  0.4355940000000  0.5289290000000 1.0
C      1  0.5587980000000  0.5425000000000  0.4368250000000 1.0
C      1  0.4611100000000  0.5950470000000  0.5752880000000 1.0
C      1  0.4250090000000  0.5634080000000  0.5615140000000 1.0
C      1  0.5149620000000  0.4012080000000  0.5217560000000 1.0
C      1  0.4056930000000  0.4699540000000  0.4781050000000 1.0
C      1  0.5311670000000  0.5446350000000  0.5126480000000 1.0
C      1  0.6109050000000  0.5008460000000  0.4738690000000 1.0
C      1  0.4910940000000  0.4801670000000  0.5539820000000 1.0
C      1  0.5262460000000  0.5190960000000  0.4957660000000 1.0
C      1  0.5305350000000  0.5066340000000  0.5529810000000 1.0
C      1  0.5519660000000  0.4269390000000  0.5171690000000 1.0
C      1  0.4491360000000  0.5384680000000  0.4917360000000 1.0
C      1  0.5682190000000  0.5766740000000  0.5124900000000 1.0
C      1  0.4199520000000  0.5230990000000  0.4261520000000 1.0
C      1  0.4528080000000  0.5128740000000  0.4780490000000 1.0
C      1  0.4837930000000  0.5372600000000  0.5940230000000 1.0
C      1  0.5931240000000  0.4352320000000  0.4569770000000 1.0
C      1  0.5562270000000  0.5275810000000  0.4120400000000 1.0
C      1  0.5763370000000  0.3994060000000  0.4855270000000 1.0
C      1  0.4132370000000  0.5129180000000  0.4527850000000 1.0
C      1  0.4818880000000  0.5055110000000  0.4723930000000 1.0
C      1  0.4901160000000  0.4316190000000  0.4231290000000 1.0
C      1  0.5022680000000  0.4299650000000  0.5685580000000 1.0
C      1  0.4446060000000  0.4260670000000  0.5651720000000 1.0
C      1  0.4896280000000  0.4855230000000  0.4942180000000 1.0
C      1  0.4458760000000  0.5721520000000  0.5816250000000 1.0
C      1  0.5494660000000  0.4078450000000  0.4933130000000 1.0
C      1  0.5117130000000  0.4715540000000  0.4021040000000 1.0
C      1  0.3983340000000  0.5150120000000  0.5009220000000 1.0
C      1  0.4224170000000  0.4288770000000  0.5456170000000 1.0
C      1  0.4391050000000  0.5675220000000  0.4381740000000 1.0
C      1  0.4859460000000  0.4838920000000  0.3952300000000 1.0
C      1  0.4642140000000  0.4128020000000  0.5450220000000 1.0
C      1  0.5642270000000  0.5018610000000  0.4670660000000 1.0
C      1  0.5365430000000  0.5477030000000  0.5846840000000 1.0
C      1  0.5086300000000  0.5715020000000  0.4232540000000 1.0
C      1  0.4666230000000  0.5672400000000  0.5360140000000 1.0
C      1  0.4345040000000  0.4785130000000  0.4100710000000 1.0
C      1  0.5404610000000  0.4536920000000  0.5077800000000 1.0
C      1  0.5883480000000  0.4826320000000  0.4708030000000 1.0
C      1  0.5673090000000  0.5198120000000  0.5322540000000 1.0
C      1  0.5489170000000  0.5002200000000  0.4916670000000 1.0
C      1  0.5796240000000  0.4308520000000  0.5272260000000 1.0
C      1  0.4916810000000  0.4505070000000  0.5495980000000 1.0
C      1  0.4227380000000  0.4917090000000  0.5665900000000 1.0
C      1  0.5044930000000  0.5053340000000  0.5124260000000 1.0
C      1  0.4985460000000  0.4388920000000  0.5955720000000 1.0
C      1  0.5146230000000  0.4471650000000  0.4177390000000 1.0
C      1  0.4851690000000  0.5126360000000  0.3904240000000 1.0
C      1  0.5084840000000  0.5300540000000  0.3900120000000 1.0
C      1  0.5259420000000  0.5961760000000  0.4931700000000 1.0
C      1  0.5839880000000  0.5394370000000  0.4799820000000 1.0
C      1  0.4632000000000  0.4803450000000  0.5112360000000 1.0
C      1  0.4068430000000  0.4738250000000  0.5253730000000 1.0
C      1  0.4204320000000  0.5760020000000  0.5124640000000 1.0
C      1  0.4802500000000  0.5089640000000  0.5933620000000 1.0
C      1  0.4422270000000  0.4726810000000  0.5550430000000 1.0
C      1  0.5047390000000  0.5555820000000  0.4007290000000 1.0
C      1  0.4062510000000  0.5229280000000  0.5304360000000 1.0
C      1  0.4572380000000  0.5902110000000  0.4765060000000 1.0
C      1  0.5087690000000  0.5249690000000  0.4704540000000 1.0
C      1  0.4902430000000  0.4644670000000  0.6030480000000 1.0
C      1  0.5580710000000  0.4780190000000  0.5095820000000 1.0
C      1  0.5317330000000  0.5812270000000  0.5454030000000 1.0
C      1  0.5116720000000  0.4922900000000  0.5375380000000 1.0
C      1  0.5776300000000  0.4486460000000  0.5507890000000 1.0
C      1  0.4360280000000  0.5616510000000  0.5337210000000 1.0
C      1  0.5914510000000  0.4231250000000  0.4816990000000 1.0
C      1  0.4146600000000  0.5370660000000  0.5657090000000 1.0
C      1  0.4370250000000  0.5720940000000  0.4659000000000 1.0
C      1  0.4436220000000  0.4405260000000  0.4878960000000 1.0
C      1  0.4532240000000  0.4522300000000  0.5143460000000 1.0
C      1  0.6037210000000  0.4857520000000  0.5235300000000 1.0
C      1  0.5511840000000  0.4506420000000  0.5640870000000 1.0
C      1  0.5759320000000  0.5671880000000  0.4858400000000 1.0
C      1  0.4293160000000  0.4557330000000  0.5339420000000 1.0
C      1  0.5466530000000  0.5572560000000  0.5579120000000 1.0
C      1  0.5445890000000  0.4978090000000  0.4427350000000 1.0
C      1  0.4604240000000  0.5523530000000  0.5951890000000 1.0
C      1  0.4781450000000  0.5869610000000  0.5548360000000 1.0
C      1  0.5376720000000  0.5757740000000  0.5156260000000 1.0
C      1  0.5722080000000  0.5043920000000  0.4165460000000 1.0
C      1  0.5302820000000  0.3871730000000  0.5018630000000 1.0
C      1  0.4294220000000  0.6023650000000  0.5116100000000 1.0
C      1  0.4789450000000  0.6137950000000  0.5070640000000 1.0
C      1  0.5361270000000  0.4232460000000  0.4719010000000 1.0
C      1  0.4451870000000  0.4405070000000  0.4407480000000 1.0
C      1  0.5090830000000  0.5483530000000  0.5902680000000 1.0
C      1  0.4859300000000  0.4408630000000  0.4656430000000 1.0
C      1  0.4623980000000  0.4705050000000  0.4062220000000 1.0
C      1  0.5350620000000  0.4877120000000  0.3963390000000 1.0
C      1  0.4844500000000  0.4170100000000  0.4857350000000 1.0
C      1  0.5320930000000  0.4505220000000  0.4804160000000 1.0
C      1  0.6044470000000  0.5222420000000  0.4919000000000 1.0
C      1  0.5576610000000  0.5795590000000  0.4670080000000 1.0
C      1  0.4876300000000  0.4046540000000  0.5620840000000 1.0
C      1  0.4750960000000  0.5760010000000  0.5084480000000 1.0
C      1  0.4481970000000  0.4005760000000  0.5173400000000 1.0
C      1  0.5939990000000  0.4415640000000  0.5042660000000 1.0
C      1  0.4152290000000  0.4439080000000  0.4827180000000 1.0
C      1  0.4229710000000  0.4637650000000  0.4325590000000 1.0
C      1  0.5543440000000  0.5703520000000  0.4402990000000 1.0
C      1  0.5366720000000  0.4124770000000  0.5386090000000 1.0
C      1  0.5314970000000  0.4285850000000  0.5623030000000 1.0
C      1  0.4650300000000  0.4448560000000  0.4187560000000 1.0
C      1  0.5616890000000  0.4597940000000  0.4290690000000 1.0
C      1  0.4551850000000  0.5192600000000  0.5454230000000 1.0
C      1  0.4181150000000  0.5604310000000  0.4852440000000 1.0
C      1  0.5412020000000  0.5340300000000  0.5388290000000 1.0
C      1  0.4784430000000  0.5495890000000  0.4952060000000 1.0
C      1  0.5452740000000  0.6033970000000  0.4740430000000 1.0
C      1  0.5769800000000  0.5164180000000  0.5796640000000 1.0
C      1  0.4550920000000  0.4105520000000  0.4531860000000 1.0
C      1  0.4584410000000  0.4526880000000  0.4653240000000 1.0
C      1  0.4641220000000  0.4894190000000  0.5411910000000 1.0
END
