TITL C-951334-9093-278 -1.66158996966824e-06 125000 -672.969192907711 0 0 109 (C1) n - 1
REM
REM in /home/bkarasulu/work/CARBON/AIRSS/Generating-Clusters/EDIP-Nigel-Params/with-SteepDescent/Only-C1/SD-CG/HFTN-CG
REM
REM
REM
REM
REM
REM ./C.cell (11c1c37f851c82e70ff6c80c92926a4b)
REM
REM compiler GCC version 9.2.1 20190827 (Red Hat 9.2.1-1)
REM options -cpp -mtune=generic -march=x86-64 -g -O0 -fpre-include=/usr/include/finclude/math-vector-fortran.h
REM seed 1308660290 -291856504 852708354 -295970752 -740580951 -723693009 1772773924 1145235718 -1080622448 -277343068 1253666214 587022790 390608947 -1676796108 1717004636 943282224 772609169 556107129 658413682 588796072 665300504 -1521593559 396965241 1133363406 2056185326 1411705703 -1345528517 2045535933 334890327 671751002 -1201581873 81547037 -658646375
REM
CELL 1.54180   50.00000   50.00000   50.00000   90.00000   90.00000   90.00000
LATT -1
SFAC C  
C      1  0.5068440000000  0.4289460000000  0.5307360000000 1.0
C      1  0.4953330000000  0.5685690000000  0.5634700000000 1.0
C      1  0.5449250000000  0.4312530000000  0.4613050000000 1.0
C      1  0.4123040000000  0.4667850000000  0.5132610000000 1.0
C      1  0.4962720000000  0.4890130000000  0.5909180000000 1.0
C      1  0.5459720000000  0.4487470000000  0.4386040000000 1.0
C      1  0.4542060000000  0.5594000000000  0.5411310000000 1.0
C      1  0.5009210000000  0.4378640000000  0.5737540000000 1.0
C      1  0.5383430000000  0.5192860000000  0.5934180000000 1.0
C      1  0.5050460000000  0.5344200000000  0.4198150000000 1.0
C      1  0.4231840000000  0.5524310000000  0.5054660000000 1.0
C      1  0.4889070000000  0.4657690000000  0.5719780000000 1.0
C      1  0.5777040000000  0.4739470000000  0.5364740000000 1.0
C      1  0.5097380000000  0.5033660000000  0.5517890000000 1.0
C      1  0.4762870000000  0.4664770000000  0.5158330000000 1.0
C      1  0.5010230000000  0.4151130000000  0.4744320000000 1.0
C      1  0.4963190000000  0.5034820000000  0.4876130000000 1.0
C      1  0.4728140000000  0.4252800000000  0.4841970000000 1.0
C      1  0.4423330000000  0.5278750000000  0.4631100000000 1.0
C      1  0.4751520000000  0.5364710000000  0.4257060000000 1.0
C      1  0.5734070000000  0.4831970000000  0.4614630000000 1.0
C      1  0.4712250000000  0.5416940000000  0.5004090000000 1.0
C      1  0.5750470000000  0.4513480000000  0.4920130000000 1.0
C      1  0.5519770000000  0.4763640000000  0.4436670000000 1.0
C      1  0.5690900000000  0.5435460000000  0.5521640000000 1.0
C      1  0.5421510000000  0.4973310000000  0.5546530000000 1.0
C      1  0.5560860000000  0.5206740000000  0.5681110000000 1.0
C      1  0.5161550000000  0.5063470000000  0.4173340000000 1.0
C      1  0.4957960000000  0.4856920000000  0.4072360000000 1.0
C      1  0.5307040000000  0.4433130000000  0.5654300000000 1.0
C      1  0.4263090000000  0.4476720000000  0.4984670000000 1.0
C      1  0.5273250000000  0.4488180000000  0.4177300000000 1.0
C      1  0.4991450000000  0.4866420000000  0.4611760000000 1.0
C      1  0.5310560000000  0.4980540000000  0.4420990000000 1.0
C      1  0.4054960000000  0.5012160000000  0.4801780000000 1.0
C      1  0.5501230000000  0.5647470000000  0.4763660000000 1.0
C      1  0.5547450000000  0.4900580000000  0.5298290000000 1.0
C      1  0.4776640000000  0.4540080000000  0.4886260000000 1.0
C      1  0.5006960000000  0.4568180000000  0.4138330000000 1.0
C      1  0.4522090000000  0.4297450000000  0.4613980000000 1.0
C      1  0.4864450000000  0.5822900000000  0.4396240000000 1.0
C      1  0.5074050000000  0.5471230000000  0.5265360000000 1.0
C      1  0.4600720000000  0.4692780000000  0.5635520000000 1.0
C      1  0.4563420000000  0.4560030000000  0.5371230000000 1.0
C      1  0.5235110000000  0.4666880000000  0.5014050000000 1.0
C      1  0.5187240000000  0.5449150000000  0.4981170000000 1.0
C      1  0.5290500000000  0.4231590000000  0.4836890000000 1.0
C      1  0.5205290000000  0.5409950000000  0.5952340000000 1.0
C      1  0.4612000000000  0.5195160000000  0.4065360000000 1.0
C      1  0.4709410000000  0.4923690000000  0.4462070000000 1.0
C      1  0.5384660000000  0.5206050000000  0.5017840000000 1.0
C      1  0.4908380000000  0.5204150000000  0.5339490000000 1.0
C      1  0.4757830000000  0.5464810000000  0.5577170000000 1.0
C      1  0.4529580000000  0.5777280000000  0.4694680000000 1.0
C      1  0.4808470000000  0.5123730000000  0.5753560000000 1.0
C      1  0.5344180000000  0.4194980000000  0.5346010000000 1.0
C      1  0.5686730000000  0.5529090000000  0.4972450000000 1.0
C      1  0.5314300000000  0.5499470000000  0.5462960000000 1.0
C      1  0.4454720000000  0.5058460000000  0.5067980000000 1.0
C      1  0.5262130000000  0.4906460000000  0.5955320000000 1.0
C      1  0.5631480000000  0.5154800000000  0.5195790000000 1.0
C      1  0.4257850000000  0.5032960000000  0.4602180000000 1.0
C      1  0.4812290000000  0.5843920000000  0.4676820000000 1.0
C      1  0.5031830000000  0.4295990000000  0.4489820000000 1.0
C      1  0.5416060000000  0.4717030000000  0.5737720000000 1.0
C      1  0.5209810000000  0.5549820000000  0.4336870000000 1.0
C      1  0.5296130000000  0.5811640000000  0.4887440000000 1.0
C      1  0.4588360000000  0.4328070000000  0.4338380000000 1.0
C      1  0.4264710000000  0.5501810000000  0.5357950000000 1.0
C      1  0.4881380000000  0.5852170000000  0.5155690000000 1.0
C      1  0.5210360000000  0.5589560000000  0.5735990000000 1.0
C      1  0.5485030000000  0.5202150000000  0.4526690000000 1.0
C      1  0.4369340000000  0.4531000000000  0.4709670000000 1.0
C      1  0.4687830000000  0.4935710000000  0.4156760000000 1.0
C      1  0.5128250000000  0.5813500000000  0.4303340000000 1.0
C      1  0.5978720000000  0.4803620000000  0.5171530000000 1.0
C      1  0.4309480000000  0.5095460000000  0.5643650000000 1.0
C      1  0.4842110000000  0.4441260000000  0.4342830000000 1.0
C      1  0.4446450000000  0.4805310000000  0.4583710000000 1.0
C      1  0.4443210000000  0.5318710000000  0.4931370000000 1.0
C      1  0.5403400000000  0.5474230000000  0.4538690000000 1.0
C      1  0.5718350000000  0.5112800000000  0.4667670000000 1.0
C      1  0.5847700000000  0.5268710000000  0.4887640000000 1.0
C      1  0.4563140000000  0.4984610000000  0.5645000000000 1.0
C      1  0.5602920000000  0.4480940000000  0.5410540000000 1.0
C      1  0.4704150000000  0.5227530000000  0.4531140000000 1.0
C      1  0.4935470000000  0.5334890000000  0.4820990000000 1.0
C      1  0.4883140000000  0.4203960000000  0.5519940000000 1.0
C      1  0.5045150000000  0.4746360000000  0.5492950000000 1.0
C      1  0.4412190000000  0.5763860000000  0.4969480000000 1.0
C      1  0.5900540000000  0.4639780000000  0.4731000000000 1.0
C      1  0.5218830000000  0.4971270000000  0.5007960000000 1.0
C      1  0.5008970000000  0.5847190000000  0.4895630000000 1.0
C      1  0.5519090000000  0.4505700000000  0.5093660000000 1.0
C      1  0.5631750000000  0.5583300000000  0.5270050000000 1.0
C      1  0.5032250000000  0.5832540000000  0.5396320000000 1.0
C      1  0.5927770000000  0.5083580000000  0.5126990000000 1.0
C      1  0.4175880000000  0.5282520000000  0.5507710000000 1.0
C      1  0.4198620000000  0.4914910000000  0.5024630000000 1.0
C      1  0.4748350000000  0.4976310000000  0.5117840000000 1.0
C      1  0.4412750000000  0.5683820000000  0.4450740000000 1.0
C      1  0.5040900000000  0.4587630000000  0.4746640000000 1.0
C      1  0.5427820000000  0.4133400000000  0.5071790000000 1.0
C      1  0.5040620000000  0.4587310000000  0.5246020000000 1.0
C      1  0.4597220000000  0.4259990000000  0.5390430000000 1.0
C      1  0.4598050000000  0.4127030000000  0.5091390000000 1.0
C      1  0.4646720000000  0.5676050000000  0.5145660000000 1.0
C      1  0.4646850000000  0.5653780000000  0.4283920000000 1.0
C      1  0.4327210000000  0.4225980000000  0.5113770000000 1.0
END
