TITL C-950528-5794-169 -1.89315872215385e-07 125000 -444.721966560315 0 0 72 (C1) n - 1
REM
REM in /home/bkarasulu/work/CARBON/AIRSS/Generating-Clusters/EDIP-Nigel-Params/with-SteepDescent/Only-C1/SD-CG/HFTN-CG
REM
REM
REM
REM
REM
REM ./C.cell (11c1c37f851c82e70ff6c80c92926a4b)
REM
REM compiler GCC version 9.2.1 20190827 (Red Hat 9.2.1-1)
REM options -cpp -mtune=generic -march=x86-64 -g -O0 -fpre-include=/usr/include/finclude/math-vector-fortran.h
REM seed 1880486694 698661101 1681612129 1524494771 -309563972 -1246514569 383298865 1665183693 -371063940 -1324230570 -545243060 -625911384 510156300 1712392153 -1579253413 1565186443 -535050505 -969082291 436806892 -417259103 -1563398403 438820424 1614264089 -1960226016 -1388613996 2054037945 -606982704 182657139 414090730 793465492 -2138019545 -1375603231 503284993
REM
CELL 1.54180   50.00000   50.00000   50.00000   90.00000   90.00000   90.00000
LATT -1
SFAC C  
C      1  0.4578720000000  0.4869290000000  0.4188860000000 1.0
C      1  0.4501060000000  0.5425420000000  0.5233840000000 1.0
C      1  0.4349880000000  0.5177020000000  0.5273880000000 1.0
C      1  0.5054960000000  0.4598850000000  0.4714200000000 1.0
C      1  0.4969000000000  0.4347690000000  0.5625780000000 1.0
C      1  0.5421130000000  0.4408420000000  0.5024380000000 1.0
C      1  0.4730060000000  0.4747230000000  0.5137620000000 1.0
C      1  0.5533720000000  0.4666240000000  0.5427140000000 1.0
C      1  0.5057480000000  0.5667890000000  0.5110610000000 1.0
C      1  0.4689440000000  0.5452950000000  0.5439870000000 1.0
C      1  0.4626150000000  0.4656540000000  0.5735620000000 1.0
C      1  0.5129550000000  0.5315220000000  0.4497480000000 1.0
C      1  0.4869170000000  0.5667630000000  0.4643050000000 1.0
C      1  0.4674350000000  0.4371090000000  0.5635720000000 1.0
C      1  0.5279260000000  0.5604690000000  0.4485670000000 1.0
C      1  0.5352640000000  0.5133300000000  0.4410650000000 1.0
C      1  0.4481620000000  0.4860060000000  0.4453760000000 1.0
C      1  0.4487900000000  0.5062100000000  0.5500010000000 1.0
C      1  0.5304310000000  0.4867090000000  0.5826320000000 1.0
C      1  0.5598330000000  0.5412440000000  0.5106760000000 1.0
C      1  0.5381790000000  0.4418700000000  0.5325410000000 1.0
C      1  0.4478280000000  0.4497760000000  0.4874520000000 1.0
C      1  0.4896580000000  0.5512420000000  0.4897470000000 1.0
C      1  0.5443720000000  0.5527110000000  0.4893290000000 1.0
C      1  0.5603800000000  0.5232680000000  0.4524410000000 1.0
C      1  0.5404410000000  0.4893460000000  0.5565830000000 1.0
C      1  0.4950310000000  0.4364270000000  0.5120270000000 1.0
C      1  0.4933730000000  0.4537790000000  0.4448600000000 1.0
C      1  0.4590410000000  0.5438310000000  0.4946350000000 1.0
C      1  0.4557500000000  0.5157200000000  0.4836190000000 1.0
C      1  0.4348710000000  0.4704510000000  0.5065180000000 1.0
C      1  0.5442510000000  0.5394180000000  0.5358720000000 1.0
C      1  0.4770580000000  0.5072670000000  0.5248120000000 1.0
C      1  0.5140950000000  0.4377580000000  0.4900640000000 1.0
C      1  0.4844290000000  0.4963920000000  0.4219900000000 1.0
C      1  0.4422090000000  0.4788610000000  0.5568510000000 1.0
C      1  0.4445610000000  0.5141310000000  0.4558430000000 1.0
C      1  0.4389210000000  0.5007320000000  0.5035250000000 1.0
C      1  0.5269860000000  0.5145610000000  0.5032890000000 1.0
C      1  0.5491190000000  0.5152870000000  0.5499420000000 1.0
C      1  0.4364250000000  0.4604720000000  0.5344050000000 1.0
C      1  0.5252450000000  0.4806090000000  0.4683270000000 1.0
C      1  0.4520470000000  0.4356690000000  0.5362840000000 1.0
C      1  0.5325530000000  0.4865980000000  0.4955840000000 1.0
C      1  0.5046600000000  0.4753010000000  0.4274830000000 1.0
C      1  0.5094900000000  0.4362410000000  0.5371090000000 1.0
C      1  0.4995440000000  0.5208350000000  0.5715120000000 1.0
C      1  0.5285610000000  0.5762610000000  0.4945710000000 1.0
C      1  0.5692520000000  0.4758840000000  0.4709960000000 1.0
C      1  0.4945000000000  0.5426410000000  0.5547020000000 1.0
C      1  0.4877650000000  0.5246850000000  0.4317960000000 1.0
C      1  0.5559830000000  0.4682860000000  0.4982600000000 1.0
C      1  0.4653420000000  0.4327350000000  0.5086260000000 1.0
C      1  0.5205200000000  0.5830460000000  0.4669520000000 1.0
C      1  0.4429610000000  0.5609740000000  0.4770660000000 1.0
C      1  0.4920750000000  0.4729040000000  0.5644940000000 1.0
C      1  0.4598410000000  0.5353940000000  0.4391790000000 1.0
C      1  0.5726360000000  0.5062600000000  0.4744680000000 1.0
C      1  0.5534000000000  0.4674680000000  0.4471300000000 1.0
C      1  0.4621590000000  0.4641710000000  0.4632480000000 1.0
C      1  0.4985080000000  0.4790290000000  0.5347080000000 1.0
C      1  0.5534530000000  0.5510070000000  0.4616820000000 1.0
C      1  0.4831200000000  0.5055520000000  0.4812660000000 1.0
C      1  0.5342510000000  0.4851500000000  0.4309640000000 1.0
C      1  0.5114330000000  0.5101940000000  0.5307610000000 1.0
C      1  0.5051110000000  0.5254790000000  0.4811400000000 1.0
C      1  0.5659950000000  0.5147740000000  0.5019020000000 1.0
C      1  0.5153320000000  0.5499450000000  0.5345680000000 1.0
C      1  0.4601260000000  0.5618370000000  0.4540430000000 1.0
C      1  0.4829010000000  0.4767340000000  0.4843390000000 1.0
C      1  0.5714940000000  0.4751480000000  0.5222960000000 1.0
C      1  0.5038910000000  0.4947720000000  0.5810750000000 1.0
END
