TITL C-951337-3020-453 4.93251434804472e-07 125000 -244.280865698958 0 0 41 (C1) n - 1
REM
REM in /home/bkarasulu/work/CARBON/AIRSS/Generating-Clusters/EDIP-Nigel-Params/with-SteepDescent/Only-C1/SD-CG/HFTN-CG
REM
REM
REM
REM
REM
REM ./C.cell (11c1c37f851c82e70ff6c80c92926a4b)
REM
REM compiler GCC version 9.2.1 20190827 (Red Hat 9.2.1-1)
REM options -cpp -mtune=generic -march=x86-64 -g -O0 -fpre-include=/usr/include/finclude/math-vector-fortran.h
REM seed -1691048318 662087946 1282052466 131152197 179882624 969435436 -943565264 2038691017 652709664 599491930 -1938810232 1917910037 1218406913 -242999428 680419144 353281345 -547430243 -798674098 1637719739 -220123657 -1408365613 913850645 514869187 143544197 1733884740 970070594 1666898484 -170392584 -799062133 1704647391 1063161628 -1154532164 -742013085
REM
CELL 1.54180   50.00000   50.00000   50.00000   90.00000   90.00000   90.00000
LATT -1
SFAC C  
C      1  0.5098010000000  0.5535130000000  0.5508540000000 1.0
C      1  0.5408520000000  0.5269200000000  0.4766730000000 1.0
C      1  0.4379420000000  0.5288230000000  0.5139730000000 1.0
C      1  0.4490410000000  0.5357260000000  0.4870740000000 1.0
C      1  0.5385620000000  0.5176980000000  0.5054120000000 1.0
C      1  0.4907830000000  0.4888780000000  0.5000850000000 1.0
C      1  0.5099880000000  0.4614410000000  0.4544990000000 1.0
C      1  0.5183340000000  0.5568840000000  0.4789800000000 1.0
C      1  0.4868410000000  0.5435710000000  0.5373050000000 1.0
C      1  0.5477130000000  0.5378960000000  0.5238780000000 1.0
C      1  0.4465080000000  0.5045200000000  0.4796420000000 1.0
C      1  0.5438640000000  0.4670050000000  0.4931640000000 1.0
C      1  0.5313760000000  0.4548490000000  0.5168520000000 1.0
C      1  0.4823280000000  0.4648410000000  0.5158860000000 1.0
C      1  0.4356110000000  0.4995310000000  0.5083170000000 1.0
C      1  0.5099950000000  0.5088830000000  0.5134160000000 1.0
C      1  0.5125540000000  0.4347310000000  0.5125650000000 1.0
C      1  0.4653410000000  0.4719570000000  0.5398430000000 1.0
C      1  0.5100570000000  0.4867770000000  0.4409200000000 1.0
C      1  0.4598480000000  0.4999740000000  0.5288210000000 1.0
C      1  0.5589330000000  0.5043360000000  0.4687500000000 1.0
C      1  0.4958860000000  0.5356880000000  0.5098530000000 1.0
C      1  0.4870360000000  0.4448010000000  0.4535620000000 1.0
C      1  0.4738560000000  0.4900570000000  0.4748640000000 1.0
C      1  0.5471910000000  0.4851930000000  0.4500730000000 1.0
C      1  0.4798200000000  0.4745810000000  0.5639890000000 1.0
C      1  0.5376310000000  0.4612470000000  0.4646970000000 1.0
C      1  0.5616290000000  0.4896590000000  0.4946180000000 1.0
C      1  0.5284880000000  0.5576470000000  0.5297220000000 1.0
C      1  0.4683120000000  0.4596010000000  0.4693240000000 1.0
C      1  0.4930080000000  0.4997330000000  0.5603420000000 1.0
C      1  0.4903390000000  0.5036850000000  0.4530010000000 1.0
C      1  0.4667700000000  0.4469840000000  0.4962070000000 1.0
C      1  0.5278350000000  0.4716770000000  0.5391190000000 1.0
C      1  0.4880260000000  0.4280800000000  0.5018270000000 1.0
C      1  0.4926920000000  0.5531010000000  0.4654790000000 1.0
C      1  0.4786750000000  0.5332950000000  0.4838120000000 1.0
C      1  0.5162420000000  0.5676480000000  0.5054780000000 1.0
C      1  0.5155450000000  0.4971610000000  0.5411180000000 1.0
C      1  0.4734050000000  0.5198830000000  0.5493680000000 1.0
C      1  0.4913430000000  0.5315250000000  0.4466420000000 1.0
END
