TITL C-950522-5749-549 -6.56850612850043e-06 125000 -929.357543471996 0 0 151 (C1) n - 1
REM
REM in /home/bkarasulu/work/CARBON/AIRSS/Generating-Clusters/EDIP-Nigel-Params/with-SteepDescent/Only-C1/SD-CG/HFTN-CG
REM
REM
REM
REM
REM
REM ./C.cell (11c1c37f851c82e70ff6c80c92926a4b)
REM
REM compiler GCC version 9.2.1 20190827 (Red Hat 9.2.1-1)
REM options -cpp -mtune=generic -march=x86-64 -g -O0 -fpre-include=/usr/include/finclude/math-vector-fortran.h
REM seed -616696270 -1309322713 -815122975 -1002650707 -792509906 -1252546379 -1314237365 -1434038069 2002571872 -662429602 251148814 217740423 -1794167785 -795452832 262994898 -694628118 -1946595537 882640478 1562007941 -846089856 456669803 -996904926 -967452826 -1735413236 1237792591 -1150253950 1770176204 1254362148 -1472620638 1382976928 1802221332 -1862922344 -2076157830
REM
CELL 1.54180   50.00000   50.00000   50.00000   90.00000   90.00000   90.00000
LATT -1
SFAC C  
C      1  0.4961700000000  0.5648970000000  0.5027310000000 1.0
C      1  0.5287860000000  0.4974780000000  0.4899770000000 1.0
C      1  0.4817640000000  0.5056430000000  0.4487890000000 1.0
C      1  0.5016110000000  0.5424990000000  0.5833860000000 1.0
C      1  0.4674200000000  0.5436410000000  0.4089960000000 1.0
C      1  0.4135800000000  0.5108970000000  0.4352600000000 1.0
C      1  0.4543790000000  0.5103170000000  0.5484350000000 1.0
C      1  0.4508070000000  0.4188310000000  0.5230670000000 1.0
C      1  0.5099440000000  0.4497300000000  0.4357340000000 1.0
C      1  0.5585270000000  0.4540720000000  0.5050250000000 1.0
C      1  0.5415500000000  0.5075710000000  0.5324540000000 1.0
C      1  0.6007760000000  0.5058220000000  0.5061930000000 1.0
C      1  0.5268770000000  0.4253700000000  0.5708250000000 1.0
C      1  0.5601360000000  0.4254450000000  0.4960920000000 1.0
C      1  0.5704880000000  0.5020770000000  0.5169450000000 1.0
C      1  0.5275780000000  0.5496170000000  0.5725910000000 1.0
C      1  0.5179950000000  0.5451900000000  0.4153250000000 1.0
C      1  0.5060870000000  0.4140180000000  0.4833270000000 1.0
C      1  0.4476770000000  0.5263710000000  0.5020770000000 1.0
C      1  0.5415710000000  0.5221440000000  0.4555230000000 1.0
C      1  0.4354830000000  0.5691850000000  0.4797830000000 1.0
C      1  0.4004570000000  0.5109940000000  0.5577860000000 1.0
C      1  0.4859640000000  0.5718490000000  0.5440470000000 1.0
C      1  0.5482300000000  0.5368300000000  0.4104260000000 1.0
C      1  0.5716980000000  0.5767850000000  0.5130990000000 1.0
C      1  0.4306480000000  0.5514900000000  0.5039530000000 1.0
C      1  0.4889540000000  0.5124480000000  0.5011880000000 1.0
C      1  0.4514780000000  0.5205520000000  0.4059810000000 1.0
C      1  0.4224400000000  0.5630060000000  0.5402960000000 1.0
C      1  0.4798240000000  0.5717860000000  0.4771380000000 1.0
C      1  0.5771440000000  0.4723650000000  0.5601660000000 1.0
C      1  0.4735290000000  0.4877300000000  0.5581510000000 1.0
C      1  0.4961800000000  0.4661850000000  0.5825520000000 1.0
C      1  0.4568510000000  0.5861680000000  0.4897750000000 1.0
C      1  0.5593300000000  0.5102950000000  0.4130560000000 1.0
C      1  0.4988990000000  0.4175910000000  0.5335330000000 1.0
C      1  0.5701460000000  0.4895150000000  0.4299340000000 1.0
C      1  0.4046690000000  0.4594900000000  0.5308070000000 1.0
C      1  0.4947060000000  0.4449880000000  0.5429400000000 1.0
C      1  0.4542770000000  0.4353880000000  0.4821340000000 1.0
C      1  0.4887370000000  0.5955980000000  0.4607740000000 1.0
C      1  0.5530510000000  0.4245250000000  0.4659280000000 1.0
C      1  0.5350360000000  0.4724490000000  0.5494360000000 1.0
C      1  0.4393660000000  0.4170280000000  0.4977720000000 1.0
C      1  0.5165500000000  0.4856590000000  0.4658480000000 1.0
C      1  0.5950730000000  0.4725630000000  0.4726250000000 1.0
C      1  0.5621480000000  0.5780660000000  0.4335820000000 1.0
C      1  0.5263940000000  0.4533990000000  0.5132440000000 1.0
C      1  0.5456470000000  0.5000780000000  0.5744940000000 1.0
C      1  0.5838290000000  0.4990650000000  0.5666200000000 1.0
C      1  0.5679950000000  0.5515850000000  0.4275530000000 1.0
C      1  0.5280180000000  0.4974660000000  0.4401530000000 1.0
C      1  0.4665370000000  0.5592140000000  0.4346920000000 1.0
C      1  0.4607170000000  0.5868020000000  0.5191540000000 1.0
C      1  0.4861430000000  0.4379890000000  0.4769170000000 1.0
C      1  0.4865570000000  0.3923870000000  0.4789730000000 1.0
C      1  0.4476890000000  0.4465790000000  0.5343600000000 1.0
C      1  0.5150340000000  0.5776940000000  0.5408870000000 1.0
C      1  0.4464510000000  0.5143060000000  0.4742820000000 1.0
C      1  0.4942230000000  0.5394600000000  0.3972350000000 1.0
C      1  0.4074000000000  0.5131920000000  0.5301670000000 1.0
C      1  0.5242330000000  0.5946760000000  0.5194420000000 1.0
C      1  0.4930900000000  0.5131430000000  0.3867300000000 1.0
C      1  0.5575510000000  0.4980430000000  0.4880810000000 1.0
C      1  0.5703110000000  0.5389140000000  0.5524050000000 1.0
C      1  0.5558010000000  0.4314640000000  0.5700420000000 1.0
C      1  0.5267690000000  0.4107510000000  0.4607860000000 1.0
C      1  0.6028890000000  0.5274700000000  0.4867210000000 1.0
C      1  0.4153080000000  0.4638530000000  0.5586620000000 1.0
C      1  0.4980470000000  0.4601780000000  0.4959000000000 1.0
C      1  0.4993590000000  0.5129300000000  0.5843710000000 1.0
C      1  0.5229970000000  0.5498900000000  0.4946330000000 1.0
C      1  0.4638010000000  0.4352410000000  0.4388500000000 1.0
C      1  0.3998850000000  0.5211450000000  0.4691020000000 1.0
C      1  0.4275490000000  0.5498040000000  0.5638560000000 1.0
C      1  0.4297620000000  0.4693460000000  0.4581250000000 1.0
C      1  0.4389110000000  0.5565560000000  0.4522540000000 1.0
C      1  0.4385130000000  0.4460610000000  0.5629250000000 1.0
C      1  0.4820140000000  0.5384440000000  0.5161360000000 1.0
C      1  0.4188510000000  0.4918290000000  0.5672650000000 1.0
C      1  0.6105330000000  0.4823170000000  0.4939690000000 1.0
C      1  0.4969420000000  0.4904720000000  0.4030640000000 1.0
C      1  0.5136850000000  0.4523680000000  0.5625490000000 1.0
C      1  0.5378370000000  0.5956320000000  0.4729000000000 1.0
C      1  0.5012210000000  0.5342800000000  0.5401860000000 1.0
C      1  0.5887480000000  0.5182500000000  0.5466810000000 1.0
C      1  0.5184430000000  0.4931080000000  0.5173860000000 1.0
C      1  0.5030730000000  0.5086640000000  0.4268660000000 1.0
C      1  0.3876150000000  0.4995060000000  0.5130500000000 1.0
C      1  0.5457630000000  0.5867350000000  0.5012120000000 1.0
C      1  0.4268370000000  0.5278410000000  0.4567680000000 1.0
C      1  0.4735540000000  0.4642080000000  0.5368860000000 1.0
C      1  0.4777600000000  0.4778340000000  0.5104090000000 1.0
C      1  0.5668530000000  0.5513350000000  0.4773860000000 1.0
C      1  0.5132960000000  0.4741680000000  0.6041460000000 1.0
C      1  0.5696900000000  0.5352030000000  0.4524730000000 1.0
C      1  0.3815630000000  0.4744980000000  0.5248140000000 1.0
C      1  0.4468400000000  0.4796010000000  0.5044870000000 1.0
C      1  0.4746730000000  0.4025850000000  0.5250010000000 1.0
C      1  0.4938770000000  0.5467980000000  0.4593890000000 1.0
C      1  0.5886040000000  0.5623870000000  0.4930460000000 1.0
C      1  0.4770960000000  0.3846130000000  0.5036340000000 1.0
C      1  0.4744260000000  0.5054780000000  0.6010990000000 1.0
C      1  0.5743470000000  0.4608690000000  0.5325290000000 1.0
C      1  0.5322530000000  0.5384040000000  0.5301880000000 1.0
C      1  0.5661050000000  0.4700560000000  0.4800430000000 1.0
C      1  0.4566750000000  0.4789820000000  0.5980570000000 1.0
C      1  0.5156400000000  0.5725380000000  0.4276390000000 1.0
C      1  0.5027900000000  0.6030810000000  0.5033620000000 1.0
C      1  0.5589250000000  0.4589410000000  0.5772530000000 1.0
C      1  0.4596860000000  0.4550150000000  0.5817330000000 1.0
C      1  0.4374330000000  0.5066140000000  0.5226840000000 1.0
C      1  0.4318520000000  0.4965720000000  0.5932140000000 1.0
C      1  0.4886730000000  0.5822660000000  0.4342100000000 1.0
C      1  0.5922240000000  0.4925160000000  0.4501510000000 1.0
C      1  0.5101750000000  0.4193920000000  0.4372400000000 1.0
C      1  0.5509330000000  0.5349360000000  0.4971700000000 1.0
C      1  0.5246910000000  0.5474770000000  0.4631210000000 1.0
C      1  0.3988420000000  0.4969610000000  0.4861290000000 1.0
C      1  0.4899560000000  0.5207050000000  0.4714790000000 1.0
C      1  0.4520190000000  0.5347960000000  0.5683270000000 1.0
C      1  0.4820570000000  0.4123080000000  0.4461350000000 1.0
C      1  0.5214020000000  0.4566070000000  0.4626270000000 1.0
C      1  0.5310820000000  0.5760560000000  0.5638890000000 1.0
C      1  0.5675020000000  0.4323980000000  0.5427660000000 1.0
C      1  0.4239120000000  0.4567060000000  0.5065760000000 1.0
C      1  0.5676950000000  0.5618250000000  0.5367250000000 1.0
C      1  0.5189460000000  0.4213080000000  0.5112630000000 1.0
C      1  0.5297060000000  0.4659220000000  0.4191890000000 1.0
C      1  0.5951960000000  0.5206440000000  0.4587640000000 1.0
C      1  0.5111860000000  0.6082390000000  0.4760140000000 1.0
C      1  0.4467340000000  0.5632300000000  0.5263120000000 1.0
C      1  0.4980150000000  0.5060000000000  0.5545420000000 1.0
C      1  0.5600610000000  0.4115890000000  0.5229950000000 1.0
C      1  0.4779050000000  0.5542390000000  0.5684490000000 1.0
C      1  0.5374650000000  0.5762570000000  0.4487480000000 1.0
C      1  0.4269460000000  0.4856120000000  0.4316280000000 1.0
C      1  0.4787150000000  0.4783920000000  0.4608290000000 1.0
C      1  0.5384750000000  0.3946400000000  0.5318100000000 1.0
C      1  0.4514640000000  0.4950720000000  0.4182440000000 1.0
C      1  0.4493340000000  0.5224410000000  0.5956520000000 1.0
C      1  0.4728430000000  0.4759380000000  0.4118180000000 1.0
C      1  0.5489140000000  0.5301290000000  0.5694600000000 1.0
C      1  0.5557620000000  0.4644220000000  0.4308720000000 1.0
C      1  0.4412400000000  0.4411420000000  0.4567590000000 1.0
C      1  0.5182450000000  0.4032080000000  0.5516440000000 1.0
C      1  0.5232460000000  0.4986670000000  0.5949290000000 1.0
C      1  0.5509380000000  0.4538640000000  0.4586530000000 1.0
C      1  0.4506240000000  0.4849010000000  0.4739630000000 1.0
C      1  0.4803400000000  0.4595970000000  0.4359970000000 1.0
C      1  0.4090320000000  0.4695300000000  0.4803430000000 1.0
END
