TITL C-951342-2639-604 3.80071028713467e-06 125000 -1221.02319727885 0 0 192 (C1) n - 1
REM
REM in /home/bkarasulu/work/CARBON/AIRSS/Generating-Clusters/EDIP-Nigel-Params/with-SteepDescent/Only-C1/SD-CG/HFTN-CG
REM
REM
REM
REM
REM
REM ./C.cell (11c1c37f851c82e70ff6c80c92926a4b)
REM
REM compiler GCC version 9.2.1 20190827 (Red Hat 9.2.1-1)
REM options -cpp -mtune=generic -march=x86-64 -g -O0 -fpre-include=/usr/include/finclude/math-vector-fortran.h
REM seed -1688394108 130982681 -133426261 -195716912 231504037 1011284152 -1684003733 1052901491 623119832 1050406509 -911460682 -556677724 1327673607 -76453525 -1670621552 796502934 -169286815 1431870209 -2066086357 -1146317952 1646859377 -1433525613 1896104509 -564470476 472636225 -282075773 -1033863772 456614212 -605485449 578614840 -99246935 -866833366 -1964865597
REM
CELL 1.54180   50.00000   50.00000   50.00000   90.00000   90.00000   90.00000
LATT -1
SFAC C  
C      1  0.6051910000000  0.5061410000000  0.5364710000000 1.0
C      1  0.4245340000000  0.5115120000000  0.4880320000000 1.0
C      1  0.5569740000000  0.4461840000000  0.4248800000000 1.0
C      1  0.5763220000000  0.4216700000000  0.5084210000000 1.0
C      1  0.4759480000000  0.5020610000000  0.4735710000000 1.0
C      1  0.3923580000000  0.4744260000000  0.4930560000000 1.0
C      1  0.5684640000000  0.6005850000000  0.4692190000000 1.0
C      1  0.4859580000000  0.4836000000000  0.6117020000000 1.0
C      1  0.4795060000000  0.5551370000000  0.4991360000000 1.0
C      1  0.5121340000000  0.5007400000000  0.3865070000000 1.0
C      1  0.3892710000000  0.4708000000000  0.5399490000000 1.0
C      1  0.4320070000000  0.5293040000000  0.5383100000000 1.0
C      1  0.4278750000000  0.5457300000000  0.4479800000000 1.0
C      1  0.5461970000000  0.4026240000000  0.4753080000000 1.0
C      1  0.4837110000000  0.5293610000000  0.5769600000000 1.0
C      1  0.5305060000000  0.4360370000000  0.4326790000000 1.0
C      1  0.5628600000000  0.5933000000000  0.4399970000000 1.0
C      1  0.5292040000000  0.4010310000000  0.5015370000000 1.0
C      1  0.4945420000000  0.5150970000000  0.5113770000000 1.0
C      1  0.4870830000000  0.4245570000000  0.5332910000000 1.0
C      1  0.4307140000000  0.4617940000000  0.5771700000000 1.0
C      1  0.4611470000000  0.4876370000000  0.5291700000000 1.0
C      1  0.5863240000000  0.4975950000000  0.4233540000000 1.0
C      1  0.5298550000000  0.4624950000000  0.5687400000000 1.0
C      1  0.3968390000000  0.5226640000000  0.4830860000000 1.0
C      1  0.5255170000000  0.5836190000000  0.4704360000000 1.0
C      1  0.4281000000000  0.4177390000000  0.5020870000000 1.0
C      1  0.4954110000000  0.5439440000000  0.4473060000000 1.0
C      1  0.5207550000000  0.4725050000000  0.4789120000000 1.0
C      1  0.4594530000000  0.4943260000000  0.6025410000000 1.0
C      1  0.5068990000000  0.4572060000000  0.3939440000000 1.0
C      1  0.4093430000000  0.5055700000000  0.4327930000000 1.0
C      1  0.4616870000000  0.5747490000000  0.4338290000000 1.0
C      1  0.4944300000000  0.4572670000000  0.6005940000000 1.0
C      1  0.5857660000000  0.4656290000000  0.5598840000000 1.0
C      1  0.4823470000000  0.4474040000000  0.4673660000000 1.0
C      1  0.3775880000000  0.4874440000000  0.5154520000000 1.0
C      1  0.5074710000000  0.4006650000000  0.4505360000000 1.0
C      1  0.5136890000000  0.5531800000000  0.5324460000000 1.0
C      1  0.5748960000000  0.5375860000000  0.5658890000000 1.0
C      1  0.5564530000000  0.5248920000000  0.5848880000000 1.0
C      1  0.5231800000000  0.5830730000000  0.5292930000000 1.0
C      1  0.3934440000000  0.5303980000000  0.5332170000000 1.0
C      1  0.3847260000000  0.4783880000000  0.4636440000000 1.0
C      1  0.5042030000000  0.5549340000000  0.6133600000000 1.0
C      1  0.4412650000000  0.5342100000000  0.4073080000000 1.0
C      1  0.5976390000000  0.5248310000000  0.4289050000000 1.0
C      1  0.4701390000000  0.3988590000000  0.5571780000000 1.0
C      1  0.5979870000000  0.4775540000000  0.5348570000000 1.0
C      1  0.3946480000000  0.5529470000000  0.4757270000000 1.0
C      1  0.4218690000000  0.4837200000000  0.4988300000000 1.0
C      1  0.5666320000000  0.4037340000000  0.5313740000000 1.0
C      1  0.5227160000000  0.5580690000000  0.5925070000000 1.0
C      1  0.4174500000000  0.4248820000000  0.5286410000000 1.0
C      1  0.5248030000000  0.5402480000000  0.4556250000000 1.0
C      1  0.5578100000000  0.4773420000000  0.5649030000000 1.0
C      1  0.5841610000000  0.4290400000000  0.4607720000000 1.0
C      1  0.5011330000000  0.3909850000000  0.4978460000000 1.0
C      1  0.6064740000000  0.5789350000000  0.4885300000000 1.0
C      1  0.4157550000000  0.4781940000000  0.4254150000000 1.0
C      1  0.3993030000000  0.4609770000000  0.4431010000000 1.0
C      1  0.4378150000000  0.4645820000000  0.4834610000000 1.0
C      1  0.5572350000000  0.4955810000000  0.5896860000000 1.0
C      1  0.4445600000000  0.4131070000000  0.5618640000000 1.0
C      1  0.4325920000000  0.4814930000000  0.5278860000000 1.0
C      1  0.5737140000000  0.4117260000000  0.4800610000000 1.0
C      1  0.6006270000000  0.5804920000000  0.5186740000000 1.0
C      1  0.5097770000000  0.5018060000000  0.6078280000000 1.0
C      1  0.5301630000000  0.5334990000000  0.5757820000000 1.0
C      1  0.5961160000000  0.5212870000000  0.5579800000000 1.0
C      1  0.5240580000000  0.4586150000000  0.5974890000000 1.0
C      1  0.4202780000000  0.5118930000000  0.5623730000000 1.0
C      1  0.4677870000000  0.4701350000000  0.4837150000000 1.0
C      1  0.5605780000000  0.4240650000000  0.5521620000000 1.0
C      1  0.4448670000000  0.5566760000000  0.5707370000000 1.0
C      1  0.5357060000000  0.5368910000000  0.5452850000000 1.0
C      1  0.4623400000000  0.5546240000000  0.5299220000000 1.0
C      1  0.5604280000000  0.5548180000000  0.4901860000000 1.0
C      1  0.3936080000000  0.4423240000000  0.5270450000000 1.0
C      1  0.4575920000000  0.4172840000000  0.5012060000000 1.0
C      1  0.5052750000000  0.4474680000000  0.4211880000000 1.0
C      1  0.4126160000000  0.5716380000000  0.4906480000000 1.0
C      1  0.5248730000000  0.3894440000000  0.5498410000000 1.0
C      1  0.5299330000000  0.5553330000000  0.4816650000000 1.0
C      1  0.5549460000000  0.4658800000000  0.4039200000000 1.0
C      1  0.5605550000000  0.4709570000000  0.5119900000000 1.0
C      1  0.5036610000000  0.4895300000000  0.5589260000000 1.0
C      1  0.5760260000000  0.5174210000000  0.4665680000000 1.0
C      1  0.6275350000000  0.5545750000000  0.4957950000000 1.0
C      1  0.5359580000000  0.5380020000000  0.4065140000000 1.0
C      1  0.4317610000000  0.5321580000000  0.5814450000000 1.0
C      1  0.4589610000000  0.5173830000000  0.3914600000000 1.0
C      1  0.4530310000000  0.5855010000000  0.5314580000000 1.0
C      1  0.4365490000000  0.4281570000000  0.4376570000000 1.0
C      1  0.5717170000000  0.5727130000000  0.5230410000000 1.0
C      1  0.5413470000000  0.3893530000000  0.5266100000000 1.0
C      1  0.4876050000000  0.5779340000000  0.5652430000000 1.0
C      1  0.6179640000000  0.5266980000000  0.4903530000000 1.0
C      1  0.4437450000000  0.5287180000000  0.5012220000000 1.0
C      1  0.5103470000000  0.4965150000000  0.5294280000000 1.0
C      1  0.4912270000000  0.4812150000000  0.3872840000000 1.0
C      1  0.4723130000000  0.5408230000000  0.4707850000000 1.0
C      1  0.4966600000000  0.5229330000000  0.4202560000000 1.0
C      1  0.4783470000000  0.5971530000000  0.5435620000000 1.0
C      1  0.4613320000000  0.5088390000000  0.5764150000000 1.0
C      1  0.4665650000000  0.4396740000000  0.5198940000000 1.0
C      1  0.5445200000000  0.5113170000000  0.5002380000000 1.0
C      1  0.5272280000000  0.4315170000000  0.5045980000000 1.0
C      1  0.4225970000000  0.5587890000000  0.5142280000000 1.0
C      1  0.4497680000000  0.4386860000000  0.5749170000000 1.0
C      1  0.4371860000000  0.5818000000000  0.4777580000000 1.0
C      1  0.5473330000000  0.4839130000000  0.4876090000000 1.0
C      1  0.4802510000000  0.5476320000000  0.6009890000000 1.0
C      1  0.5337330000000  0.4601090000000  0.3863500000000 1.0
C      1  0.5130600000000  0.5791190000000  0.4222950000000 1.0
C      1  0.3932820000000  0.4459880000000  0.4977380000000 1.0
C      1  0.4387500000000  0.4757320000000  0.6001120000000 1.0
C      1  0.5134650000000  0.4433200000000  0.4777260000000 1.0
C      1  0.4659870000000  0.5131830000000  0.5150940000000 1.0
C      1  0.5855160000000  0.5739560000000  0.4361370000000 1.0
C      1  0.5375860000000  0.5093050000000  0.5288560000000 1.0
C      1  0.4964010000000  0.5899370000000  0.4687550000000 1.0
C      1  0.4588010000000  0.5060580000000  0.4475560000000 1.0
C      1  0.5550260000000  0.4999340000000  0.4535950000000 1.0
C      1  0.4530470000000  0.5600000000000  0.4113380000000 1.0
C      1  0.4895350000000  0.4129190000000  0.5752380000000 1.0
C      1  0.5083770000000  0.5127640000000  0.5798010000000 1.0
C      1  0.4039270000000  0.5737130000000  0.5523940000000 1.0
C      1  0.5342790000000  0.5102120000000  0.4015090000000 1.0
C      1  0.4811910000000  0.4572990000000  0.4366630000000 1.0
C      1  0.6105630000000  0.4606580000000  0.5137620000000 1.0
C      1  0.6152990000000  0.4714870000000  0.4882810000000 1.0
C      1  0.5368340000000  0.5843750000000  0.5559530000000 1.0
C      1  0.4780190000000  0.4383520000000  0.5844910000000 1.0
C      1  0.5044520000000  0.4684290000000  0.5196520000000 1.0
C      1  0.4904040000000  0.3986580000000  0.4720620000000 1.0
C      1  0.5547190000000  0.4418930000000  0.5118590000000 1.0
C      1  0.3827680000000  0.5164180000000  0.5106480000000 1.0
C      1  0.4012650000000  0.5558800000000  0.4484640000000 1.0
C      1  0.5175590000000  0.4112570000000  0.5663770000000 1.0
C      1  0.4906090000000  0.5741720000000  0.4420680000000 1.0
C      1  0.5684140000000  0.5266370000000  0.4929660000000 1.0
C      1  0.4189790000000  0.4392020000000  0.4831710000000 1.0
C      1  0.5130680000000  0.5556010000000  0.4039790000000 1.0
C      1  0.5052160000000  0.4935530000000  0.4652410000000 1.0
C      1  0.4976050000000  0.5974650000000  0.5210210000000 1.0
C      1  0.6226250000000  0.5615520000000  0.5249280000000 1.0
C      1  0.5831370000000  0.4383430000000  0.5600670000000 1.0
C      1  0.4545710000000  0.5945120000000  0.4978520000000 1.0
C      1  0.3896640000000  0.5063570000000  0.4566710000000 1.0
C      1  0.6017890000000  0.4342280000000  0.5133900000000 1.0
C      1  0.4831620000000  0.5856900000000  0.4957030000000 1.0
C      1  0.5309020000000  0.4355010000000  0.5542180000000 1.0
C      1  0.6064080000000  0.5146790000000  0.4638960000000 1.0
C      1  0.4806480000000  0.3964760000000  0.5195740000000 1.0
C      1  0.4693780000000  0.4189070000000  0.4729370000000 1.0
C      1  0.5356830000000  0.5810310000000  0.4422430000000 1.0
C      1  0.4509290000000  0.4107140000000  0.4532020000000 1.0
C      1  0.5950670000000  0.4750150000000  0.4415610000000 1.0
C      1  0.4871300000000  0.5515250000000  0.5497550000000 1.0
C      1  0.4729310000000  0.4885520000000  0.5569670000000 1.0
C      1  0.5479430000000  0.5901690000000  0.5132240000000 1.0
C      1  0.5812880000000  0.5727370000000  0.4738040000000 1.0
C      1  0.4174510000000  0.4811550000000  0.5538950000000 1.0
C      1  0.4795660000000  0.4949420000000  0.4295720000000 1.0
C      1  0.5800720000000  0.5480670000000  0.4249480000000 1.0
C      1  0.5129810000000  0.4403760000000  0.5286800000000 1.0
C      1  0.6009400000000  0.5207880000000  0.5126120000000 1.0
C      1  0.5438720000000  0.6013410000000  0.4858770000000 1.0
C      1  0.4319760000000  0.5765410000000  0.5536630000000 1.0
C      1  0.5346350000000  0.4848830000000  0.6079830000000 1.0
C      1  0.5630780000000  0.5639840000000  0.5516400000000 1.0
C      1  0.4497760000000  0.5616230000000  0.4583050000000 1.0
C      1  0.4542790000000  0.4483680000000  0.4241680000000 1.0
C      1  0.3991590000000  0.5576540000000  0.5306650000000 1.0
C      1  0.4345710000000  0.5216590000000  0.4336810000000 1.0
C      1  0.6115550000000  0.4850360000000  0.4637940000000 1.0
C      1  0.5789630000000  0.4501820000000  0.4436150000000 1.0
C      1  0.5162360000000  0.5810620000000  0.5762000000000 1.0
C      1  0.5276990000000  0.5116440000000  0.4592770000000 1.0
C      1  0.4413070000000  0.4706470000000  0.4105140000000 1.0
C      1  0.4755460000000  0.4665180000000  0.5128450000000 1.0
C      1  0.4656120000000  0.4899000000000  0.4027930000000 1.0
C      1  0.5550680000000  0.4880730000000  0.5369050000000 1.0
C      1  0.5562880000000  0.4933380000000  0.4153040000000 1.0
C      1  0.4121790000000  0.4358120000000  0.4530390000000 1.0
C      1  0.4668250000000  0.5692830000000  0.5859930000000 1.0
C      1  0.4204820000000  0.4067950000000  0.5495110000000 1.0
C      1  0.5266640000000  0.4207120000000  0.4579760000000 1.0
C      1  0.5063000000000  0.5425680000000  0.5054640000000 1.0
C      1  0.5522960000000  0.5427860000000  0.4286990000000 1.0
C      1  0.4833970000000  0.5329980000000  0.3945550000000 1.0
END
