TITL C-951334-9093-546 -7.66602752593408e-07 125000 -294.171500006678 0 0 48 (C1) n - 1
REM
REM in /home/bkarasulu/work/CARBON/AIRSS/Generating-Clusters/EDIP-Nigel-Params/with-SteepDescent/Only-C1/SD-CG/HFTN-CG
REM
REM
REM
REM
REM
REM ./C.cell (11c1c37f851c82e70ff6c80c92926a4b)
REM
REM compiler GCC version 9.2.1 20190827 (Red Hat 9.2.1-1)
REM options -cpp -mtune=generic -march=x86-64 -g -O0 -fpre-include=/usr/include/finclude/math-vector-fortran.h
REM seed 782129884 1545522862 1113496402 -1149467015 1493346757 1569997826 1072965737 629613946 -145274671 -1038405524 -1830338454 1209899265 1974218179 749001401 -700872290 -1732067284 1408084743 -3490544 -1654284436 551086208 233707338 761708336 1379668354 -1861950607 261094034 1508753279 -847634463 649107598 -1575610348 1839211403 -837282007 -1197546119 178476501
REM
CELL 1.54180   50.00000   50.00000   50.00000   90.00000   90.00000   90.00000
LATT -1
SFAC C  
C      1  0.4418840000000  0.4931550000000  0.5354540000000 1.0
C      1  0.5468630000000  0.5653050000000  0.5055450000000 1.0
C      1  0.5174720000000  0.4987760000000  0.5581390000000 1.0
C      1  0.5300450000000  0.5748930000000  0.4863360000000 1.0
C      1  0.4706590000000  0.5552950000000  0.5067970000000 1.0
C      1  0.5029630000000  0.5182080000000  0.4983930000000 1.0
C      1  0.5352700000000  0.5065770000000  0.4623200000000 1.0
C      1  0.5495330000000  0.5372880000000  0.5034340000000 1.0
C      1  0.4678380000000  0.5118720000000  0.5429070000000 1.0
C      1  0.5002590000000  0.4849620000000  0.4987050000000 1.0
C      1  0.5464050000000  0.4444460000000  0.5045440000000 1.0
C      1  0.5290700000000  0.5273300000000  0.4837990000000 1.0
C      1  0.4815970000000  0.4559530000000  0.4806760000000 1.0
C      1  0.4585750000000  0.4710400000000  0.4673720000000 1.0
C      1  0.4569830000000  0.5382300000000  0.5499140000000 1.0
C      1  0.4865250000000  0.4693590000000  0.5461020000000 1.0
C      1  0.5227370000000  0.5530490000000  0.4701590000000 1.0
C      1  0.4581100000000  0.5196990000000  0.4717160000000 1.0
C      1  0.4710110000000  0.4885010000000  0.5061090000000 1.0
C      1  0.5481850000000  0.5212910000000  0.5284100000000 1.0
C      1  0.4730200000000  0.4440240000000  0.5073360000000 1.0
C      1  0.5012790000000  0.4391560000000  0.5169510000000 1.0
C      1  0.5113390000000  0.4359100000000  0.4681330000000 1.0
C      1  0.4948620000000  0.5498060000000  0.4614680000000 1.0
C      1  0.4283150000000  0.5309630000000  0.5113900000000 1.0
C      1  0.5502850000000  0.4473170000000  0.5328920000000 1.0
C      1  0.4971710000000  0.4721080000000  0.4392490000000 1.0
C      1  0.5173380000000  0.4608590000000  0.4551050000000 1.0
C      1  0.4928820000000  0.5574880000000  0.5246160000000 1.0
C      1  0.5335410000000  0.4788270000000  0.4707300000000 1.0
C      1  0.4690240000000  0.5123680000000  0.4453030000000 1.0
C      1  0.5209270000000  0.4305450000000  0.4959370000000 1.0
C      1  0.5540370000000  0.4676500000000  0.4880670000000 1.0
C      1  0.4992450000000  0.5289770000000  0.5270540000000 1.0
C      1  0.5541920000000  0.4932530000000  0.5241130000000 1.0
C      1  0.4628050000000  0.4665970000000  0.5275700000000 1.0
C      1  0.4495360000000  0.4948610000000  0.4856970000000 1.0
C      1  0.4712000000000  0.4824640000000  0.4432580000000 1.0
C      1  0.5371080000000  0.4730650000000  0.5381250000000 1.0
C      1  0.5087310000000  0.4680080000000  0.5250480000000 1.0
C      1  0.4799330000000  0.5360620000000  0.4844340000000 1.0
C      1  0.4480770000000  0.5466760000000  0.5238770000000 1.0
C      1  0.4941680000000  0.5282110000000  0.4404020000000 1.0
C      1  0.4882630000000  0.4948930000000  0.5598850000000 1.0
C      1  0.5179730000000  0.5125770000000  0.4408720000000 1.0
C      1  0.4294670000000  0.5029920000000  0.5094060000000 1.0
C      1  0.5229520000000  0.5232940000000  0.5439880000000 1.0
C      1  0.5703480000000  0.4858140000000  0.5022620000000 1.0
END
