TITL C-951338-5626-238 8.36396916179112e-07 125000 -302.774236122399 0 0 50 (C1) n - 1
REM
REM in /home/bkarasulu/work/CARBON/AIRSS/Generating-Clusters/EDIP-Nigel-Params/with-SteepDescent/Only-C1/SD-CG/HFTN-CG
REM
REM
REM
REM
REM
REM ./C.cell (11c1c37f851c82e70ff6c80c92926a4b)
REM
REM compiler GCC version 9.2.1 20190827 (Red Hat 9.2.1-1)
REM options -cpp -mtune=generic -march=x86-64 -g -O0 -fpre-include=/usr/include/finclude/math-vector-fortran.h
REM seed -940788903 668759436 -1130946574 -112802141 -2135982394 1654580635 1263577381 853337566 -1983035808 -2135047535 -1392902811 510454914 1837282360 2002995343 1576479812 17762450 -264871830 422416588 112207252 2589595 1046550300 643607154 -686568349 -720894377 -1470804945 495063498 -359721003 502306414 1495956781 1695506472 317984157 893844953 1740136235
REM
CELL 1.54180   50.00000   50.00000   50.00000   90.00000   90.00000   90.00000
LATT -1
SFAC C  
C      1  0.4501570000000  0.5456760000000  0.5161000000000 1.0
C      1  0.4938110000000  0.5074650000000  0.4810270000000 1.0
C      1  0.5473630000000  0.5289150000000  0.4978390000000 1.0
C      1  0.4755720000000  0.4879570000000  0.5497320000000 1.0
C      1  0.4663650000000  0.5149950000000  0.4393940000000 1.0
C      1  0.4635750000000  0.5416390000000  0.4469020000000 1.0
C      1  0.5449870000000  0.4395190000000  0.5224320000000 1.0
C      1  0.5239660000000  0.5449750000000  0.4908310000000 1.0
C      1  0.5083380000000  0.4784630000000  0.4446600000000 1.0
C      1  0.5199060000000  0.4855370000000  0.5691180000000 1.0
C      1  0.4584370000000  0.4561400000000  0.5146550000000 1.0
C      1  0.5608720000000  0.5177210000000  0.4747430000000 1.0
C      1  0.5508480000000  0.4785440000000  0.4926860000000 1.0
C      1  0.4807470000000  0.4482440000000  0.4683470000000 1.0
C      1  0.5103000000000  0.5559170000000  0.5122830000000 1.0
C      1  0.5227620000000  0.5121630000000  0.5305410000000 1.0
C      1  0.4456380000000  0.4900130000000  0.4766590000000 1.0
C      1  0.5607210000000  0.5299430000000  0.5228770000000 1.0
C      1  0.5270410000000  0.4440000000000  0.4781270000000 1.0
C      1  0.4853230000000  0.4458050000000  0.5162150000000 1.0
C      1  0.5195650000000  0.4856380000000  0.4867000000000 1.0
C      1  0.4997680000000  0.5326800000000  0.5261080000000 1.0
C      1  0.4829690000000  0.5416830000000  0.5496360000000 1.0
C      1  0.5574910000000  0.5175060000000  0.5478860000000 1.0
C      1  0.4707770000000  0.4956890000000  0.4620190000000 1.0
C      1  0.4855240000000  0.4894870000000  0.5218050000000 1.0
C      1  0.4722940000000  0.5178810000000  0.5640780000000 1.0
C      1  0.4615360000000  0.5574020000000  0.5391650000000 1.0
C      1  0.5314160000000  0.5093610000000  0.5592920000000 1.0
C      1  0.5711100000000  0.4917220000000  0.4778220000000 1.0
C      1  0.4811110000000  0.5151860000000  0.5086180000000 1.0
C      1  0.5086530000000  0.5044980000000  0.4295640000000 1.0
C      1  0.5502350000000  0.4489030000000  0.4967010000000 1.0
C      1  0.5475890000000  0.5230770000000  0.4508970000000 1.0
C      1  0.4459020000000  0.5121200000000  0.5527670000000 1.0
C      1  0.5207190000000  0.5273370000000  0.4445620000000 1.0
C      1  0.4963510000000  0.4705900000000  0.5630310000000 1.0
C      1  0.4453170000000  0.5165410000000  0.5236380000000 1.0
C      1  0.5024120000000  0.4491420000000  0.5423720000000 1.0
C      1  0.4634200000000  0.5515500000000  0.4919980000000 1.0
C      1  0.5288170000000  0.4591840000000  0.5343880000000 1.0
C      1  0.5152330000000  0.4845630000000  0.5186120000000 1.0
C      1  0.4836030000000  0.5108990000000  0.4179410000000 1.0
C      1  0.5048590000000  0.5339000000000  0.4701570000000 1.0
C      1  0.4990550000000  0.4469050000000  0.4894830000000 1.0
C      1  0.4813740000000  0.4700740000000  0.4510320000000 1.0
C      1  0.5301130000000  0.4635560000000  0.4564230000000 1.0
C      1  0.4788100000000  0.5498500000000  0.4685300000000 1.0
C      1  0.4395590000000  0.4721370000000  0.4995870000000 1.0
C      1  0.4276880000000  0.4973060000000  0.5100200000000 1.0
END
