TITL C-951338-5626-200 1.72630194781663e-05 125000 -588.883170236573 0 0 95 (C1) n - 1
REM
REM in /home/bkarasulu/work/CARBON/AIRSS/Generating-Clusters/EDIP-Nigel-Params/with-SteepDescent/Only-C1/SD-CG/HFTN-CG
REM
REM
REM
REM
REM
REM ./C.cell (11c1c37f851c82e70ff6c80c92926a4b)
REM
REM compiler GCC version 9.2.1 20190827 (Red Hat 9.2.1-1)
REM options -cpp -mtune=generic -march=x86-64 -g -O0 -fpre-include=/usr/include/finclude/math-vector-fortran.h
REM seed 1246128898 -916249529 1235222059 -1995960864 528769378 -1871028790 -1506549476 -1931217289 952051417 885767906 -1434010762 1258794239 -73491595 1949241838 1161270135 1366612253 -173812233 1952224562 940117151 1025346715 -1123684787 -1586622197 -457014584 -1212316786 -155343951 -267277354 1165679722 -2037622246 407717103 -1045557362 -1855547305 -225495520 -584700950
REM
CELL 1.54180   50.00000   50.00000   50.00000   90.00000   90.00000   90.00000
LATT -1
SFAC C  
C      1  0.4169110000000  0.5080810000000  0.5128300000000 1.0
C      1  0.4962530000000  0.4412430000000  0.5411530000000 1.0
C      1  0.5596820000000  0.4946280000000  0.5036560000000 1.0
C      1  0.5546140000000  0.5025000000000  0.5521190000000 1.0
C      1  0.4417480000000  0.5617490000000  0.5291020000000 1.0
C      1  0.5042690000000  0.5625730000000  0.4514210000000 1.0
C      1  0.5083770000000  0.5058920000000  0.5055740000000 1.0
C      1  0.5348100000000  0.5711980000000  0.4945560000000 1.0
C      1  0.5562910000000  0.4492180000000  0.4870410000000 1.0
C      1  0.4986550000000  0.4010410000000  0.5094680000000 1.0
C      1  0.5331680000000  0.5009500000000  0.4622340000000 1.0
C      1  0.5260010000000  0.5083440000000  0.5886910000000 1.0
C      1  0.5784640000000  0.5462810000000  0.4924180000000 1.0
C      1  0.5037150000000  0.5096840000000  0.4580760000000 1.0
C      1  0.5666390000000  0.5409840000000  0.5210390000000 1.0
C      1  0.5318460000000  0.4839210000000  0.5502510000000 1.0
C      1  0.5541180000000  0.5023700000000  0.4404380000000 1.0
C      1  0.4820280000000  0.5596820000000  0.4953720000000 1.0
C      1  0.4700140000000  0.4434630000000  0.5554130000000 1.0
C      1  0.4981870000000  0.4584360000000  0.4752930000000 1.0
C      1  0.5511140000000  0.5213010000000  0.5743830000000 1.0
C      1  0.5689480000000  0.5281590000000  0.4454650000000 1.0
C      1  0.4579010000000  0.5709400000000  0.4817960000000 1.0
C      1  0.5443730000000  0.4597630000000  0.5337670000000 1.0
C      1  0.4673150000000  0.5733690000000  0.5393780000000 1.0
C      1  0.5116600000000  0.4227600000000  0.4435390000000 1.0
C      1  0.5720310000000  0.4504030000000  0.5311230000000 1.0
C      1  0.4334450000000  0.4906650000000  0.5570150000000 1.0
C      1  0.5648500000000  0.5118190000000  0.5269770000000 1.0
C      1  0.5849810000000  0.5233540000000  0.4702910000000 1.0
C      1  0.5224680000000  0.4394660000000  0.4234000000000 1.0
C      1  0.4378710000000  0.5683610000000  0.5016680000000 1.0
C      1  0.5918360000000  0.4920960000000  0.4705600000000 1.0
C      1  0.4481160000000  0.4992860000000  0.4412420000000 1.0
C      1  0.5818670000000  0.4527910000000  0.5036710000000 1.0
C      1  0.5234620000000  0.4794760000000  0.5792470000000 1.0
C      1  0.4273020000000  0.4677160000000  0.5398490000000 1.0
C      1  0.5268950000000  0.5529150000000  0.5451470000000 1.0
C      1  0.4198610000000  0.4769790000000  0.4669620000000 1.0
C      1  0.4638900000000  0.4906140000000  0.5635980000000 1.0
C      1  0.4526300000000  0.5574470000000  0.4552840000000 1.0
C      1  0.5378880000000  0.5495140000000  0.5168470000000 1.0
C      1  0.5268630000000  0.5513750000000  0.4364790000000 1.0
C      1  0.4307710000000  0.5375090000000  0.4636660000000 1.0
C      1  0.4908630000000  0.4896200000000  0.4377490000000 1.0
C      1  0.5586780000000  0.5637790000000  0.4775370000000 1.0
C      1  0.4461860000000  0.5332610000000  0.5411240000000 1.0
C      1  0.5072060000000  0.4298320000000  0.4708320000000 1.0
C      1  0.4880800000000  0.5259380000000  0.4258610000000 1.0
C      1  0.4777300000000  0.4931260000000  0.5361770000000 1.0
C      1  0.5494520000000  0.5146960000000  0.4829610000000 1.0
C      1  0.4162700000000  0.4788710000000  0.5151690000000 1.0
C      1  0.5156520000000  0.4780870000000  0.4231800000000 1.0
C      1  0.4861680000000  0.5749680000000  0.5191860000000 1.0
C      1  0.4230370000000  0.5149230000000  0.5412360000000 1.0
C      1  0.4725200000000  0.5142500000000  0.5815900000000 1.0
C      1  0.4883590000000  0.5097610000000  0.4847650000000 1.0
C      1  0.4886740000000  0.4175040000000  0.4892900000000 1.0
C      1  0.5018890000000  0.5249230000000  0.5811540000000 1.0
C      1  0.5406210000000  0.4693980000000  0.5058120000000 1.0
C      1  0.5111590000000  0.4748190000000  0.5002670000000 1.0
C      1  0.4376150000000  0.4719630000000  0.4329880000000 1.0
C      1  0.4297360000000  0.4360730000000  0.4900730000000 1.0
C      1  0.4484590000000  0.4480920000000  0.5351580000000 1.0
C      1  0.4729230000000  0.4649070000000  0.5755070000000 1.0
C      1  0.4681080000000  0.5272960000000  0.4967590000000 1.0
C      1  0.4391490000000  0.5191300000000  0.4860830000000 1.0
C      1  0.5018930000000  0.4157140000000  0.5316760000000 1.0
C      1  0.5031770000000  0.5363840000000  0.5526370000000 1.0
C      1  0.4778670000000  0.4699190000000  0.4562180000000 1.0
C      1  0.4656060000000  0.5183240000000  0.5244380000000 1.0
C      1  0.4880090000000  0.4612570000000  0.5190750000000 1.0
C      1  0.5061070000000  0.5053300000000  0.5374740000000 1.0
C      1  0.5338390000000  0.5022650000000  0.4178040000000 1.0
C      1  0.5503740000000  0.5481890000000  0.4535750000000 1.0
C      1  0.5743780000000  0.5548980000000  0.5458060000000 1.0
C      1  0.4578040000000  0.5373090000000  0.5695980000000 1.0
C      1  0.4157320000000  0.4619620000000  0.4910660000000 1.0
C      1  0.4990860000000  0.4670210000000  0.5850720000000 1.0
C      1  0.4413380000000  0.4277010000000  0.5157760000000 1.0
C      1  0.5510500000000  0.5497620000000  0.5623460000000 1.0
C      1  0.5864720000000  0.4822090000000  0.4979720000000 1.0
C      1  0.5288360000000  0.4582930000000  0.4452680000000 1.0
C      1  0.4365620000000  0.5258960000000  0.4381870000000 1.0
C      1  0.4723770000000  0.4415450000000  0.4985680000000 1.0
C      1  0.4558470000000  0.4531400000000  0.4463770000000 1.0
C      1  0.4797360000000  0.5489610000000  0.4429000000000 1.0
C      1  0.5089780000000  0.5595320000000  0.4806480000000 1.0
C      1  0.4451350000000  0.4354190000000  0.4660270000000 1.0
C      1  0.5269440000000  0.5280490000000  0.4970390000000 1.0
C      1  0.5736130000000  0.4799600000000  0.4491360000000 1.0
C      1  0.4434340000000  0.4941580000000  0.4704160000000 1.0
C      1  0.5173100000000  0.5284900000000  0.4188810000000 1.0
C      1  0.5573270000000  0.4561650000000  0.4572250000000 1.0
C      1  0.4785010000000  0.5566140000000  0.5608360000000 1.0
END
