TITL C-950522-5749-492 -1.12397748607806e-06 125000 -754.119330972933 0 0 123 (C1) n - 1
REM
REM in /home/bkarasulu/work/CARBON/AIRSS/Generating-Clusters/EDIP-Nigel-Params/with-SteepDescent/Only-C1/SD-CG/HFTN-CG
REM
REM
REM
REM
REM
REM ./C.cell (11c1c37f851c82e70ff6c80c92926a4b)
REM
REM compiler GCC version 9.2.1 20190827 (Red Hat 9.2.1-1)
REM options -cpp -mtune=generic -march=x86-64 -g -O0 -fpre-include=/usr/include/finclude/math-vector-fortran.h
REM seed 1946528281 -151292315 -2058932136 525065502 1424033803 266874783 -1282562175 1255080575 -1000147347 -1025907691 5586955 -1249094900 -1725452898 2081073534 1280069179 44363718 1500574005 -1834178261 -1041609290 730923072 622990248 1272314868 -1678833871 1537437407 521892007 1531978480 1467041096 1803884688 -1415351464 -206659325 548135615 -1273785727 -1802598422
REM
CELL 1.54180   50.00000   50.00000   50.00000   90.00000   90.00000   90.00000
LATT -1
SFAC C  
C      1  0.5262500000000  0.4036460000000  0.5109410000000 1.0
C      1  0.4855310000000  0.5452440000000  0.5628880000000 1.0
C      1  0.4175270000000  0.4521210000000  0.5580580000000 1.0
C      1  0.5010070000000  0.4155540000000  0.5237270000000 1.0
C      1  0.5440180000000  0.5486840000000  0.5491970000000 1.0
C      1  0.4234780000000  0.5052750000000  0.5318190000000 1.0
C      1  0.6048270000000  0.4808070000000  0.5386120000000 1.0
C      1  0.4047820000000  0.4999920000000  0.4889370000000 1.0
C      1  0.4872440000000  0.5867720000000  0.4454240000000 1.0
C      1  0.5653890000000  0.5117910000000  0.4250700000000 1.0
C      1  0.4305840000000  0.4623000000000  0.4968290000000 1.0
C      1  0.5440600000000  0.5223820000000  0.4776080000000 1.0
C      1  0.5714620000000  0.4715070000000  0.5005090000000 1.0
C      1  0.5327730000000  0.5891020000000  0.4591110000000 1.0
C      1  0.5485290000000  0.4723940000000  0.4553550000000 1.0
C      1  0.5168340000000  0.3970980000000  0.4829150000000 1.0
C      1  0.5007850000000  0.5198220000000  0.5621510000000 1.0
C      1  0.4699930000000  0.4904050000000  0.5891120000000 1.0
C      1  0.5004600000000  0.4374000000000  0.4908810000000 1.0
C      1  0.5698550000000  0.5758960000000  0.5167900000000 1.0
C      1  0.5422910000000  0.5041870000000  0.5308370000000 1.0
C      1  0.4984690000000  0.4195790000000  0.5535720000000 1.0
C      1  0.4668860000000  0.4686450000000  0.3993130000000 1.0
C      1  0.5188980000000  0.4806000000000  0.4948430000000 1.0
C      1  0.5102380000000  0.5689500000000  0.4543140000000 1.0
C      1  0.4471140000000  0.5616430000000  0.4524480000000 1.0
C      1  0.5166430000000  0.4545960000000  0.5094480000000 1.0
C      1  0.4272850000000  0.4510130000000  0.4682320000000 1.0
C      1  0.5279690000000  0.5471290000000  0.5838780000000 1.0
C      1  0.5603500000000  0.4418020000000  0.4914540000000 1.0
C      1  0.5188460000000  0.5134050000000  0.4594840000000 1.0
C      1  0.5020310000000  0.4642960000000  0.4356940000000 1.0
C      1  0.5607680000000  0.5444380000000  0.4596850000000 1.0
C      1  0.4748730000000  0.4511730000000  0.4776230000000 1.0
C      1  0.4543640000000  0.4929740000000  0.4077190000000 1.0
C      1  0.5462950000000  0.4932650000000  0.5022600000000 1.0
C      1  0.4278270000000  0.5153380000000  0.4828270000000 1.0
C      1  0.4712580000000  0.5785780000000  0.4909130000000 1.0
C      1  0.4941870000000  0.4579100000000  0.5748960000000 1.0
C      1  0.5585500000000  0.5304920000000  0.5675910000000 1.0
C      1  0.5482780000000  0.4482170000000  0.4372060000000 1.0
C      1  0.5051950000000  0.5472310000000  0.4348680000000 1.0
C      1  0.4441930000000  0.4917640000000  0.4351690000000 1.0
C      1  0.5080250000000  0.5652900000000  0.5678880000000 1.0
C      1  0.5476430000000  0.4345280000000  0.4653910000000 1.0
C      1  0.5210470000000  0.4429960000000  0.4263990000000 1.0
C      1  0.5274600000000  0.5349790000000  0.4221140000000 1.0
C      1  0.5945020000000  0.5143400000000  0.5111050000000 1.0
C      1  0.5235050000000  0.4503860000000  0.5813840000000 1.0
C      1  0.4806550000000  0.4986750000000  0.5612910000000 1.0
C      1  0.4621240000000  0.5003090000000  0.5364980000000 1.0
C      1  0.4596060000000  0.5283860000000  0.5217660000000 1.0
C      1  0.5694500000000  0.4933970000000  0.4461590000000 1.0
C      1  0.5239810000000  0.4849950000000  0.5473800000000 1.0
C      1  0.5190640000000  0.4230920000000  0.4686450000000 1.0
C      1  0.5327040000000  0.5321560000000  0.5269140000000 1.0
C      1  0.5118370000000  0.5216840000000  0.5906610000000 1.0
C      1  0.4563920000000  0.4637790000000  0.5849910000000 1.0
C      1  0.5214860000000  0.5078380000000  0.4214370000000 1.0
C      1  0.4217540000000  0.5343580000000  0.5224080000000 1.0
C      1  0.4797670000000  0.4226790000000  0.4395060000000 1.0
C      1  0.5617320000000  0.5693990000000  0.5413130000000 1.0
C      1  0.4653530000000  0.5707090000000  0.4333450000000 1.0
C      1  0.5347500000000  0.5430910000000  0.4987630000000 1.0
C      1  0.4767880000000  0.4058460000000  0.5104530000000 1.0
C      1  0.4758090000000  0.5337050000000  0.4336620000000 1.0
C      1  0.4928180000000  0.5303190000000  0.4735930000000 1.0
C      1  0.4324880000000  0.4686150000000  0.4468510000000 1.0
C      1  0.4482520000000  0.5812670000000  0.5115090000000 1.0
C      1  0.5192600000000  0.4821330000000  0.4615480000000 1.0
C      1  0.4303280000000  0.5593610000000  0.5123510000000 1.0
C      1  0.4349320000000  0.4380290000000  0.5133580000000 1.0
C      1  0.4656610000000  0.4106260000000  0.4622030000000 1.0
C      1  0.5146240000000  0.6043530000000  0.4806860000000 1.0
C      1  0.4584450000000  0.4743210000000  0.4919850000000 1.0
C      1  0.4778410000000  0.4508440000000  0.4473000000000 1.0
C      1  0.5552800000000  0.5379760000000  0.4304970000000 1.0
C      1  0.4644890000000  0.5786210000000  0.5355600000000 1.0
C      1  0.4726000000000  0.5504680000000  0.5373710000000 1.0
C      1  0.4850820000000  0.3959670000000  0.4839800000000 1.0
C      1  0.4130650000000  0.4843680000000  0.5110600000000 1.0
C      1  0.5383370000000  0.4447230000000  0.5346640000000 1.0
C      1  0.4629920000000  0.5554000000000  0.4747680000000 1.0
C      1  0.4938110000000  0.4728860000000  0.4077000000000 1.0
C      1  0.4747700000000  0.4789890000000  0.5182070000000 1.0
C      1  0.4957510000000  0.4960850000000  0.5061130000000 1.0
C      1  0.4320500000000  0.4720810000000  0.5703250000000 1.0
C      1  0.4882840000000  0.5949440000000  0.5356010000000 1.0
C      1  0.5123080000000  0.5832590000000  0.5448910000000 1.0
C      1  0.4423900000000  0.5211130000000  0.5759910000000 1.0
C      1  0.4650830000000  0.5366630000000  0.5847840000000 1.0
C      1  0.4770440000000  0.4352700000000  0.5679220000000 1.0
C      1  0.5555540000000  0.5739680000000  0.4703480000000 1.0
C      1  0.4961630000000  0.5700760000000  0.5062590000000 1.0
C      1  0.5086550000000  0.5524020000000  0.4853010000000 1.0
C      1  0.5214360000000  0.5900830000000  0.5072890000000 1.0
C      1  0.4411990000000  0.4258780000000  0.4669960000000 1.0
C      1  0.4747220000000  0.5159560000000  0.4075600000000 1.0
C      1  0.5002150000000  0.5007020000000  0.4041870000000 1.0
C      1  0.5935220000000  0.5065340000000  0.5377460000000 1.0
C      1  0.5644040000000  0.4576020000000  0.5461390000000 1.0
C      1  0.5886250000000  0.5355400000000  0.4638540000000 1.0
C      1  0.5253110000000  0.4308030000000  0.5586350000000 1.0
C      1  0.4130530000000  0.5260210000000  0.4611020000000 1.0
C      1  0.4841260000000  0.5227350000000  0.6029840000000 1.0
C      1  0.4272050000000  0.5005020000000  0.5625830000000 1.0
C      1  0.4960440000000  0.4759560000000  0.5507850000000 1.0
C      1  0.5488770000000  0.4246860000000  0.5140010000000 1.0
C      1  0.4556080000000  0.5034150000000  0.4786730000000 1.0
C      1  0.4235370000000  0.4355440000000  0.5382050000000 1.0
C      1  0.4251320000000  0.5459310000000  0.4467480000000 1.0
C      1  0.4631080000000  0.5077690000000  0.4498500000000 1.0
C      1  0.5845100000000  0.4645250000000  0.5270320000000 1.0
C      1  0.5353280000000  0.4773190000000  0.5735690000000 1.0
C      1  0.5841600000000  0.5074050000000  0.4665490000000 1.0
C      1  0.5635210000000  0.4789840000000  0.5668530000000 1.0
C      1  0.4844400000000  0.6001930000000  0.4726730000000 1.0
C      1  0.5891430000000  0.4951080000000  0.4914200000000 1.0
C      1  0.4768290000000  0.5171390000000  0.4953030000000 1.0
C      1  0.4611280000000  0.4289810000000  0.5060130000000 1.0
C      1  0.5474080000000  0.5719980000000  0.4992080000000 1.0
C      1  0.5090070000000  0.4197230000000  0.4403020000000 1.0
C      1  0.5664150000000  0.5058060000000  0.5513330000000 1.0
END
