TITL C-951336-9012-111 -3.51399975269648e-06 125000 -283.324958560848 0 0 48 (C1) n - 1
REM
REM in /home/bkarasulu/work/CARBON/AIRSS/Generating-Clusters/EDIP-Nigel-Params/with-SteepDescent/Only-C1/SD-CG/HFTN-CG
REM
REM
REM
REM
REM
REM ./C.cell (11c1c37f851c82e70ff6c80c92926a4b)
REM
REM compiler GCC version 9.2.1 20190827 (Red Hat 9.2.1-1)
REM options -cpp -mtune=generic -march=x86-64 -g -O0 -fpre-include=/usr/include/finclude/math-vector-fortran.h
REM seed 1335693146 1429789622 -754687040 1307577627 463890408 522457458 -1117659826 1951509937 -172146112 -17011478 1799206577 -708119024 1078990735 1141102756 -180896005 1770328679 1717358267 107701239 17446456 -666715500 -707554792 1425411796 1856611254 -489108722 1881250466 -638041628 1424928386 275332819 -1567815336 -25450916 839063477 -1868090156 -1262988368
REM
CELL 1.54180   50.00000   50.00000   50.00000   90.00000   90.00000   90.00000
LATT -1
SFAC C  
C      1  0.5722700000000  0.4916390000000  0.5209220000000 1.0
C      1  0.4946950000000  0.5625440000000  0.4658290000000 1.0
C      1  0.4371140000000  0.4580950000000  0.4597630000000 1.0
C      1  0.4838390000000  0.4394010000000  0.4625550000000 1.0
C      1  0.4980070000000  0.4679750000000  0.4965150000000 1.0
C      1  0.5349280000000  0.5055000000000  0.4444160000000 1.0
C      1  0.5298870000000  0.4651190000000  0.5270470000000 1.0
C      1  0.4955600000000  0.5171590000000  0.4594470000000 1.0
C      1  0.5026210000000  0.4428230000000  0.4842830000000 1.0
C      1  0.4906300000000  0.4502610000000  0.5507600000000 1.0
C      1  0.4712070000000  0.4244790000000  0.5157020000000 1.0
C      1  0.5210820000000  0.5534620000000  0.4627330000000 1.0
C      1  0.5638210000000  0.5095950000000  0.5413750000000 1.0
C      1  0.5371830000000  0.5058990000000  0.4877200000000 1.0
C      1  0.4674830000000  0.5255180000000  0.4607100000000 1.0
C      1  0.4684900000000  0.4487730000000  0.5304050000000 1.0
C      1  0.5065790000000  0.5095540000000  0.4862500000000 1.0
C      1  0.4696530000000  0.5202060000000  0.5436970000000 1.0
C      1  0.4755080000000  0.4738910000000  0.5140410000000 1.0
C      1  0.5480410000000  0.5518680000000  0.5087090000000 1.0
C      1  0.4161570000000  0.4911780000000  0.4946080000000 1.0
C      1  0.5269110000000  0.5334100000000  0.4429500000000 1.0
C      1  0.4694700000000  0.5514100000000  0.4712540000000 1.0
C      1  0.5199040000000  0.5356320000000  0.5494770000000 1.0
C      1  0.4653630000000  0.4606900000000  0.4584230000000 1.0
C      1  0.4856110000000  0.4954610000000  0.5339340000000 1.0
C      1  0.5395960000000  0.5596440000000  0.4829620000000 1.0
C      1  0.5254850000000  0.4832090000000  0.5498320000000 1.0
C      1  0.5351480000000  0.5104180000000  0.5443730000000 1.0
C      1  0.4806680000000  0.5717160000000  0.5123280000000 1.0
C      1  0.4991620000000  0.4253900000000  0.5086430000000 1.0
C      1  0.5544240000000  0.5229140000000  0.5068350000000 1.0
C      1  0.5257700000000  0.5573310000000  0.5287350000000 1.0
C      1  0.5539720000000  0.4714960000000  0.5100090000000 1.0
C      1  0.4547520000000  0.4844860000000  0.4941850000000 1.0
C      1  0.4972210000000  0.4796640000000  0.5568390000000 1.0
C      1  0.5128160000000  0.4404870000000  0.5319630000000 1.0
C      1  0.4599350000000  0.5283620000000  0.5144720000000 1.0
C      1  0.4986520000000  0.4937380000000  0.4405630000000 1.0
C      1  0.4606650000000  0.5555150000000  0.4997330000000 1.0
C      1  0.5038080000000  0.5546650000000  0.5085190000000 1.0
C      1  0.5516150000000  0.4707110000000  0.4808080000000 1.0
C      1  0.4396460000000  0.5085270000000  0.5035130000000 1.0
C      1  0.4311640000000  0.4667370000000  0.4859180000000 1.0
C      1  0.4952420000000  0.5244180000000  0.5094740000000 1.0
C      1  0.5532590000000  0.4948260000000  0.4639010000000 1.0
C      1  0.4832020000000  0.4698930000000  0.4384400000000 1.0
C      1  0.4917900000000  0.5343100000000  0.5544270000000 1.0
END
