TITL C-951333-8791-295 -1.66220268976818e-06 125000 -897.173017506548 0 0 144 (C1) n - 1
REM
REM in /home/bkarasulu/work/CARBON/AIRSS/Generating-Clusters/EDIP-Nigel-Params/with-SteepDescent/Only-C1/SD-CG/HFTN-CG
REM
REM
REM
REM
REM
REM ./C.cell (11c1c37f851c82e70ff6c80c92926a4b)
REM
REM compiler GCC version 9.2.1 20190827 (Red Hat 9.2.1-1)
REM options -cpp -mtune=generic -march=x86-64 -g -O0 -fpre-include=/usr/include/finclude/math-vector-fortran.h
REM seed 1132935657 -2110408835 -1382480104 1585422292 1537351783 -1240681134 1133774484 -501468467 1693179138 1894503164 -2102525339 380042868 1831621029 -1714669797 -1306114475 -393174869 155139221 1924577178 -872140071 -1696357292 -1755704414 -58630875 675644284 317699849 -911808503 2080672839 -2033061779 1199190793 -927713965 514389880 1105945844 -202863563 -613463694
REM
CELL 1.54180   50.00000   50.00000   50.00000   90.00000   90.00000   90.00000
LATT -1
SFAC C  
C      1  0.4114510000000  0.4292030000000  0.4767380000000 1.0
C      1  0.5870890000000  0.5515650000000  0.4514850000000 1.0
C      1  0.5083350000000  0.5342620000000  0.5014660000000 1.0
C      1  0.5339840000000  0.4640920000000  0.5045860000000 1.0
C      1  0.5560900000000  0.4968410000000  0.5754400000000 1.0
C      1  0.4479180000000  0.5140970000000  0.5797620000000 1.0
C      1  0.4914550000000  0.4320240000000  0.5645720000000 1.0
C      1  0.5268820000000  0.4944780000000  0.5681160000000 1.0
C      1  0.4016450000000  0.4783030000000  0.5113040000000 1.0
C      1  0.4568560000000  0.5196980000000  0.4906580000000 1.0
C      1  0.5749120000000  0.5512720000000  0.5480830000000 1.0
C      1  0.5316940000000  0.4470560000000  0.4255210000000 1.0
C      1  0.5523780000000  0.5732410000000  0.4692430000000 1.0
C      1  0.5141250000000  0.4835320000000  0.5101960000000 1.0
C      1  0.4131290000000  0.5431830000000  0.5198860000000 1.0
C      1  0.4287340000000  0.4507560000000  0.5433760000000 1.0
C      1  0.5404080000000  0.5165330000000  0.5392590000000 1.0
C      1  0.4068790000000  0.4507610000000  0.5234250000000 1.0
C      1  0.4837860000000  0.5668840000000  0.4113540000000 1.0
C      1  0.5214250000000  0.6066580000000  0.4905850000000 1.0
C      1  0.4093930000000  0.4265810000000  0.5059490000000 1.0
C      1  0.4474570000000  0.4612250000000  0.5857850000000 1.0
C      1  0.4799540000000  0.4079890000000  0.4984540000000 1.0
C      1  0.4597480000000  0.4764650000000  0.4667400000000 1.0
C      1  0.4932910000000  0.5601810000000  0.5554040000000 1.0
C      1  0.5182610000000  0.4224520000000  0.5568930000000 1.0
C      1  0.4854400000000  0.4666400000000  0.4533110000000 1.0
C      1  0.5103160000000  0.4603460000000  0.4105080000000 1.0
C      1  0.4566930000000  0.5630920000000  0.5007490000000 1.0
C      1  0.5863270000000  0.5352610000000  0.5252550000000 1.0
C      1  0.4503240000000  0.4059860000000  0.4921880000000 1.0
C      1  0.4328020000000  0.5423080000000  0.4962700000000 1.0
C      1  0.5290390000000  0.5563630000000  0.5084430000000 1.0
C      1  0.5051460000000  0.5001500000000  0.6066000000000 1.0
C      1  0.4752590000000  0.4978270000000  0.5349350000000 1.0
C      1  0.4595250000000  0.4971840000000  0.4081820000000 1.0
C      1  0.5067150000000  0.4887650000000  0.4448330000000 1.0
C      1  0.4477480000000  0.5436290000000  0.5765630000000 1.0
C      1  0.4732650000000  0.5020350000000  0.5681580000000 1.0
C      1  0.5301670000000  0.5672110000000  0.5350420000000 1.0
C      1  0.5380020000000  0.4439640000000  0.5598040000000 1.0
C      1  0.5402510000000  0.4081280000000  0.4592640000000 1.0
C      1  0.4802750000000  0.5250830000000  0.5157820000000 1.0
C      1  0.6046810000000  0.5172920000000  0.5546120000000 1.0
C      1  0.4142450000000  0.5216700000000  0.4578740000000 1.0
C      1  0.5153800000000  0.4040910000000  0.5333460000000 1.0
C      1  0.4790030000000  0.5170570000000  0.4123330000000 1.0
C      1  0.5384110000000  0.6073990000000  0.5126630000000 1.0
C      1  0.5622520000000  0.5207250000000  0.4891010000000 1.0
C      1  0.5404950000000  0.5309450000000  0.4460060000000 1.0
C      1  0.4390350000000  0.4934620000000  0.4269620000000 1.0
C      1  0.5414130000000  0.5930110000000  0.5352150000000 1.0
C      1  0.4241820000000  0.4992360000000  0.5677910000000 1.0
C      1  0.5677570000000  0.4112800000000  0.4619900000000 1.0
C      1  0.4732850000000  0.6016430000000  0.4786960000000 1.0
C      1  0.4857000000000  0.4798240000000  0.6096640000000 1.0
C      1  0.5594800000000  0.5553900000000  0.4475350000000 1.0
C      1  0.5788820000000  0.4528520000000  0.4811290000000 1.0
C      1  0.5129190000000  0.4889260000000  0.4139330000000 1.0
C      1  0.5652730000000  0.5112570000000  0.5191990000000 1.0
C      1  0.4272390000000  0.5669570000000  0.4561890000000 1.0
C      1  0.4939260000000  0.6132260000000  0.4960980000000 1.0
C      1  0.4471090000000  0.4905910000000  0.4914930000000 1.0
C      1  0.5399020000000  0.5141250000000  0.4712540000000 1.0
C      1  0.5648070000000  0.4520670000000  0.5531510000000 1.0
C      1  0.5345920000000  0.5028860000000  0.4024420000000 1.0
C      1  0.5753270000000  0.4375610000000  0.5306800000000 1.0
C      1  0.4475590000000  0.5438920000000  0.5470650000000 1.0
C      1  0.5103260000000  0.5897120000000  0.4444730000000 1.0
C      1  0.4220930000000  0.4919680000000  0.5299430000000 1.0
C      1  0.4725500000000  0.4750010000000  0.5836230000000 1.0
C      1  0.4377120000000  0.4197250000000  0.4674020000000 1.0
C      1  0.4289550000000  0.4690100000000  0.5667760000000 1.0
C      1  0.4657070000000  0.5796280000000  0.4310630000000 1.0
C      1  0.5568150000000  0.4603110000000  0.4253500000000 1.0
C      1  0.4987520000000  0.5455320000000  0.4738790000000 1.0
C      1  0.5086790000000  0.5653320000000  0.4274830000000 1.0
C      1  0.5998570000000  0.5422900000000  0.4748820000000 1.0
C      1  0.4639600000000  0.5230450000000  0.4588030000000 1.0
C      1  0.4845890000000  0.4370810000000  0.4948970000000 1.0
C      1  0.4976470000000  0.3919080000000  0.4808580000000 1.0
C      1  0.4736880000000  0.4273340000000  0.5406650000000 1.0
C      1  0.5372560000000  0.4020450000000  0.5105000000000 1.0
C      1  0.5956870000000  0.4918970000000  0.5448950000000 1.0
C      1  0.5643980000000  0.5237590000000  0.5835330000000 1.0
C      1  0.4904100000000  0.5168380000000  0.4403760000000 1.0
C      1  0.5888850000000  0.5142250000000  0.4759670000000 1.0
C      1  0.4514920000000  0.5925060000000  0.4992560000000 1.0
C      1  0.4939430000000  0.4597830000000  0.5708270000000 1.0
C      1  0.5453320000000  0.5462310000000  0.5498740000000 1.0
C      1  0.5572610000000  0.5557380000000  0.4934890000000 1.0
C      1  0.5886140000000  0.5544160000000  0.5005760000000 1.0
C      1  0.5368260000000  0.4869200000000  0.4602210000000 1.0
C      1  0.4122790000000  0.4708750000000  0.4616420000000 1.0
C      1  0.5020470000000  0.5126090000000  0.5794430000000 1.0
C      1  0.5265830000000  0.5877600000000  0.4688590000000 1.0
C      1  0.5166280000000  0.4709350000000  0.5873880000000 1.0
C      1  0.4946830000000  0.4757180000000  0.5294820000000 1.0
C      1  0.5679850000000  0.4163290000000  0.5108340000000 1.0
C      1  0.5259500000000  0.3984830000000  0.4831380000000 1.0
C      1  0.6005750000000  0.4862410000000  0.5180280000000 1.0
C      1  0.4733880000000  0.5628050000000  0.4746090000000 1.0
C      1  0.5863120000000  0.4921560000000  0.4515280000000 1.0
C      1  0.5437830000000  0.4648140000000  0.4783970000000 1.0
C      1  0.4732040000000  0.5494680000000  0.5330150000000 1.0
C      1  0.4736480000000  0.4311210000000  0.4293740000000 1.0
C      1  0.4885040000000  0.3933680000000  0.4547510000000 1.0
C      1  0.4862200000000  0.4033960000000  0.5270040000000 1.0
C      1  0.4598350000000  0.6049290000000  0.5246550000000 1.0
C      1  0.4266050000000  0.5627270000000  0.5377460000000 1.0
C      1  0.6059610000000  0.4927580000000  0.4913360000000 1.0
C      1  0.5075240000000  0.5420910000000  0.5774050000000 1.0
C      1  0.4819750000000  0.5975610000000  0.4485860000000 1.0
C      1  0.5241660000000  0.4214600000000  0.4381060000000 1.0
C      1  0.4385810000000  0.4693910000000  0.4467890000000 1.0
C      1  0.5793710000000  0.4239010000000  0.4839700000000 1.0
C      1  0.4687640000000  0.5611880000000  0.5859030000000 1.0
C      1  0.4775300000000  0.4518170000000  0.5207290000000 1.0
C      1  0.4750190000000  0.5827530000000  0.5670470000000 1.0
C      1  0.4850300000000  0.6179590000000  0.5223050000000 1.0
C      1  0.5363140000000  0.5469690000000  0.5783960000000 1.0
C      1  0.3956990000000  0.4482540000000  0.4633390000000 1.0
C      1  0.4470450000000  0.4349400000000  0.4424750000000 1.0
C      1  0.4824180000000  0.4554460000000  0.4174920000000 1.0
C      1  0.4325820000000  0.4109320000000  0.5163460000000 1.0
C      1  0.4953680000000  0.4208670000000  0.4473210000000 1.0
C      1  0.4432410000000  0.4248590000000  0.5416570000000 1.0
C      1  0.4167640000000  0.4870570000000  0.4860500000000 1.0
C      1  0.5878190000000  0.5358700000000  0.5696440000000 1.0
C      1  0.5259020000000  0.5105230000000  0.5116690000000 1.0
C      1  0.4949450000000  0.4429420000000  0.4684790000000 1.0
C      1  0.4381010000000  0.5184960000000  0.4429950000000 1.0
C      1  0.4536210000000  0.5882440000000  0.5477260000000 1.0
C      1  0.4177470000000  0.5459280000000  0.4713170000000 1.0
C      1  0.5103510000000  0.5403690000000  0.4456770000000 1.0
C      1  0.5376110000000  0.4398360000000  0.5213430000000 1.0
C      1  0.4750250000000  0.5422120000000  0.4017300000000 1.0
C      1  0.5590160000000  0.4863260000000  0.4389940000000 1.0
C      1  0.4122970000000  0.5192450000000  0.5367230000000 1.0
C      1  0.5502400000000  0.5108700000000  0.4237650000000 1.0
C      1  0.5719840000000  0.4803480000000  0.5569760000000 1.0
C      1  0.5988030000000  0.4713790000000  0.4704780000000 1.0
C      1  0.4517880000000  0.4812660000000  0.5210800000000 1.0
C      1  0.4543040000000  0.5593090000000  0.4500590000000 1.0
END
