TITL C-950529-3362-39 -5.09730029038876e-06 125000 -1078.69412123128 0 0 173 (C1) n - 1
REM
REM in /home/bkarasulu/work/CARBON/AIRSS/Generating-Clusters/EDIP-Nigel-Params/with-SteepDescent/Only-C1/SD-CG/HFTN-CG
REM
REM
REM
REM
REM
REM ./C.cell (11c1c37f851c82e70ff6c80c92926a4b)
REM
REM compiler GCC version 9.2.1 20190827 (Red Hat 9.2.1-1)
REM options -cpp -mtune=generic -march=x86-64 -g -O0 -fpre-include=/usr/include/finclude/math-vector-fortran.h
REM seed -458178123 1349809600 2089890980 1361850908 -1419359918 1118061986 -28630492 -1074746884 60600775 718446889 1605793656 -1185913622 1310595294 -1707131248 322436066 521459625 301860908 934196136 1126088027 774495176 337020561 -575681707 829060530 1732840221 -687256843 -888148715 -95953128 547554879 969115880 -253915784 161800519 1810313249 1832418706
REM
CELL 1.54180   50.00000   50.00000   50.00000   90.00000   90.00000   90.00000
LATT -1
SFAC C  
C      1  0.5323430000000  0.4568470000000  0.4210690000000 1.0
C      1  0.5558860000000  0.4207040000000  0.5398840000000 1.0
C      1  0.4810470000000  0.5077060000000  0.4837960000000 1.0
C      1  0.4996160000000  0.4558720000000  0.6055000000000 1.0
C      1  0.5377590000000  0.4427410000000  0.5297310000000 1.0
C      1  0.5285700000000  0.5178700000000  0.4285740000000 1.0
C      1  0.5317570000000  0.4722810000000  0.3963370000000 1.0
C      1  0.5207570000000  0.5013190000000  0.5029260000000 1.0
C      1  0.4632400000000  0.4678960000000  0.5044490000000 1.0
C      1  0.5128470000000  0.5354870000000  0.5870220000000 1.0
C      1  0.5143130000000  0.5303220000000  0.5104500000000 1.0
C      1  0.4245100000000  0.5569770000000  0.5155490000000 1.0
C      1  0.5844400000000  0.4421850000000  0.5110600000000 1.0
C      1  0.5916490000000  0.5161100000000  0.5540990000000 1.0
C      1  0.4491170000000  0.5137530000000  0.5317880000000 1.0
C      1  0.4830030000000  0.3931900000000  0.5301440000000 1.0
C      1  0.4637560000000  0.5696840000000  0.4820310000000 1.0
C      1  0.5214370000000  0.5770710000000  0.5025960000000 1.0
C      1  0.4700190000000  0.5507320000000  0.5942840000000 1.0
C      1  0.4643930000000  0.5248560000000  0.5578840000000 1.0
C      1  0.5338190000000  0.5502710000000  0.4989650000000 1.0
C      1  0.5409420000000  0.4241000000000  0.4664610000000 1.0
C      1  0.4653220000000  0.3971900000000  0.4862310000000 1.0
C      1  0.4207630000000  0.4885970000000  0.4359840000000 1.0
C      1  0.4124780000000  0.4747280000000  0.5562630000000 1.0
C      1  0.5575040000000  0.5136750000000  0.4193380000000 1.0
C      1  0.4622420000000  0.4928330000000  0.4095330000000 1.0
C      1  0.4793840000000  0.5659270000000  0.4133780000000 1.0
C      1  0.4028960000000  0.4423200000000  0.5175650000000 1.0
C      1  0.4939340000000  0.4368920000000  0.5509690000000 1.0
C      1  0.5509650000000  0.5826060000000  0.4244690000000 1.0
C      1  0.4394510000000  0.4394490000000  0.5785570000000 1.0
C      1  0.5904140000000  0.4864740000000  0.4788380000000 1.0
C      1  0.5317050000000  0.4280160000000  0.4181640000000 1.0
C      1  0.4628440000000  0.4261600000000  0.5862700000000 1.0
C      1  0.4910750000000  0.5714790000000  0.4707600000000 1.0
C      1  0.5003280000000  0.4434100000000  0.5054380000000 1.0
C      1  0.4632210000000  0.4097800000000  0.5130950000000 1.0
C      1  0.5569430000000  0.5238610000000  0.4727800000000 1.0
C      1  0.4412450000000  0.4275420000000  0.4289720000000 1.0
C      1  0.5655450000000  0.4629440000000  0.5775040000000 1.0
C      1  0.5606690000000  0.4814780000000  0.4927610000000 1.0
C      1  0.5394930000000  0.5461290000000  0.4697550000000 1.0
C      1  0.5809900000000  0.4369730000000  0.5386840000000 1.0
C      1  0.5272160000000  0.5678520000000  0.4246940000000 1.0
C      1  0.4970440000000  0.4780290000000  0.5862280000000 1.0
C      1  0.4312350000000  0.5221880000000  0.5800900000000 1.0
C      1  0.4447940000000  0.5473540000000  0.5824380000000 1.0
C      1  0.5594320000000  0.5268400000000  0.5166400000000 1.0
C      1  0.4915250000000  0.3992920000000  0.4745040000000 1.0
C      1  0.3882080000000  0.4920210000000  0.4719390000000 1.0
C      1  0.6010880000000  0.5461710000000  0.4641410000000 1.0
C      1  0.5102780000000  0.5041840000000  0.5464880000000 1.0
C      1  0.4813640000000  0.4167490000000  0.5677980000000 1.0
C      1  0.4866590000000  0.5272410000000  0.5957070000000 1.0
C      1  0.4561880000000  0.4521570000000  0.4307080000000 1.0
C      1  0.3903950000000  0.5068000000000  0.5198130000000 1.0
C      1  0.4760220000000  0.6126050000000  0.4906040000000 1.0
C      1  0.5604850000000  0.4950810000000  0.5214630000000 1.0
C      1  0.4053550000000  0.5394840000000  0.4644000000000 1.0
C      1  0.4761080000000  0.5000710000000  0.5919320000000 1.0
C      1  0.5282100000000  0.5776170000000  0.5611140000000 1.0
C      1  0.4084670000000  0.5007850000000  0.5419200000000 1.0
C      1  0.4889040000000  0.5329470000000  0.4969750000000 1.0
C      1  0.5072310000000  0.6105980000000  0.5274810000000 1.0
C      1  0.5054730000000  0.4653240000000  0.4323940000000 1.0
C      1  0.4785950000000  0.3911060000000  0.5576140000000 1.0
C      1  0.5084450000000  0.4892520000000  0.3948320000000 1.0
C      1  0.5275180000000  0.6034090000000  0.4673480000000 1.0
C      1  0.4831510000000  0.4506980000000  0.4145260000000 1.0
C      1  0.5078170000000  0.5175470000000  0.4060460000000 1.0
C      1  0.5075240000000  0.5808870000000  0.5291040000000 1.0
C      1  0.3869310000000  0.5184380000000  0.4624340000000 1.0
C      1  0.4839260000000  0.4982890000000  0.5324250000000 1.0
C      1  0.4270420000000  0.4277390000000  0.5532590000000 1.0
C      1  0.4507340000000  0.4716580000000  0.4780160000000 1.0
C      1  0.5149040000000  0.5328880000000  0.5426020000000 1.0
C      1  0.4233130000000  0.4613960000000  0.4782390000000 1.0
C      1  0.5306420000000  0.4603280000000  0.5539510000000 1.0
C      1  0.5868510000000  0.4881850000000  0.5380090000000 1.0
C      1  0.4135170000000  0.5489600000000  0.5415860000000 1.0
C      1  0.4578600000000  0.4690270000000  0.5510520000000 1.0
C      1  0.4942770000000  0.5050620000000  0.4567970000000 1.0
C      1  0.6054450000000  0.5413570000000  0.5442220000000 1.0
C      1  0.5265490000000  0.4142790000000  0.4422480000000 1.0
C      1  0.4828130000000  0.4140160000000  0.4240530000000 1.0
C      1  0.5237510000000  0.5445860000000  0.4435080000000 1.0
C      1  0.4313600000000  0.5318510000000  0.4173690000000 1.0
C      1  0.4972520000000  0.4609160000000  0.4608100000000 1.0
C      1  0.4058760000000  0.4469320000000  0.5460410000000 1.0
C      1  0.5823990000000  0.5756020000000  0.5086820000000 1.0
C      1  0.5704790000000  0.5643230000000  0.4333180000000 1.0
C      1  0.4065860000000  0.4746140000000  0.4572650000000 1.0
C      1  0.4994570000000  0.5988270000000  0.4633860000000 1.0
C      1  0.4521060000000  0.5955890000000  0.4895980000000 1.0
C      1  0.4380580000000  0.4705000000000  0.5725950000000 1.0
C      1  0.5650270000000  0.5237350000000  0.5643210000000 1.0
C      1  0.4866150000000  0.5479480000000  0.5535310000000 1.0
C      1  0.5809670000000  0.4624720000000  0.5539070000000 1.0
C      1  0.5415420000000  0.6013540000000  0.5113720000000 1.0
C      1  0.5396750000000  0.4989370000000  0.4772180000000 1.0
C      1  0.4161410000000  0.5499700000000  0.4357490000000 1.0
C      1  0.5167080000000  0.4502960000000  0.4818750000000 1.0
C      1  0.4816730000000  0.5357960000000  0.4095500000000 1.0
C      1  0.4440400000000  0.4799270000000  0.5257990000000 1.0
C      1  0.5741140000000  0.5833320000000  0.4811740000000 1.0
C      1  0.3925520000000  0.4862870000000  0.5004540000000 1.0
C      1  0.5493040000000  0.5390510000000  0.5439070000000 1.0
C      1  0.5903250000000  0.5272980000000  0.5121520000000 1.0
C      1  0.4896890000000  0.4666260000000  0.5570210000000 1.0
C      1  0.4731540000000  0.4953660000000  0.4385770000000 1.0
C      1  0.4675470000000  0.4564150000000  0.4588860000000 1.0
C      1  0.4378090000000  0.5874140000000  0.5153410000000 1.0
C      1  0.4695260000000  0.5519350000000  0.5059520000000 1.0
C      1  0.5892440000000  0.4412200000000  0.4666480000000 1.0
C      1  0.5007830000000  0.5799730000000  0.4288350000000 1.0
C      1  0.5630680000000  0.5867030000000  0.5279840000000 1.0
C      1  0.4471520000000  0.4966320000000  0.5866670000000 1.0
C      1  0.4928180000000  0.5486030000000  0.4507550000000 1.0
C      1  0.4793360000000  0.6137840000000  0.5196430000000 1.0
C      1  0.4827060000000  0.4754200000000  0.3957420000000 1.0
C      1  0.5329680000000  0.5167650000000  0.5940140000000 1.0
C      1  0.4033330000000  0.5502610000000  0.4930570000000 1.0
C      1  0.5864630000000  0.5698440000000  0.4576950000000 1.0
C      1  0.5415590000000  0.4021890000000  0.4895500000000 1.0
C      1  0.5120200000000  0.3983600000000  0.5223650000000 1.0
C      1  0.5904050000000  0.4988540000000  0.4516620000000 1.0
C      1  0.4392720000000  0.4750680000000  0.4184300000000 1.0
C      1  0.6099260000000  0.4835660000000  0.5190300000000 1.0
C      1  0.5214110000000  0.4959790000000  0.4498850000000 1.0
C      1  0.4140200000000  0.5245330000000  0.5561920000000 1.0
C      1  0.5306170000000  0.4324350000000  0.5746680000000 1.0
C      1  0.4458380000000  0.5366700000000  0.5120960000000 1.0
C      1  0.5633680000000  0.4423900000000  0.4568160000000 1.0
C      1  0.4553880000000  0.5222800000000  0.4036290000000 1.0
C      1  0.4992110000000  0.4064930000000  0.4466550000000 1.0
C      1  0.5328670000000  0.4865980000000  0.5373520000000 1.0
C      1  0.5506210000000  0.4522700000000  0.4979060000000 1.0
C      1  0.5255350000000  0.4898430000000  0.5857080000000 1.0
C      1  0.4141930000000  0.4669650000000  0.5060640000000 1.0
C      1  0.5507630000000  0.3999510000000  0.5182460000000 1.0
C      1  0.6091970000000  0.4564030000000  0.5057500000000 1.0
C      1  0.5597800000000  0.5244990000000  0.5918950000000 1.0
C      1  0.4347820000000  0.5742940000000  0.4397040000000 1.0
C      1  0.4346980000000  0.4126310000000  0.5268370000000 1.0
C      1  0.6057610000000  0.4608140000000  0.4770190000000 1.0
C      1  0.4563920000000  0.4060380000000  0.4234550000000 1.0
C      1  0.3874040000000  0.5326390000000  0.5087020000000 1.0
C      1  0.4494740000000  0.5091660000000  0.4497630000000 1.0
C      1  0.4136160000000  0.4175140000000  0.5089730000000 1.0
C      1  0.5138490000000  0.3926330000000  0.4926920000000 1.0
C      1  0.4520530000000  0.5016750000000  0.4773580000000 1.0
C      1  0.4867920000000  0.5713690000000  0.5833500000000 1.0
C      1  0.5705350000000  0.4889300000000  0.4322180000000 1.0
C      1  0.5512080000000  0.6030680000000  0.4826950000000 1.0
C      1  0.4618180000000  0.5922900000000  0.5327570000000 1.0
C      1  0.4449410000000  0.5561820000000  0.4626080000000 1.0
C      1  0.4538160000000  0.5761000000000  0.4191330000000 1.0
C      1  0.6030910000000  0.5550530000000  0.5167460000000 1.0
C      1  0.5440790000000  0.4693260000000  0.5949120000000 1.0
C      1  0.6054070000000  0.5042270000000  0.4985890000000 1.0
C      1  0.5551410000000  0.4642800000000  0.4388130000000 1.0
C      1  0.5738240000000  0.5385580000000  0.4191640000000 1.0
C      1  0.5263210000000  0.4460450000000  0.6008180000000 1.0
C      1  0.5524590000000  0.5686550000000  0.5490980000000 1.0
C      1  0.5496250000000  0.4127660000000  0.5674740000000 1.0
C      1  0.4619860000000  0.5370650000000  0.4489750000000 1.0
C      1  0.4905270000000  0.4866470000000  0.5041090000000 1.0
C      1  0.4719480000000  0.4390610000000  0.5063450000000 1.0
C      1  0.4796860000000  0.5679290000000  0.5305900000000 1.0
C      1  0.5146900000000  0.5645910000000  0.5830450000000 1.0
C      1  0.5113140000000  0.4291800000000  0.5274130000000 1.0
C      1  0.5810010000000  0.5264690000000  0.4546070000000 1.0
END
