TITL C-951340-9809-476 -9.91082346343249e-07 125000 -333.206928835373 0 0 55 (C1) n - 1
REM
REM in /home/bkarasulu/work/CARBON/AIRSS/Generating-Clusters/EDIP-Nigel-Params/with-SteepDescent/Only-C1/SD-CG/HFTN-CG
REM
REM
REM
REM
REM
REM ./C.cell (11c1c37f851c82e70ff6c80c92926a4b)
REM
REM compiler GCC version 9.2.1 20190827 (Red Hat 9.2.1-1)
REM options -cpp -mtune=generic -march=x86-64 -g -O0 -fpre-include=/usr/include/finclude/math-vector-fortran.h
REM seed 1362136296 798291630 3932157 -1055138054 1541285372 -108143087 -104676431 -428199776 1953065313 1382136666 1406018895 -1929095937 449017963 -192514072 -669138098 -879526702 -1091535646 -675259374 -1896237723 -1640642732 -1742999752 -720606689 1988799530 1904362686 -596433453 1728595283 1843311844 -870266347 -1493140596 1650288009 -670426211 -289288930 2119818207
REM
CELL 1.54180   50.00000   50.00000   50.00000   90.00000   90.00000   90.00000
LATT -1
SFAC C  
C      1  0.5111930000000  0.4451980000000  0.5263220000000 1.0
C      1  0.5382370000000  0.5279790000000  0.4984130000000 1.0
C      1  0.5270670000000  0.4789250000000  0.4641470000000 1.0
C      1  0.5022070000000  0.4800610000000  0.4474270000000 1.0
C      1  0.5353400000000  0.5578020000000  0.4964410000000 1.0
C      1  0.5710810000000  0.4774270000000  0.4912570000000 1.0
C      1  0.5298860000000  0.4672450000000  0.5170400000000 1.0
C      1  0.5149330000000  0.4298280000000  0.4824300000000 1.0
C      1  0.4448080000000  0.4609670000000  0.5251840000000 1.0
C      1  0.4999330000000  0.5678500000000  0.4673690000000 1.0
C      1  0.5279350000000  0.5318580000000  0.4560460000000 1.0
C      1  0.5695740000000  0.5055630000000  0.4993590000000 1.0
C      1  0.4761980000000  0.4953610000000  0.5219810000000 1.0
C      1  0.4864620000000  0.5197740000000  0.4789230000000 1.0
C      1  0.4481290000000  0.5368800000000  0.5027000000000 1.0
C      1  0.4636340000000  0.4866280000000  0.5699890000000 1.0
C      1  0.5173440000000  0.5695610000000  0.5145240000000 1.0
C      1  0.4881220000000  0.5065640000000  0.4490640000000 1.0
C      1  0.4939010000000  0.4575670000000  0.4653330000000 1.0
C      1  0.4449410000000  0.4894690000000  0.4834070000000 1.0
C      1  0.5027190000000  0.5101240000000  0.5288110000000 1.0
C      1  0.5100350000000  0.4789450000000  0.5593430000000 1.0
C      1  0.4450660000000  0.5120550000000  0.5392530000000 1.0
C      1  0.4838150000000  0.4619800000000  0.4942040000000 1.0
C      1  0.5471340000000  0.4550680000000  0.4583670000000 1.0
C      1  0.5116090000000  0.5122710000000  0.4988280000000 1.0
C      1  0.4923600000000  0.5287120000000  0.5612570000000 1.0
C      1  0.4199600000000  0.4732560000000  0.5300600000000 1.0
C      1  0.4807950000000  0.5493230000000  0.4755730000000 1.0
C      1  0.4803470000000  0.5454620000000  0.5404510000000 1.0
C      1  0.5702250000000  0.4734660000000  0.4617540000000 1.0
C      1  0.5396170000000  0.5119040000000  0.5385540000000 1.0
C      1  0.4943190000000  0.4559790000000  0.5480970000000 1.0
C      1  0.4953450000000  0.5664500000000  0.5296760000000 1.0
C      1  0.4189730000000  0.4997870000000  0.5374560000000 1.0
C      1  0.4575640000000  0.5586390000000  0.4876780000000 1.0
C      1  0.4908950000000  0.5001730000000  0.5702900000000 1.0
C      1  0.5282660000000  0.5138080000000  0.4167450000000 1.0
C      1  0.5436830000000  0.4373210000000  0.4818920000000 1.0
C      1  0.5639410000000  0.5169930000000  0.5247980000000 1.0
C      1  0.5337600000000  0.4841070000000  0.5421310000000 1.0
C      1  0.5167550000000  0.4828730000000  0.4934480000000 1.0
C      1  0.4683890000000  0.4722270000000  0.5418450000000 1.0
C      1  0.4534930000000  0.4639610000000  0.4965250000000 1.0
C      1  0.5540590000000  0.4558210000000  0.5040290000000 1.0
C      1  0.4615550000000  0.5040800000000  0.4378630000000 1.0
C      1  0.5063730000000  0.5254210000000  0.4339390000000 1.0
C      1  0.4426080000000  0.5061940000000  0.5675090000000 1.0
C      1  0.4522740000000  0.5398600000000  0.5317760000000 1.0
C      1  0.4463310000000  0.4909490000000  0.4557270000000 1.0
C      1  0.4623580000000  0.5099550000000  0.4965410000000 1.0
C      1  0.5631680000000  0.4971330000000  0.4483370000000 1.0
C      1  0.5262350000000  0.5583350000000  0.4684710000000 1.0
C      1  0.4957740000000  0.4360500000000  0.5037930000000 1.0
C      1  0.5492730000000  0.5188070000000  0.4376220000000 1.0
END
