TITL C-951345-2650-240 -2.68928330917239e-07 125000 -1090.30844206358 0 0 174 (C1) n - 1
REM
REM in /home/bkarasulu/work/CARBON/AIRSS/Generating-Clusters/EDIP-Nigel-Params/with-SteepDescent/Only-C1/SD-CG/HFTN-CG
REM
REM
REM
REM
REM
REM ./C.cell (11c1c37f851c82e70ff6c80c92926a4b)
REM
REM compiler GCC version 9.2.1 20190827 (Red Hat 9.2.1-1)
REM options -cpp -mtune=generic -march=x86-64 -g -O0 -fpre-include=/usr/include/finclude/math-vector-fortran.h
REM seed -1814610149 -2012807483 -732887629 1581488347 488745888 -1503897005 1404410272 92196429 -1127046651 1290398065 -683006397 -1526936286 -1081522349 -301988836 -1395010268 1535269539 -1297293577 1984846806 839095065 -336452618 -197555233 1726272029 442953487 -1248410066 -872841946 -1477399006 -1040893643 2136573608 1313501185 -1093751544 917345855 -1262057879 -318742026
REM
CELL 1.54180   50.00000   50.00000   50.00000   90.00000   90.00000   90.00000
LATT -1
SFAC C  
C      1  0.5115440000000  0.6037740000000  0.5362230000000 1.0
C      1  0.5744580000000  0.5250800000000  0.4966670000000 1.0
C      1  0.5336370000000  0.4995520000000  0.5187890000000 1.0
C      1  0.4343790000000  0.4326720000000  0.5353320000000 1.0
C      1  0.4909380000000  0.5195120000000  0.5258480000000 1.0
C      1  0.4724240000000  0.4398330000000  0.4710930000000 1.0
C      1  0.4324780000000  0.5560810000000  0.5673260000000 1.0
C      1  0.4895350000000  0.4939700000000  0.5971190000000 1.0
C      1  0.6133290000000  0.5215540000000  0.4758680000000 1.0
C      1  0.4734630000000  0.4128430000000  0.4585960000000 1.0
C      1  0.4855950000000  0.4752610000000  0.4342330000000 1.0
C      1  0.5530870000000  0.4293250000000  0.4323100000000 1.0
C      1  0.4726330000000  0.5356720000000  0.3923230000000 1.0
C      1  0.4780110000000  0.5838900000000  0.5753170000000 1.0
C      1  0.4701510000000  0.4692520000000  0.6011360000000 1.0
C      1  0.4752890000000  0.5834840000000  0.4441900000000 1.0
C      1  0.5432060000000  0.5596700000000  0.5087200000000 1.0
C      1  0.4731900000000  0.4159050000000  0.4286330000000 1.0
C      1  0.4496910000000  0.4927050000000  0.4868980000000 1.0
C      1  0.5016580000000  0.5315880000000  0.3842090000000 1.0
C      1  0.5165700000000  0.4602080000000  0.4675020000000 1.0
C      1  0.5076450000000  0.4989350000000  0.6199960000000 1.0
C      1  0.4524040000000  0.3989060000000  0.5023680000000 1.0
C      1  0.5916950000000  0.5290010000000  0.4316700000000 1.0
C      1  0.4153360000000  0.4266890000000  0.4947970000000 1.0
C      1  0.4459680000000  0.5227190000000  0.6019250000000 1.0
C      1  0.5343490000000  0.5096130000000  0.6146410000000 1.0
C      1  0.5409080000000  0.5721040000000  0.5651570000000 1.0
C      1  0.5195510000000  0.5541510000000  0.5775840000000 1.0
C      1  0.5046150000000  0.5018740000000  0.3811680000000 1.0
C      1  0.4037560000000  0.4672360000000  0.4588090000000 1.0
C      1  0.4521730000000  0.4313440000000  0.4194990000000 1.0
C      1  0.4730900000000  0.5415050000000  0.4213110000000 1.0
C      1  0.6045870000000  0.5112980000000  0.4489350000000 1.0
C      1  0.5454900000000  0.5009610000000  0.4555380000000 1.0
C      1  0.4871260000000  0.4643380000000  0.4631120000000 1.0
C      1  0.4665190000000  0.5586550000000  0.5281870000000 1.0
C      1  0.5379110000000  0.4119690000000  0.5584710000000 1.0
C      1  0.4283640000000  0.5271830000000  0.5748400000000 1.0
C      1  0.5015690000000  0.5485410000000  0.4287520000000 1.0
C      1  0.6104430000000  0.5492070000000  0.4892340000000 1.0
C      1  0.4623950000000  0.5592760000000  0.5766940000000 1.0
C      1  0.5221760000000  0.4932180000000  0.4043760000000 1.0
C      1  0.5581400000000  0.5425710000000  0.5346720000000 1.0
C      1  0.6072230000000  0.4894710000000  0.4948070000000 1.0
C      1  0.4468770000000  0.5959400000000  0.4843260000000 1.0
C      1  0.4021800000000  0.5436940000000  0.5005930000000 1.0
C      1  0.6023990000000  0.4815100000000  0.5250140000000 1.0
C      1  0.4733450000000  0.5640900000000  0.4981200000000 1.0
C      1  0.5091660000000  0.5258200000000  0.4481450000000 1.0
C      1  0.5416410000000  0.5310790000000  0.4556680000000 1.0
C      1  0.4605150000000  0.4941600000000  0.5634450000000 1.0
C      1  0.5051340000000  0.4931570000000  0.5289120000000 1.0
C      1  0.4212820000000  0.5252710000000  0.4234810000000 1.0
C      1  0.5438740000000  0.5895710000000  0.4763190000000 1.0
C      1  0.5385410000000  0.5198460000000  0.5399030000000 1.0
C      1  0.4978080000000  0.3989760000000  0.4697980000000 1.0
C      1  0.4424850000000  0.5513640000000  0.4602090000000 1.0
C      1  0.4784730000000  0.4915100000000  0.3779940000000 1.0
C      1  0.4974050000000  0.5705320000000  0.5902710000000 1.0
C      1  0.4968620000000  0.4262250000000  0.4185800000000 1.0
C      1  0.4012050000000  0.5244560000000  0.4776930000000 1.0
C      1  0.5604230000000  0.4596670000000  0.4822160000000 1.0
C      1  0.5684510000000  0.4865490000000  0.4672880000000 1.0
C      1  0.4384950000000  0.4767050000000  0.5355210000000 1.0
C      1  0.5692010000000  0.5439010000000  0.4243760000000 1.0
C      1  0.3937640000000  0.4736470000000  0.4853920000000 1.0
C      1  0.5773220000000  0.5774560000000  0.5141790000000 1.0
C      1  0.5273750000000  0.4635860000000  0.4076880000000 1.0
C      1  0.4858600000000  0.4033080000000  0.5453260000000 1.0
C      1  0.4710660000000  0.4301970000000  0.5655020000000 1.0
C      1  0.5581750000000  0.5974080000000  0.5236410000000 1.0
C      1  0.5905200000000  0.4345500000000  0.5097230000000 1.0
C      1  0.4047390000000  0.4654450000000  0.5587250000000 1.0
C      1  0.5217970000000  0.4012030000000  0.4557450000000 1.0
C      1  0.5314420000000  0.5058320000000  0.5658280000000 1.0
C      1  0.4277860000000  0.4572160000000  0.5736890000000 1.0
C      1  0.4414880000000  0.4341080000000  0.5617880000000 1.0
C      1  0.5039620000000  0.4903170000000  0.5680790000000 1.0
C      1  0.4986840000000  0.4020370000000  0.4988930000000 1.0
C      1  0.5098040000000  0.5605130000000  0.5074220000000 1.0
C      1  0.4678790000000  0.4744570000000  0.5429290000000 1.0
C      1  0.5458320000000  0.5319620000000  0.4115590000000 1.0
C      1  0.4239330000000  0.4472660000000  0.4529870000000 1.0
C      1  0.4384320000000  0.4536970000000  0.4284220000000 1.0
C      1  0.4492580000000  0.5904170000000  0.5136810000000 1.0
C      1  0.4588390000000  0.5102640000000  0.3859890000000 1.0
C      1  0.4373240000000  0.4956870000000  0.4576330000000 1.0
C      1  0.5033510000000  0.5760020000000  0.4412820000000 1.0
C      1  0.5158290000000  0.4042560000000  0.5423670000000 1.0
C      1  0.5933450000000  0.5060210000000  0.5401300000000 1.0
C      1  0.5100770000000  0.4461790000000  0.5912790000000 1.0
C      1  0.4115610000000  0.5707650000000  0.4969710000000 1.0
C      1  0.4322960000000  0.4724500000000  0.5063820000000 1.0
C      1  0.4726970000000  0.5975160000000  0.4702670000000 1.0
C      1  0.4633800000000  0.5404460000000  0.4807360000000 1.0
C      1  0.4461770000000  0.4785340000000  0.5857250000000 1.0
C      1  0.5306660000000  0.4525540000000  0.5218260000000 1.0
C      1  0.5677310000000  0.4186980000000  0.5129750000000 1.0
C      1  0.4241690000000  0.5542260000000  0.5390830000000 1.0
C      1  0.5861000000000  0.5312580000000  0.5235010000000 1.0
C      1  0.5028680000000  0.5406090000000  0.5548420000000 1.0
C      1  0.4497210000000  0.5209730000000  0.4984370000000 1.0
C      1  0.4045110000000  0.5024440000000  0.5239470000000 1.0
C      1  0.4961010000000  0.5624840000000  0.5352720000000 1.0
C      1  0.5424130000000  0.6061420000000  0.5004270000000 1.0
C      1  0.5402480000000  0.4262110000000  0.5074550000000 1.0
C      1  0.4311990000000  0.4982440000000  0.6009690000000 1.0
C      1  0.4057310000000  0.5327270000000  0.5283110000000 1.0
C      1  0.4809190000000  0.4419360000000  0.5936010000000 1.0
C      1  0.5415990000000  0.4808670000000  0.6162340000000 1.0
C      1  0.5799180000000  0.4413350000000  0.5545530000000 1.0
C      1  0.5721740000000  0.4927020000000  0.4054590000000 1.0
C      1  0.5241210000000  0.4595330000000  0.6115970000000 1.0
C      1  0.5646320000000  0.5547930000000  0.5613910000000 1.0
C      1  0.5486670000000  0.5361760000000  0.4881660000000 1.0
C      1  0.5240350000000  0.4882080000000  0.4685290000000 1.0
C      1  0.5375730000000  0.5255490000000  0.5884540000000 1.0
C      1  0.4532080000000  0.4812890000000  0.4315900000000 1.0
C      1  0.5429840000000  0.4189400000000  0.4557510000000 1.0
C      1  0.5775310000000  0.4719210000000  0.4230680000000 1.0
C      1  0.4568060000000  0.5614610000000  0.4356530000000 1.0
C      1  0.5878410000000  0.4458000000000  0.4827730000000 1.0
C      1  0.3948580000000  0.4752710000000  0.5337650000000 1.0
C      1  0.5373430000000  0.4577720000000  0.5520770000000 1.0
C      1  0.4482860000000  0.4026810000000  0.4728950000000 1.0
C      1  0.5225080000000  0.4038320000000  0.5141430000000 1.0
C      1  0.5138970000000  0.6092950000000  0.5080370000000 1.0
C      1  0.5930150000000  0.4825010000000  0.4494100000000 1.0
C      1  0.5197330000000  0.5452140000000  0.4049910000000 1.0
C      1  0.5172420000000  0.5864080000000  0.4653630000000 1.0
C      1  0.4923330000000  0.4471580000000  0.5176950000000 1.0
C      1  0.4377870000000  0.4412820000000  0.5084720000000 1.0
C      1  0.5524200000000  0.4846200000000  0.5628000000000 1.0
C      1  0.4086230000000  0.5003390000000  0.4161380000000 1.0
C      1  0.4805470000000  0.4870420000000  0.4833170000000 1.0
C      1  0.5674860000000  0.5763390000000  0.4664590000000 1.0
C      1  0.6083190000000  0.4659250000000  0.4743860000000 1.0
C      1  0.4950110000000  0.4752470000000  0.5080550000000 1.0
C      1  0.3961440000000  0.4568710000000  0.5091030000000 1.0
C      1  0.5355510000000  0.5888610000000  0.5410490000000 1.0
C      1  0.4021620000000  0.4895510000000  0.4415850000000 1.0
C      1  0.5531480000000  0.4352950000000  0.5621450000000 1.0
C      1  0.4889480000000  0.5219600000000  0.4743350000000 1.0
C      1  0.5599650000000  0.5628460000000  0.4427120000000 1.0
C      1  0.4773450000000  0.3955430000000  0.5169860000000 1.0
C      1  0.4281490000000  0.5759860000000  0.4728440000000 1.0
C      1  0.5487240000000  0.5065760000000  0.3998050000000 1.0
C      1  0.5037040000000  0.5303190000000  0.5001340000000 1.0
C      1  0.5851660000000  0.5671950000000  0.4880510000000 1.0
C      1  0.5522560000000  0.4555160000000  0.4231130000000 1.0
C      1  0.5771610000000  0.5034150000000  0.5657820000000 1.0
C      1  0.4750250000000  0.5207610000000  0.5949810000000 1.0
C      1  0.5283750000000  0.5153640000000  0.4948090000000 1.0
C      1  0.4400270000000  0.5129210000000  0.5481490000000 1.0
C      1  0.5667420000000  0.5307230000000  0.5800140000000 1.0
C      1  0.5052540000000  0.4998290000000  0.4303610000000 1.0
C      1  0.5790800000000  0.4986830000000  0.4915900000000 1.0
C      1  0.4987700000000  0.5966760000000  0.4850040000000 1.0
C      1  0.6108390000000  0.5473610000000  0.5182660000000 1.0
C      1  0.4243620000000  0.4211610000000  0.4681080000000 1.0
C      1  0.4000250000000  0.4999110000000  0.4946660000000 1.0
C      1  0.4238240000000  0.5265640000000  0.4541740000000 1.0
C      1  0.4853730000000  0.4511120000000  0.5476640000000 1.0
C      1  0.5375280000000  0.4394260000000  0.4761710000000 1.0
C      1  0.4594090000000  0.5270290000000  0.5260680000000 1.0
C      1  0.4462830000000  0.5071740000000  0.4134700000000 1.0
C      1  0.5918730000000  0.4537610000000  0.5316520000000 1.0
C      1  0.5096380000000  0.4604930000000  0.5648320000000 1.0
C      1  0.5483370000000  0.4727350000000  0.5098510000000 1.0
C      1  0.4771620000000  0.5344170000000  0.5693960000000 1.0
C      1  0.5003460000000  0.4539180000000  0.4160640000000 1.0
C      1  0.4679360000000  0.4341540000000  0.4999030000000 1.0
C      1  0.4240420000000  0.5785250000000  0.5225890000000 1.0
END
