TITL C-951348-1603-504 7.91611947123958e-07 125000 -424.661405702673 0 0 70 (C1) n - 1
REM
REM in /home/bkarasulu/work/CARBON/AIRSS/Generating-Clusters/EDIP-Nigel-Params/with-SteepDescent/Only-C1/SD-CG/HFTN-CG
REM
REM
REM
REM
REM
REM ./C.cell (11c1c37f851c82e70ff6c80c92926a4b)
REM
REM compiler GCC version 9.2.1 20190827 (Red Hat 9.2.1-1)
REM options -cpp -mtune=generic -march=x86-64 -g -O0 -fpre-include=/usr/include/finclude/math-vector-fortran.h
REM seed 1080171138 873075858 -510290803 -1874903425 -119207056 -1971197092 644424243 1710324951 -900828733 -2105053285 1713102880 -1896650248 1055799953 1784876758 -308534686 919872885 849792961 -1314228027 483584674 -1045750761 1995556095 1076037279 -5063626 1703999844 1721295774 -425132115 -954660885 1546873106 791076795 2006029054 -1787605290 1118956195 300972405
REM
CELL 1.54180   50.00000   50.00000   50.00000   90.00000   90.00000   90.00000
LATT -1
SFAC C  
C      1  0.4463100000000  0.4820830000000  0.5396960000000 1.0
C      1  0.4674140000000  0.5166620000000  0.5100710000000 1.0
C      1  0.4881220000000  0.5895360000000  0.5317070000000 1.0
C      1  0.4727590000000  0.4514650000000  0.4485530000000 1.0
C      1  0.4620990000000  0.4783940000000  0.4401600000000 1.0
C      1  0.4820090000000  0.5292400000000  0.4313160000000 1.0
C      1  0.4705680000000  0.5436320000000  0.5505250000000 1.0
C      1  0.5012210000000  0.4751730000000  0.5832640000000 1.0
C      1  0.5626570000000  0.4677200000000  0.5594190000000 1.0
C      1  0.4803250000000  0.5179360000000  0.5383810000000 1.0
C      1  0.5207330000000  0.4379140000000  0.4715320000000 1.0
C      1  0.5371320000000  0.4594260000000  0.5204240000000 1.0
C      1  0.4361280000000  0.5152160000000  0.4618180000000 1.0
C      1  0.5217990000000  0.5025110000000  0.4974440000000 1.0
C      1  0.4615040000000  0.5864100000000  0.5252850000000 1.0
C      1  0.4819450000000  0.4251590000000  0.5141880000000 1.0
C      1  0.4213910000000  0.4960820000000  0.5011420000000 1.0
C      1  0.4921060000000  0.4696250000000  0.5365310000000 1.0
C      1  0.5689090000000  0.5314590000000  0.5411220000000 1.0
C      1  0.4659020000000  0.5581920000000  0.5242200000000 1.0
C      1  0.5303410000000  0.5634860000000  0.5395370000000 1.0
C      1  0.4840310000000  0.4997650000000  0.4434880000000 1.0
C      1  0.5032710000000  0.5531520000000  0.5014430000000 1.0
C      1  0.5563510000000  0.5347370000000  0.4892250000000 1.0
C      1  0.5100570000000  0.4640360000000  0.5592940000000 1.0
C      1  0.5499790000000  0.5379300000000  0.4607400000000 1.0
C      1  0.5218290000000  0.5412920000000  0.4560360000000 1.0
C      1  0.5574850000000  0.5001300000000  0.4625370000000 1.0
C      1  0.5502390000000  0.5058330000000  0.4902840000000 1.0
C      1  0.5709140000000  0.4721640000000  0.5098630000000 1.0
C      1  0.4846120000000  0.5057250000000  0.4743690000000 1.0
C      1  0.5145650000000  0.5445340000000  0.5572070000000 1.0
C      1  0.4479950000000  0.4593140000000  0.5220880000000 1.0
C      1  0.5240380000000  0.5124660000000  0.4183860000000 1.0
C      1  0.5094360000000  0.4192200000000  0.5156920000000 1.0
C      1  0.4683370000000  0.4245010000000  0.4895450000000 1.0
C      1  0.4387860000000  0.4854910000000  0.4581760000000 1.0
C      1  0.4733090000000  0.4905790000000  0.5497900000000 1.0
C      1  0.4321450000000  0.5309190000000  0.5326450000000 1.0
C      1  0.4618460000000  0.5280650000000  0.4723540000000 1.0
C      1  0.5609250000000  0.4718240000000  0.4583300000000 1.0
C      1  0.4743960000000  0.4511010000000  0.4787610000000 1.0
C      1  0.5096270000000  0.5216060000000  0.5390580000000 1.0
C      1  0.5113800000000  0.5355840000000  0.4292940000000 1.0
C      1  0.4693390000000  0.5477250000000  0.4510060000000 1.0
C      1  0.4729180000000  0.4476820000000  0.5300400000000 1.0
C      1  0.5203130000000  0.5293390000000  0.5126030000000 1.0
C      1  0.5762400000000  0.4805620000000  0.5380390000000 1.0
C      1  0.5104760000000  0.4915010000000  0.4318560000000 1.0
C      1  0.5124200000000  0.4746770000000  0.5082730000000 1.0
C      1  0.4294340000000  0.5028550000000  0.5283020000000 1.0
C      1  0.5626380000000  0.4575130000000  0.4844160000000 1.0
C      1  0.5033060000000  0.4578330000000  0.4840670000000 1.0
C      1  0.4209380000000  0.5216120000000  0.4864700000000 1.0
C      1  0.5192380000000  0.4642510000000  0.4300120000000 1.0
C      1  0.5354830000000  0.4297780000000  0.5141580000000 1.0
C      1  0.4367160000000  0.5399730000000  0.5053060000000 1.0
C      1  0.4711230000000  0.4857090000000  0.4959080000000 1.0
C      1  0.5104570000000  0.5754710000000  0.5198010000000 1.0
C      1  0.5000790000000  0.4450610000000  0.4396700000000 1.0
C      1  0.5064820000000  0.5597470000000  0.4725670000000 1.0
C      1  0.5453740000000  0.4329920000000  0.4861650000000 1.0
C      1  0.4900570000000  0.5548090000000  0.5675870000000 1.0
C      1  0.4779610000000  0.4883110000000  0.5782800000000 1.0
C      1  0.5522690000000  0.5473100000000  0.5247260000000 1.0
C      1  0.4412940000000  0.4769560000000  0.4883030000000 1.0
C      1  0.5462640000000  0.4602530000000  0.4370090000000 1.0
C      1  0.5809520000000  0.5076150000000  0.5420550000000 1.0
C      1  0.4842330000000  0.5700780000000  0.4591060000000 1.0
C      1  0.5370710000000  0.4630970000000  0.5493330000000 1.0
END
