TITL C-950530-3293-527 -4.01067888446067e-07 125000 -428.916583126039 0 0 71 (C1) n - 1
REM
REM in /home/bkarasulu/work/CARBON/AIRSS/Generating-Clusters/EDIP-Nigel-Params/with-SteepDescent/Only-C1/SD-CG/HFTN-CG
REM
REM
REM
REM
REM
REM ./C.cell (11c1c37f851c82e70ff6c80c92926a4b)
REM
REM compiler GCC version 9.2.1 20190827 (Red Hat 9.2.1-1)
REM options -cpp -mtune=generic -march=x86-64 -g -O0 -fpre-include=/usr/include/finclude/math-vector-fortran.h
REM seed 1531860937 -808220832 -1741564225 181018902 1327250670 2147342365 -210986792 1619532625 -300563330 -25398008 -2060997998 1389523452 1214949515 1045322820 1014094265 914487679 -1973810376 -802600301 2082489937 -1283605588 -160592517 1053759887 906795331 1064718392 2059345547 -2128809025 -58645319 749208918 1252139950 -997947614 499314111 1899164269 1661024149
REM
CELL 1.54180   50.00000   50.00000   50.00000   90.00000   90.00000   90.00000
LATT -1
SFAC C  
C      1  0.5166560000000  0.4466010000000  0.5495110000000 1.0
C      1  0.4753260000000  0.4790690000000  0.5638860000000 1.0
C      1  0.4527390000000  0.5254060000000  0.4622010000000 1.0
C      1  0.5414830000000  0.5720700000000  0.4988800000000 1.0
C      1  0.4487740000000  0.4812280000000  0.5494270000000 1.0
C      1  0.4936810000000  0.5698350000000  0.4760650000000 1.0
C      1  0.5175120000000  0.5876680000000  0.5010730000000 1.0
C      1  0.5042190000000  0.4955280000000  0.4994200000000 1.0
C      1  0.5456400000000  0.5621130000000  0.4727260000000 1.0
C      1  0.4697410000000  0.4535590000000  0.4737490000000 1.0
C      1  0.5700180000000  0.5400140000000  0.5244430000000 1.0
C      1  0.5151520000000  0.5291200000000  0.5483450000000 1.0
C      1  0.4417030000000  0.4545950000000  0.5364610000000 1.0
C      1  0.4336940000000  0.4877060000000  0.4868780000000 1.0
C      1  0.5524100000000  0.4967450000000  0.5046700000000 1.0
C      1  0.4533280000000  0.5616260000000  0.5012860000000 1.0
C      1  0.4665810000000  0.4384550000000  0.5403420000000 1.0
C      1  0.4864250000000  0.5013840000000  0.4254000000000 1.0
C      1  0.5141200000000  0.4740280000000  0.4768680000000 1.0
C      1  0.5348500000000  0.5097610000000  0.4272550000000 1.0
C      1  0.4770470000000  0.4859660000000  0.5092890000000 1.0
C      1  0.5186670000000  0.4647490000000  0.4338990000000 1.0
C      1  0.4527610000000  0.4366010000000  0.4929100000000 1.0
C      1  0.4643660000000  0.4834870000000  0.4383740000000 1.0
C      1  0.4712030000000  0.4243780000000  0.5146390000000 1.0
C      1  0.5689970000000  0.5009980000000  0.5504840000000 1.0
C      1  0.4974760000000  0.4507770000000  0.4825390000000 1.0
C      1  0.4312990000000  0.5038620000000  0.4595620000000 1.0
C      1  0.5711500000000  0.5113700000000  0.5243670000000 1.0
C      1  0.4466840000000  0.5411900000000  0.4852400000000 1.0
C      1  0.5215110000000  0.5351630000000  0.4352200000000 1.0
C      1  0.5257820000000  0.4944040000000  0.5180740000000 1.0
C      1  0.5508600000000  0.4982730000000  0.4500690000000 1.0
C      1  0.4553600000000  0.4993990000000  0.5263790000000 1.0
C      1  0.4756350000000  0.5065390000000  0.4672560000000 1.0
C      1  0.4962070000000  0.4475530000000  0.4342830000000 1.0
C      1  0.4741940000000  0.5795320000000  0.4960740000000 1.0
C      1  0.5297030000000  0.5460160000000  0.5672970000000 1.0
C      1  0.4347690000000  0.4549770000000  0.5073010000000 1.0
C      1  0.4954300000000  0.5236640000000  0.4946900000000 1.0
C      1  0.5437430000000  0.4613690000000  0.5489760000000 1.0
C      1  0.5008770000000  0.4156090000000  0.5095620000000 1.0
C      1  0.5110410000000  0.4248750000000  0.4830360000000 1.0
C      1  0.5019550000000  0.5416290000000  0.4740500000000 1.0
C      1  0.4706130000000  0.4544900000000  0.4435300000000 1.0
C      1  0.5468010000000  0.5599070000000  0.5486360000000 1.0
C      1  0.5132670000000  0.4900010000000  0.4208330000000 1.0
C      1  0.4639160000000  0.5415080000000  0.4400370000000 1.0
C      1  0.4897660000000  0.5056520000000  0.5669820000000 1.0
C      1  0.4881040000000  0.4555980000000  0.5510500000000 1.0
C      1  0.4896990000000  0.5296540000000  0.4330370000000 1.0
C      1  0.5437320000000  0.4694460000000  0.4514050000000 1.0
C      1  0.5461730000000  0.5124550000000  0.4756830000000 1.0
C      1  0.5468870000000  0.4324290000000  0.5145440000000 1.0
C      1  0.4942770000000  0.5588530000000  0.5347440000000 1.0
C      1  0.5215510000000  0.4992470000000  0.5466240000000 1.0
C      1  0.4361210000000  0.4895140000000  0.4360200000000 1.0
C      1  0.4593880000000  0.5257110000000  0.5350620000000 1.0
C      1  0.4636830000000  0.4822710000000  0.4830950000000 1.0
C      1  0.5307400000000  0.5382440000000  0.4651440000000 1.0
C      1  0.4331820000000  0.5057780000000  0.5100750000000 1.0
C      1  0.4727020000000  0.5297160000000  0.5601170000000 1.0
C      1  0.5458620000000  0.4888790000000  0.5609150000000 1.0
C      1  0.4851630000000  0.5574140000000  0.5625890000000 1.0
C      1  0.5456290000000  0.5535500000000  0.5206470000000 1.0
C      1  0.5078530000000  0.5588270000000  0.5802960000000 1.0
C      1  0.5429790000000  0.4619260000000  0.4820320000000 1.0
C      1  0.5222110000000  0.4245750000000  0.5298830000000 1.0
C      1  0.4940150000000  0.5828270000000  0.5182940000000 1.0
C      1  0.5546130000000  0.4611160000000  0.5206250000000 1.0
C      1  0.5403010000000  0.4315200000000  0.4856450000000 1.0
END
