TITL C-950525-1983-219 -0.00097603000639722 125000 -100.948952846153 0 0 19 (C1) n - 1
REM
REM in /home/bkarasulu/work/CARBON/AIRSS/Generating-Clusters/EDIP-Nigel-Params/with-SteepDescent/Only-C1/SD-CG/HFTN-CG
REM
REM
REM
REM
REM
REM ./C.cell (11c1c37f851c82e70ff6c80c92926a4b)
REM
REM compiler GCC version 9.2.1 20190827 (Red Hat 9.2.1-1)
REM options -cpp -mtune=generic -march=x86-64 -g -O0 -fpre-include=/usr/include/finclude/math-vector-fortran.h
REM seed 1038462979 -613648889 1393339621 -1490015105 1607432917 -608911883 1979486311 -2021181380 -1151586736 -1023788380 755502216 -1200890584 -444489225 1875212435 68213284 -1292469320 -1822317317 1677232723 -1466097994 965806802 244505745 -1699167837 1758726677 -219778745 1373484542 571713274 -438505858 356210554 2073584074 774276131 -1233974588 2114829972 -2111034474
REM
CELL 1.54180   50.00000   50.00000   50.00000   90.00000   90.00000   90.00000
LATT -1
SFAC C  
C      1  0.5449320000000  0.4307690000000  0.4995150000000 1.0
C      1  0.5256140000000  0.4410640000000  0.5473940000000 1.0
C      1  0.4493860000000  0.4984810000000  0.4222920000000 1.0
C      1  0.4909720000000  0.5158930000000  0.5432960000000 1.0
C      1  0.5350330000000  0.5221180000000  0.4975570000000 1.0
C      1  0.5351730000000  0.4592830000000  0.5658740000000 1.0
C      1  0.5298910000000  0.5351040000000  0.5228580000000 1.0
C      1  0.5367180000000  0.5094510000000  0.5343760000000 1.0
C      1  0.4312270000000  0.5059950000000  0.4432410000000 1.0
C      1  0.4905540000000  0.5297200000000  0.4808240000000 1.0
C      1  0.4821780000000  0.5295550000000  0.5078310000000 1.0
C      1  0.5137150000000  0.4996660000000  0.5476250000000 1.0
C      1  0.5369370000000  0.4373560000000  0.5229100000000 1.0
C      1  0.4408310000000  0.4991870000000  0.3971200000000 1.0
C      1  0.4544540000000  0.5226440000000  0.4401090000000 1.0
C      1  0.5126400000000  0.4745820000000  0.5608260000000 1.0
C      1  0.5175020000000  0.5258030000000  0.4767500000000 1.0
C      1  0.4726100000000  0.5240100000000  0.4608910000000 1.0
C      1  0.4996340000000  0.5393210000000  0.5287110000000 1.0
END
