TITL C-951347-9520-785 6.35123125770284e-07 125000 -244.194934639088 0 0 41 (C1) n - 1
REM
REM in /home/bkarasulu/work/CARBON/AIRSS/Generating-Clusters/EDIP-Nigel-Params/with-SteepDescent/Only-C1/SD-CG/HFTN-CG
REM
REM
REM
REM
REM
REM ./C.cell (11c1c37f851c82e70ff6c80c92926a4b)
REM
REM compiler GCC version 9.2.1 20190827 (Red Hat 9.2.1-1)
REM options -cpp -mtune=generic -march=x86-64 -g -O0 -fpre-include=/usr/include/finclude/math-vector-fortran.h
REM seed 19460481 771710816 -189500727 -1747378075 -1329964669 1886388071 2108694391 -1640218907 624744512 1387462650 2022872498 453235238 1969539961 2121541643 -1525071403 -1259039677 -1323420456 -533155182 1005610579 453714388 1664892783 993860668 408746806 -1390991007 354636218 546778974 -852435356 1841589483 34336168 -1682357789 -1679116195 984234663 1045604209
REM
CELL 1.54180   50.00000   50.00000   50.00000   90.00000   90.00000   90.00000
LATT -1
SFAC C  
C      1  0.4808260000000  0.5333320000000  0.5636050000000 1.0
C      1  0.5298070000000  0.4520960000000  0.4991490000000 1.0
C      1  0.5273240000000  0.4758050000000  0.5604490000000 1.0
C      1  0.5503570000000  0.4708160000000  0.5455850000000 1.0
C      1  0.5055730000000  0.5201120000000  0.5624300000000 1.0
C      1  0.5041380000000  0.4911050000000  0.5629700000000 1.0
C      1  0.4619260000000  0.4828920000000  0.4933620000000 1.0
C      1  0.4860380000000  0.5228380000000  0.4348280000000 1.0
C      1  0.4813660000000  0.4421490000000  0.5035440000000 1.0
C      1  0.4787240000000  0.4795750000000  0.5657810000000 1.0
C      1  0.4666180000000  0.4831670000000  0.5404960000000 1.0
C      1  0.5435870000000  0.5374420000000  0.4779660000000 1.0
C      1  0.4949010000000  0.5545100000000  0.4706320000000 1.0
C      1  0.4429020000000  0.5291020000000  0.4581830000000 1.0
C      1  0.4852380000000  0.4999770000000  0.4810630000000 1.0
C      1  0.4740090000000  0.5509540000000  0.4897280000000 1.0
C      1  0.5554260000000  0.5048530000000  0.5180130000000 1.0
C      1  0.5659000000000  0.4939760000000  0.5408800000000 1.0
C      1  0.5463460000000  0.4573850000000  0.5212540000000 1.0
C      1  0.5033570000000  0.5317250000000  0.4559140000000 1.0
C      1  0.5084190000000  0.4348310000000  0.5052040000000 1.0
C      1  0.4857820000000  0.4540600000000  0.4538300000000 1.0
C      1  0.5362280000000  0.4923700000000  0.4604150000000 1.0
C      1  0.5306820000000  0.4657480000000  0.4715650000000 1.0
C      1  0.5311540000000  0.5484440000000  0.4997100000000 1.0
C      1  0.5114340000000  0.5347110000000  0.5160830000000 1.0
C      1  0.5145040000000  0.4503790000000  0.4534300000000 1.0
C      1  0.5074170000000  0.5072320000000  0.5032330000000 1.0
C      1  0.4845350000000  0.5492500000000  0.5174000000000 1.0
C      1  0.4597780000000  0.5258400000000  0.4815160000000 1.0
C      1  0.4900580000000  0.4962640000000  0.4281970000000 1.0
C      1  0.4944620000000  0.4840730000000  0.4543320000000 1.0
C      1  0.5222280000000  0.5314750000000  0.5430370000000 1.0
C      1  0.5306740000000  0.5208330000000  0.4592330000000 1.0
C      1  0.4736260000000  0.4433710000000  0.4766500000000 1.0
C      1  0.4472030000000  0.5071750000000  0.5027890000000 1.0
C      1  0.5333860000000  0.4960380000000  0.5040750000000 1.0
C      1  0.4666790000000  0.5364050000000  0.5391090000000 1.0
C      1  0.4596290000000  0.5306290000000  0.4372710000000 1.0
C      1  0.4551270000000  0.5094720000000  0.5311960000000 1.0
C      1  0.4726320000000  0.4675920000000  0.5158920000000 1.0
END
