TITL C-951346-9544-103 -1.41867648041728e-06 125000 -552.394609827837 0 0 89 (C1) n - 1
REM
REM in /home/bkarasulu/work/CARBON/AIRSS/Generating-Clusters/EDIP-Nigel-Params/with-SteepDescent/Only-C1/SD-CG/HFTN-CG
REM
REM
REM
REM
REM
REM ./C.cell (11c1c37f851c82e70ff6c80c92926a4b)
REM
REM compiler GCC version 9.2.1 20190827 (Red Hat 9.2.1-1)
REM options -cpp -mtune=generic -march=x86-64 -g -O0 -fpre-include=/usr/include/finclude/math-vector-fortran.h
REM seed -1143026086 957920910 -1965573828 -1588572283 2132529903 2054889129 -110867827 198081180 -808489359 -486291276 1132402987 -433268721 -1606686872 1848406352 -1155586790 -1830437426 -345736408 -1951477609 58464962 389585721 1490856150 -1912604531 935061622 -666115176 -1251645731 555612835 -1219529967 -264896670 282609438 -1924939699 -1805209639 -97655752 998515632
REM
CELL 1.54180   50.00000   50.00000   50.00000   90.00000   90.00000   90.00000
LATT -1
SFAC C  
C      1  0.4696250000000  0.4962640000000  0.5746020000000 1.0
C      1  0.4503850000000  0.4518580000000  0.4841330000000 1.0
C      1  0.4799480000000  0.4311760000000  0.4539130000000 1.0
C      1  0.4701010000000  0.5366310000000  0.5541300000000 1.0
C      1  0.4352030000000  0.4986150000000  0.4371780000000 1.0
C      1  0.4589820000000  0.4910360000000  0.5188080000000 1.0
C      1  0.4396410000000  0.5493960000000  0.4936130000000 1.0
C      1  0.5299980000000  0.5749150000000  0.4573130000000 1.0
C      1  0.4269320000000  0.5159180000000  0.5663030000000 1.0
C      1  0.4917430000000  0.4384420000000  0.5018530000000 1.0
C      1  0.5503450000000  0.4762450000000  0.4211720000000 1.0
C      1  0.4773230000000  0.4523270000000  0.5251650000000 1.0
C      1  0.4969840000000  0.5466780000000  0.5644300000000 1.0
C      1  0.4243780000000  0.4782130000000  0.4530980000000 1.0
C      1  0.4861980000000  0.5292310000000  0.4975460000000 1.0
C      1  0.4932260000000  0.4795190000000  0.4847650000000 1.0
C      1  0.4790910000000  0.5758620000000  0.5108260000000 1.0
C      1  0.5837950000000  0.5219120000000  0.4907030000000 1.0
C      1  0.5173270000000  0.4295450000000  0.5414690000000 1.0
C      1  0.4953930000000  0.4996190000000  0.4611130000000 1.0
C      1  0.5593940000000  0.5380950000000  0.4511750000000 1.0
C      1  0.4361200000000  0.5409900000000  0.5209440000000 1.0
C      1  0.5670900000000  0.4798940000000  0.5417910000000 1.0
C      1  0.5162960000000  0.5326470000000  0.4905910000000 1.0
C      1  0.5632570000000  0.5362320000000  0.5072820000000 1.0
C      1  0.5860840000000  0.4986890000000  0.5512600000000 1.0
C      1  0.5726910000000  0.5401450000000  0.5341170000000 1.0
C      1  0.5136330000000  0.4804170000000  0.5083320000000 1.0
C      1  0.4646820000000  0.4494030000000  0.4381790000000 1.0
C      1  0.5742180000000  0.4539840000000  0.5289540000000 1.0
C      1  0.4695410000000  0.5550200000000  0.4908170000000 1.0
C      1  0.5364060000000  0.5204960000000  0.5100260000000 1.0
C      1  0.5243580000000  0.4710800000000  0.4316870000000 1.0
C      1  0.5419690000000  0.5131980000000  0.5610850000000 1.0
C      1  0.5789950000000  0.4571570000000  0.4991890000000 1.0
C      1  0.4781280000000  0.5138370000000  0.5240540000000 1.0
C      1  0.4170670000000  0.5081450000000  0.4932000000000 1.0
C      1  0.4415940000000  0.4547250000000  0.4557020000000 1.0
C      1  0.4154770000000  0.4817840000000  0.4812190000000 1.0
C      1  0.4785220000000  0.5323240000000  0.4246170000000 1.0
C      1  0.5391950000000  0.4909180000000  0.4718080000000 1.0
C      1  0.5542790000000  0.5622090000000  0.4947050000000 1.0
C      1  0.5077740000000  0.5727990000000  0.5172100000000 1.0
C      1  0.4755290000000  0.5635620000000  0.4639590000000 1.0
C      1  0.5845850000000  0.4837170000000  0.4884200000000 1.0
C      1  0.4248440000000  0.4516710000000  0.5011080000000 1.0
C      1  0.4529130000000  0.5200830000000  0.4387950000000 1.0
C      1  0.5244960000000  0.5243660000000  0.5381150000000 1.0
C      1  0.4255620000000  0.5304350000000  0.4776680000000 1.0
C      1  0.5538930000000  0.4323690000000  0.5321630000000 1.0
C      1  0.5212250000000  0.5154590000000  0.4643310000000 1.0
C      1  0.4645160000000  0.4779550000000  0.4921540000000 1.0
C      1  0.5259300000000  0.5296970000000  0.4362070000000 1.0
C      1  0.4624990000000  0.5809160000000  0.5327360000000 1.0
C      1  0.4873560000000  0.5568170000000  0.4394320000000 1.0
C      1  0.4723880000000  0.4306440000000  0.4813940000000 1.0
C      1  0.5381760000000  0.4923540000000  0.5009570000000 1.0
C      1  0.5430640000000  0.4246850000000  0.5058710000000 1.0
C      1  0.5137850000000  0.5599510000000  0.5435130000000 1.0
C      1  0.5506190000000  0.4469150000000  0.4585410000000 1.0
C      1  0.5704930000000  0.5219810000000  0.5551360000000 1.0
C      1  0.4992510000000  0.4879460000000  0.4322240000000 1.0
C      1  0.5406350000000  0.4835310000000  0.5535010000000 1.0
C      1  0.4662530000000  0.4459380000000  0.5628540000000 1.0
C      1  0.5778450000000  0.5187410000000  0.4618200000000 1.0
C      1  0.5268620000000  0.4649810000000  0.4598410000000 1.0
C      1  0.4764290000000  0.4715300000000  0.4252790000000 1.0
C      1  0.4969650000000  0.5007720000000  0.5823670000000 1.0
C      1  0.4526290000000  0.5557950000000  0.5402750000000 1.0
C      1  0.5566380000000  0.5640400000000  0.4643900000000 1.0
C      1  0.4537480000000  0.4352530000000  0.5366310000000 1.0
C      1  0.5140370000000  0.4787310000000  0.5384720000000 1.0
C      1  0.4314620000000  0.5105080000000  0.5194580000000 1.0
C      1  0.5231250000000  0.5623130000000  0.4924030000000 1.0
C      1  0.5001060000000  0.4530420000000  0.5470220000000 1.0
C      1  0.5162350000000  0.5579510000000  0.4384820000000 1.0
C      1  0.4729780000000  0.5211040000000  0.4616060000000 1.0
C      1  0.5033520000000  0.5151200000000  0.4190940000000 1.0
C      1  0.4282910000000  0.4492910000000  0.5304290000000 1.0
C      1  0.5001690000000  0.5053590000000  0.5439000000000 1.0
C      1  0.4538650000000  0.4718310000000  0.5689920000000 1.0
C      1  0.5115330000000  0.5256220000000  0.5801070000000 1.0
C      1  0.5684840000000  0.4900400000000  0.4638210000000 1.0
C      1  0.4354280000000  0.4749320000000  0.5455640000000 1.0
C      1  0.4540500000000  0.5201740000000  0.5727150000000 1.0
C      1  0.5136440000000  0.4214200000000  0.5131740000000 1.0
C      1  0.5673860000000  0.4677440000000  0.4423980000000 1.0
C      1  0.4182910000000  0.5001530000000  0.5449110000000 1.0
C      1  0.5550440000000  0.4449630000000  0.4876960000000 1.0
END
