TITL C-950523-3027-544 -9.47344025459296e-07 125000 -471.093642746256 0 0 77 (C1) n - 1
REM
REM in /home/bkarasulu/work/CARBON/AIRSS/Generating-Clusters/EDIP-Nigel-Params/with-SteepDescent/Only-C1/SD-CG/HFTN-CG
REM
REM
REM
REM
REM
REM ./C.cell (11c1c37f851c82e70ff6c80c92926a4b)
REM
REM compiler GCC version 9.2.1 20190827 (Red Hat 9.2.1-1)
REM options -cpp -mtune=generic -march=x86-64 -g -O0 -fpre-include=/usr/include/finclude/math-vector-fortran.h
REM seed -753257245 1954539873 1954166717 -954671157 -337020528 -1347147652 -217519220 -292320946 1579900875 -1154685946 1202051921 -1079478294 558908642 -1261100821 1541429066 -1523349215 388678558 -1203690340 1190645854 127887998 -687117991 -1839972781 1262592043 1836864191 1963166505 -1600077593 -1391152126 -1166457311 -941966528 1455040770 -415540812 970231541 -9308159
REM
CELL 1.54180   50.00000   50.00000   50.00000   90.00000   90.00000   90.00000
LATT -1
SFAC C  
C      1  0.4422760000000  0.4517410000000  0.4991550000000 1.0
C      1  0.5587330000000  0.5149760000000  0.4375240000000 1.0
C      1  0.5401350000000  0.4940660000000  0.4289650000000 1.0
C      1  0.4714700000000  0.4330770000000  0.5318340000000 1.0
C      1  0.4691270000000  0.4816580000000  0.4805100000000 1.0
C      1  0.4175530000000  0.4821900000000  0.4681790000000 1.0
C      1  0.4317740000000  0.5377900000000  0.5227770000000 1.0
C      1  0.4097770000000  0.4886660000000  0.5356870000000 1.0
C      1  0.5708480000000  0.5356850000000  0.5370100000000 1.0
C      1  0.5062420000000  0.5788550000000  0.4910080000000 1.0
C      1  0.5756380000000  0.5031300000000  0.4584890000000 1.0
C      1  0.4581960000000  0.4390310000000  0.4771360000000 1.0
C      1  0.4759890000000  0.5255660000000  0.5219420000000 1.0
C      1  0.5044760000000  0.4867520000000  0.5267520000000 1.0
C      1  0.4834920000000  0.5694010000000  0.4735980000000 1.0
C      1  0.4717440000000  0.5163450000000  0.4665420000000 1.0
C      1  0.5378530000000  0.4740150000000  0.5612580000000 1.0
C      1  0.5437980000000  0.4710890000000  0.4478980000000 1.0
C      1  0.4861640000000  0.5090760000000  0.5657320000000 1.0
C      1  0.5701580000000  0.4743160000000  0.4617600000000 1.0
C      1  0.4558920000000  0.4800970000000  0.5343500000000 1.0
C      1  0.5237830000000  0.4744140000000  0.4706680000000 1.0
C      1  0.5007470000000  0.5182300000000  0.4807450000000 1.0
C      1  0.5595430000000  0.5574530000000  0.4663980000000 1.0
C      1  0.4108800000000  0.5058180000000  0.4888990000000 1.0
C      1  0.4974800000000  0.4271750000000  0.5241030000000 1.0
C      1  0.5306050000000  0.5378740000000  0.5733590000000 1.0
C      1  0.5740100000000  0.5438110000000  0.4874310000000 1.0
C      1  0.5285560000000  0.4184190000000  0.4835730000000 1.0
C      1  0.4460680000000  0.4819680000000  0.4577250000000 1.0
C      1  0.4887720000000  0.4817390000000  0.4255850000000 1.0
C      1  0.4012290000000  0.4847080000000  0.5093050000000 1.0
C      1  0.5276370000000  0.4960330000000  0.5445760000000 1.0
C      1  0.5779460000000  0.5071890000000  0.5323180000000 1.0
C      1  0.5333970000000  0.5398900000000  0.5141060000000 1.0
C      1  0.5043130000000  0.4277960000000  0.4655740000000 1.0
C      1  0.5035920000000  0.5044340000000  0.4346270000000 1.0
C      1  0.5484300000000  0.4368590000000  0.4937870000000 1.0
C      1  0.4971450000000  0.5692640000000  0.5330750000000 1.0
C      1  0.5696170000000  0.5530020000000  0.5140180000000 1.0
C      1  0.4955270000000  0.5538530000000  0.4504690000000 1.0
C      1  0.4548740000000  0.5614020000000  0.4837620000000 1.0
C      1  0.4998660000000  0.5123000000000  0.5110870000000 1.0
C      1  0.5184010000000  0.4448710000000  0.5321550000000 1.0
C      1  0.5181530000000  0.5424010000000  0.4667280000000 1.0
C      1  0.5544990000000  0.5452670000000  0.5595340000000 1.0
C      1  0.5750940000000  0.5152880000000  0.4845300000000 1.0
C      1  0.4494040000000  0.5331470000000  0.4770690000000 1.0
C      1  0.4481470000000  0.5626230000000  0.5157030000000 1.0
C      1  0.4971180000000  0.4581210000000  0.4682100000000 1.0
C      1  0.5385060000000  0.4792680000000  0.4994990000000 1.0
C      1  0.5019740000000  0.5911330000000  0.5162060000000 1.0
C      1  0.4844800000000  0.4582870000000  0.4401220000000 1.0
C      1  0.4364540000000  0.5183740000000  0.4993840000000 1.0
C      1  0.4504550000000  0.4508670000000  0.5272280000000 1.0
C      1  0.5293290000000  0.5593380000000  0.4888810000000 1.0
C      1  0.4778190000000  0.5543470000000  0.5143150000000 1.0
C      1  0.5149690000000  0.5165050000000  0.5620320000000 1.0
C      1  0.4400460000000  0.5237020000000  0.5492130000000 1.0
C      1  0.4565690000000  0.4540720000000  0.4504730000000 1.0
C      1  0.5438940000000  0.4467390000000  0.5195380000000 1.0
C      1  0.4834670000000  0.4834070000000  0.5491850000000 1.0
C      1  0.5681380000000  0.4705280000000  0.4923910000000 1.0
C      1  0.4585210000000  0.4969910000000  0.5075890000000 1.0
C      1  0.5169760000000  0.4552230000000  0.5584450000000 1.0
C      1  0.5127610000000  0.4991130000000  0.4630060000000 1.0
C      1  0.4696450000000  0.5281470000000  0.5514170000000 1.0
C      1  0.5829760000000  0.4964710000000  0.5052830000000 1.0
C      1  0.5492320000000  0.5415160000000  0.4445110000000 1.0
C      1  0.4337320000000  0.4942120000000  0.5484650000000 1.0
C      1  0.4154140000000  0.4623110000000  0.4921810000000 1.0
C      1  0.5426590000000  0.5070280000000  0.5189080000000 1.0
C      1  0.4826390000000  0.5281490000000  0.4398040000000 1.0
C      1  0.4907320000000  0.4611140000000  0.5668500000000 1.0
C      1  0.5017160000000  0.4103780000000  0.5003620000000 1.0
C      1  0.4785240000000  0.4166870000000  0.4784360000000 1.0
C      1  0.5222040000000  0.5532160000000  0.5390470000000 1.0
END
