TITL C-950528-5794-409 -4.70108091972602e-07 125000 -416.888249513872 0 0 68 (C1) n - 1
REM
REM in /home/bkarasulu/work/CARBON/AIRSS/Generating-Clusters/EDIP-Nigel-Params/with-SteepDescent/Only-C1/SD-CG/HFTN-CG
REM
REM
REM
REM
REM
REM ./C.cell (11c1c37f851c82e70ff6c80c92926a4b)
REM
REM compiler GCC version 9.2.1 20190827 (Red Hat 9.2.1-1)
REM options -cpp -mtune=generic -march=x86-64 -g -O0 -fpre-include=/usr/include/finclude/math-vector-fortran.h
REM seed -14388061 -484684871 -181289384 1620757507 -1081319150 -643288968 -1233772579 -1664559018 -974110183 -247441754 -888044235 -1920750492 -1850639361 -1453740257 1626652472 -494823968 163126265 -1811040862 149961702 -992993416 -1538032901 986720868 1676411145 897345960 -45109395 -1079158776 -1425310495 1121095098 -2005668614 -1445283082 415353979 1088561626 -941519938
REM
CELL 1.54180   50.00000   50.00000   50.00000   90.00000   90.00000   90.00000
LATT -1
SFAC C  
C      1  0.4707140000000  0.5723960000000  0.5343750000000 1.0
C      1  0.4390870000000  0.5124020000000  0.5272510000000 1.0
C      1  0.5006520000000  0.4522540000000  0.4493370000000 1.0
C      1  0.4664710000000  0.5577760000000  0.4495910000000 1.0
C      1  0.5560360000000  0.4987770000000  0.5469720000000 1.0
C      1  0.5048350000000  0.5303950000000  0.4265290000000 1.0
C      1  0.5248910000000  0.4909420000000  0.4906370000000 1.0
C      1  0.5222640000000  0.5269490000000  0.5654590000000 1.0
C      1  0.5474330000000  0.4541890000000  0.5249510000000 1.0
C      1  0.5536960000000  0.5660300000000  0.4744540000000 1.0
C      1  0.4882810000000  0.5059840000000  0.5168940000000 1.0
C      1  0.5410510000000  0.5531670000000  0.4481860000000 1.0
C      1  0.4659500000000  0.4574940000000  0.5193730000000 1.0
C      1  0.4724510000000  0.4294080000000  0.5275650000000 1.0
C      1  0.4525030000000  0.5184830000000  0.4798350000000 1.0
C      1  0.5530130000000  0.4412600000000  0.5003000000000 1.0
C      1  0.5188300000000  0.5625280000000  0.5022730000000 1.0
C      1  0.4881340000000  0.4637190000000  0.4964440000000 1.0
C      1  0.4823880000000  0.5115130000000  0.4871740000000 1.0
C      1  0.4669860000000  0.5052280000000  0.5380840000000 1.0
C      1  0.4271460000000  0.4876820000000  0.5212940000000 1.0
C      1  0.4389990000000  0.5313960000000  0.5039590000000 1.0
C      1  0.5104550000000  0.5229180000000  0.4743960000000 1.0
C      1  0.5117920000000  0.4414370000000  0.4900450000000 1.0
C      1  0.5050280000000  0.4853620000000  0.4517350000000 1.0
C      1  0.4375780000000  0.4638890000000  0.5105510000000 1.0
C      1  0.5079200000000  0.4156980000000  0.5058890000000 1.0
C      1  0.5150730000000  0.4718950000000  0.5604150000000 1.0
C      1  0.5651970000000  0.4778390000000  0.5283220000000 1.0
C      1  0.5026490000000  0.4304430000000  0.5320870000000 1.0
C      1  0.5467850000000  0.4384530000000  0.4729510000000 1.0
C      1  0.4682680000000  0.5751390000000  0.5054830000000 1.0
C      1  0.5273680000000  0.5345610000000  0.4958350000000 1.0
C      1  0.4516470000000  0.4466350000000  0.4669030000000 1.0
C      1  0.4636640000000  0.5097640000000  0.4349820000000 1.0
C      1  0.5251900000000  0.4373030000000  0.4539800000000 1.0
C      1  0.5181480000000  0.4579440000000  0.5336820000000 1.0
C      1  0.4930000000000  0.5568470000000  0.5427410000000 1.0
C      1  0.5736740000000  0.4913080000000  0.5020000000000 1.0
C      1  0.5724500000000  0.5217850000000  0.5071720000000 1.0
C      1  0.4811060000000  0.4962770000000  0.5847960000000 1.0
C      1  0.5384830000000  0.5438210000000  0.5465140000000 1.0
C      1  0.4693380000000  0.4101660000000  0.5053080000000 1.0
C      1  0.5061170000000  0.4808230000000  0.5126490000000 1.0
C      1  0.4813110000000  0.4125280000000  0.4790370000000 1.0
C      1  0.5548960000000  0.5253810000000  0.4569880000000 1.0
C      1  0.4360050000000  0.4647210000000  0.4817110000000 1.0
C      1  0.5412050000000  0.4985790000000  0.4560620000000 1.0
C      1  0.4943390000000  0.5378820000000  0.5650870000000 1.0
C      1  0.4740490000000  0.5165750000000  0.5661550000000 1.0
C      1  0.5611810000000  0.5253480000000  0.5353940000000 1.0
C      1  0.4911170000000  0.5640820000000  0.4901110000000 1.0
C      1  0.5365080000000  0.5821060000000  0.4897430000000 1.0
C      1  0.4688550000000  0.4760750000000  0.5435350000000 1.0
C      1  0.4862160000000  0.4739280000000  0.5679290000000 1.0
C      1  0.4435850000000  0.5596580000000  0.5092690000000 1.0
C      1  0.5551580000000  0.5362820000000  0.4864910000000 1.0
C      1  0.4910890000000  0.5633500000000  0.4608800000000 1.0
C      1  0.4774160000000  0.4366880000000  0.4628750000000 1.0
C      1  0.4383880000000  0.4919640000000  0.4704160000000 1.0
C      1  0.4542920000000  0.5327690000000  0.4527420000000 1.0
C      1  0.5526180000000  0.4811650000000  0.4814560000000 1.0
C      1  0.4815950000000  0.4842620000000  0.4729580000000 1.0
C      1  0.5193900000000  0.5631800000000  0.5324690000000 1.0
C      1  0.5117210000000  0.5436930000000  0.4510830000000 1.0
C      1  0.4538300000000  0.4857400000000  0.4469850000000 1.0
C      1  0.5297100000000  0.4980810000000  0.5599990000000 1.0
C      1  0.4927860000000  0.5056850000000  0.4312500000000 1.0
END
