TITL C-951342-2639-256 -1.85515222463165e-06 125000 -777.801907372626 0 0 126 (C1) n - 1
REM
REM in /home/bkarasulu/work/CARBON/AIRSS/Generating-Clusters/EDIP-Nigel-Params/with-SteepDescent/Only-C1/SD-CG/HFTN-CG
REM
REM
REM
REM
REM
REM ./C.cell (11c1c37f851c82e70ff6c80c92926a4b)
REM
REM compiler GCC version 9.2.1 20190827 (Red Hat 9.2.1-1)
REM options -cpp -mtune=generic -march=x86-64 -g -O0 -fpre-include=/usr/include/finclude/math-vector-fortran.h
REM seed -1499544450 -1347104433 503689627 431156692 -750886678 388781621 -1832212066 323524275 2118650752 -785440300 2146086623 -674967418 -1830723804 1495801109 -27527523 1755223453 -1719837948 1403541190 1904016715 -791892719 990629157 -1231268479 -680067834 850298020 -1398451007 1719671804 -928855518 715093143 940848465 -1800521022 1428160814 -1720592691 -522204365
REM
CELL 1.54180   50.00000   50.00000   50.00000   90.00000   90.00000   90.00000
LATT -1
SFAC C  
C      1  0.4520670000000  0.4456960000000  0.5731680000000 1.0
C      1  0.4540410000000  0.5025840000000  0.4542730000000 1.0
C      1  0.5440220000000  0.5134010000000  0.4984520000000 1.0
C      1  0.4618260000000  0.5105120000000  0.5330420000000 1.0
C      1  0.5262230000000  0.4411420000000  0.5140800000000 1.0
C      1  0.4792680000000  0.4119420000000  0.5407400000000 1.0
C      1  0.5260740000000  0.5094950000000  0.3935620000000 1.0
C      1  0.4895820000000  0.5189030000000  0.4914530000000 1.0
C      1  0.5066250000000  0.4606400000000  0.5521100000000 1.0
C      1  0.4442910000000  0.4820660000000  0.4229010000000 1.0
C      1  0.4300730000000  0.5549960000000  0.5351790000000 1.0
C      1  0.4432980000000  0.4648800000000  0.4835720000000 1.0
C      1  0.4290830000000  0.4467160000000  0.5290110000000 1.0
C      1  0.4875760000000  0.5451240000000  0.4394940000000 1.0
C      1  0.5399310000000  0.5645400000000  0.5541430000000 1.0
C      1  0.5929180000000  0.4613280000000  0.4778830000000 1.0
C      1  0.5252910000000  0.4108230000000  0.5198890000000 1.0
C      1  0.5248580000000  0.5908790000000  0.4606540000000 1.0
C      1  0.5000290000000  0.4399890000000  0.5741570000000 1.0
C      1  0.4092720000000  0.5330410000000  0.4898030000000 1.0
C      1  0.4382900000000  0.4361230000000  0.4833940000000 1.0
C      1  0.4394990000000  0.4615780000000  0.5513880000000 1.0
C      1  0.4558790000000  0.5811900000000  0.4810250000000 1.0
C      1  0.5353350000000  0.4527330000000  0.4845400000000 1.0
C      1  0.5503030000000  0.4819120000000  0.5896830000000 1.0
C      1  0.4788650000000  0.5736510000000  0.4378220000000 1.0
C      1  0.5675050000000  0.5617720000000  0.4746110000000 1.0
C      1  0.4305460000000  0.4633380000000  0.4410970000000 1.0
C      1  0.5116160000000  0.5315730000000  0.5455410000000 1.0
C      1  0.4981680000000  0.4910250000000  0.5898500000000 1.0
C      1  0.5195980000000  0.4872460000000  0.4638860000000 1.0
C      1  0.5469870000000  0.4719210000000  0.4125810000000 1.0
C      1  0.5633710000000  0.5709770000000  0.5022450000000 1.0
C      1  0.4268840000000  0.5377830000000  0.5570600000000 1.0
C      1  0.5021540000000  0.5261700000000  0.3967110000000 1.0
C      1  0.4931660000000  0.4878460000000  0.4812360000000 1.0
C      1  0.5001900000000  0.4519750000000  0.5226820000000 1.0
C      1  0.5863440000000  0.4977780000000  0.5185050000000 1.0
C      1  0.4852820000000  0.4144210000000  0.4897430000000 1.0
C      1  0.5457320000000  0.4829620000000  0.5264710000000 1.0
C      1  0.4846350000000  0.4302150000000  0.4636090000000 1.0
C      1  0.5425070000000  0.5674780000000  0.4592410000000 1.0
C      1  0.4670100000000  0.4771570000000  0.4663950000000 1.0
C      1  0.5087060000000  0.4059990000000  0.5448000000000 1.0
C      1  0.5737660000000  0.4415720000000  0.4663150000000 1.0
C      1  0.4143360000000  0.4830270000000  0.4558320000000 1.0
C      1  0.5126180000000  0.4281810000000  0.4559700000000 1.0
C      1  0.4827100000000  0.5820070000000  0.4965990000000 1.0
C      1  0.5455210000000  0.4469470000000  0.4269180000000 1.0
C      1  0.4426310000000  0.4294960000000  0.5101980000000 1.0
C      1  0.5250580000000  0.4527030000000  0.4470730000000 1.0
C      1  0.4998290000000  0.5903850000000  0.4471200000000 1.0
C      1  0.5309260000000  0.5132830000000  0.5623900000000 1.0
C      1  0.4273880000000  0.5087720000000  0.4195700000000 1.0
C      1  0.4944210000000  0.5623850000000  0.5714850000000 1.0
C      1  0.5173400000000  0.4947620000000  0.5243930000000 1.0
C      1  0.5243600000000  0.5155300000000  0.4529640000000 1.0
C      1  0.5556250000000  0.4901470000000  0.4340040000000 1.0
C      1  0.5101600000000  0.5447220000000  0.4189310000000 1.0
C      1  0.5684190000000  0.4946840000000  0.5446360000000 1.0
C      1  0.5836870000000  0.5144440000000  0.4577030000000 1.0
C      1  0.5102550000000  0.5578950000000  0.4850970000000 1.0
C      1  0.5870110000000  0.4485270000000  0.5226580000000 1.0
C      1  0.4540540000000  0.5722640000000  0.4532410000000 1.0
C      1  0.4503150000000  0.5739760000000  0.5359210000000 1.0
C      1  0.5221380000000  0.5998570000000  0.4882340000000 1.0
C      1  0.5123260000000  0.4017240000000  0.4945620000000 1.0
C      1  0.5552630000000  0.5438580000000  0.5409350000000 1.0
C      1  0.4679020000000  0.5231270000000  0.4305370000000 1.0
C      1  0.5702580000000  0.5164660000000  0.4308480000000 1.0
C      1  0.4938510000000  0.4884780000000  0.5607980000000 1.0
C      1  0.5851800000000  0.5259860000000  0.5058260000000 1.0
C      1  0.4974030000000  0.5731350000000  0.5433810000000 1.0
C      1  0.5777790000000  0.5334850000000  0.4785870000000 1.0
C      1  0.5703060000000  0.4767830000000  0.5703470000000 1.0
C      1  0.5187880000000  0.4175440000000  0.5695350000000 1.0
C      1  0.5580510000000  0.5200470000000  0.5559240000000 1.0
C      1  0.5700900000000  0.4403710000000  0.4386290000000 1.0
C      1  0.4082600000000  0.5053770000000  0.5005670000000 1.0
C      1  0.5574850000000  0.4220880000000  0.4810360000000 1.0
C      1  0.4765890000000  0.5371560000000  0.5733430000000 1.0
C      1  0.5775590000000  0.4499740000000  0.5675640000000 1.0
C      1  0.4821030000000  0.5080600000000  0.4088520000000 1.0
C      1  0.4699210000000  0.4211250000000  0.5141900000000 1.0
C      1  0.4360340000000  0.5136200000000  0.5684910000000 1.0
C      1  0.4424080000000  0.5356510000000  0.4199770000000 1.0
C      1  0.4956160000000  0.6078880000000  0.4933450000000 1.0
C      1  0.5277140000000  0.4984570000000  0.5875210000000 1.0
C      1  0.4339310000000  0.4905220000000  0.5517540000000 1.0
C      1  0.4917920000000  0.4608930000000  0.5977650000000 1.0
C      1  0.4672820000000  0.4528560000000  0.4470470000000 1.0
C      1  0.4956650000000  0.4832180000000  0.4159380000000 1.0
C      1  0.4418050000000  0.4783180000000  0.5105730000000 1.0
C      1  0.5304260000000  0.4109050000000  0.4726320000000 1.0
C      1  0.4200660000000  0.5547570000000  0.5075140000000 1.0
C      1  0.5739260000000  0.5495350000000  0.5202300000000 1.0
C      1  0.4853580000000  0.5173110000000  0.5520870000000 1.0
C      1  0.4318630000000  0.5760830000000  0.4941110000000 1.0
C      1  0.5210190000000  0.4816100000000  0.3999800000000 1.0
C      1  0.5343280000000  0.5796100000000  0.5071940000000 1.0
C      1  0.5449690000000  0.4848040000000  0.4822830000000 1.0
C      1  0.4618150000000  0.4595170000000  0.5978050000000 1.0
C      1  0.4483630000000  0.4831330000000  0.6037890000000 1.0
C      1  0.4634110000000  0.5221240000000  0.5049270000000 1.0
C      1  0.4331650000000  0.5523660000000  0.4435100000000 1.0
C      1  0.5420190000000  0.4552030000000  0.5360100000000 1.0
C      1  0.5337940000000  0.5268890000000  0.4263260000000 1.0
C      1  0.5685140000000  0.4425400000000  0.5423130000000 1.0
C      1  0.4495460000000  0.5096240000000  0.5953780000000 1.0
C      1  0.4085340000000  0.4819280000000  0.4838810000000 1.0
C      1  0.4914390000000  0.5399570000000  0.4697320000000 1.0
C      1  0.4681820000000  0.4827120000000  0.5248620000000 1.0
C      1  0.5692090000000  0.4854350000000  0.4618930000000 1.0
C      1  0.4772880000000  0.4618510000000  0.4204220000000 1.0
C      1  0.5245180000000  0.5804620000000  0.5356220000000 1.0
C      1  0.4177710000000  0.5333630000000  0.4607400000000 1.0
C      1  0.5343170000000  0.5332710000000  0.4748050000000 1.0
C      1  0.4434900000000  0.5089710000000  0.4867360000000 1.0
C      1  0.4781520000000  0.5180360000000  0.5962990000000 1.0
C      1  0.4947620000000  0.4781350000000  0.5116280000000 1.0
C      1  0.4757710000000  0.5795760000000  0.5260670000000 1.0
C      1  0.5143630000000  0.5234110000000  0.5127620000000 1.0
C      1  0.4741610000000  0.4270840000000  0.5662090000000 1.0
C      1  0.5223210000000  0.5548200000000  0.5750960000000 1.0
C      1  0.4118130000000  0.5095780000000  0.4443390000000 1.0
C      1  0.5924810000000  0.4701110000000  0.5060120000000 1.0
END
