TITL C-950523-3027-295 -1.69958052230026e-06 125000 -837.366996690529 0 0 136 (C1) n - 1
REM
REM in /home/bkarasulu/work/CARBON/AIRSS/Generating-Clusters/EDIP-Nigel-Params/with-SteepDescent/Only-C1/SD-CG/HFTN-CG
REM
REM
REM
REM
REM
REM ./C.cell (11c1c37f851c82e70ff6c80c92926a4b)
REM
REM compiler GCC version 9.2.1 20190827 (Red Hat 9.2.1-1)
REM options -cpp -mtune=generic -march=x86-64 -g -O0 -fpre-include=/usr/include/finclude/math-vector-fortran.h
REM seed 1762617400 1067166553 1265970562 1073936615 -778645886 -1281326236 953263790 -1227068502 -417833618 124362693 -26848723 214689572 69846023 739868301 -1000309190 -312462855 1121761933 -1079456792 -1081145110 181393964 730115453 -868458615 -1953009539 -351198345 1631201757 -1728431343 -1912593056 282431042 1735107819 1107587851 -446939709 1754850128 1894784819
REM
CELL 1.54180   50.00000   50.00000   50.00000   90.00000   90.00000   90.00000
LATT -1
SFAC C  
C      1  0.5116830000000  0.4573430000000  0.5731080000000 1.0
C      1  0.5257860000000  0.5296980000000  0.4469900000000 1.0
C      1  0.4207260000000  0.5103500000000  0.4748900000000 1.0
C      1  0.4178850000000  0.5591060000000  0.4966200000000 1.0
C      1  0.5932260000000  0.4656570000000  0.5008130000000 1.0
C      1  0.4789910000000  0.4485920000000  0.4963670000000 1.0
C      1  0.5909790000000  0.5492740000000  0.4689790000000 1.0
C      1  0.5024910000000  0.5887480000000  0.4896870000000 1.0
C      1  0.5550900000000  0.4813180000000  0.5572580000000 1.0
C      1  0.5012250000000  0.5398190000000  0.5886210000000 1.0
C      1  0.4092810000000  0.4720590000000  0.4327220000000 1.0
C      1  0.4876580000000  0.4996860000000  0.4484930000000 1.0
C      1  0.5787030000000  0.5498130000000  0.5270300000000 1.0
C      1  0.4947270000000  0.5041540000000  0.6184670000000 1.0
C      1  0.5379540000000  0.4564260000000  0.5589550000000 1.0
C      1  0.5164920000000  0.4125950000000  0.5342930000000 1.0
C      1  0.4743400000000  0.4384370000000  0.4392590000000 1.0
C      1  0.4517810000000  0.5033710000000  0.5954740000000 1.0
C      1  0.5766450000000  0.5052230000000  0.4403050000000 1.0
C      1  0.5354300000000  0.4082930000000  0.5545890000000 1.0
C      1  0.4365520000000  0.5442820000000  0.5411060000000 1.0
C      1  0.3967250000000  0.5063400000000  0.4569280000000 1.0
C      1  0.5032130000000  0.4860900000000  0.5761730000000 1.0
C      1  0.5552910000000  0.5713020000000  0.4882590000000 1.0
C      1  0.5147920000000  0.5940180000000  0.5361550000000 1.0
C      1  0.5734160000000  0.5708610000000  0.4647440000000 1.0
C      1  0.4257190000000  0.4443280000000  0.4938150000000 1.0
C      1  0.5020690000000  0.4973000000000  0.3955070000000 1.0
C      1  0.4384710000000  0.5492490000000  0.4517030000000 1.0
C      1  0.4722420000000  0.5410980000000  0.5304090000000 1.0
C      1  0.5352460000000  0.3932310000000  0.4834490000000 1.0
C      1  0.4943110000000  0.5395900000000  0.4169790000000 1.0
C      1  0.4351220000000  0.4636610000000  0.5690160000000 1.0
C      1  0.4673250000000  0.5786060000000  0.4230320000000 1.0
C      1  0.5425900000000  0.5439190000000  0.4891600000000 1.0
C      1  0.3955630000000  0.4756030000000  0.4602060000000 1.0
C      1  0.5509700000000  0.4939340000000  0.4462420000000 1.0
C      1  0.4746400000000  0.5151980000000  0.5479700000000 1.0
C      1  0.4458440000000  0.4950070000000  0.4611340000000 1.0
C      1  0.5493180000000  0.4400240000000  0.4534350000000 1.0
C      1  0.5262320000000  0.5033740000000  0.5851720000000 1.0
C      1  0.5605790000000  0.4078090000000  0.4855110000000 1.0
C      1  0.5717900000000  0.5486930000000  0.5556960000000 1.0
C      1  0.4758820000000  0.5269800000000  0.5771260000000 1.0
C      1  0.4613720000000  0.5623540000000  0.4872250000000 1.0
C      1  0.5695240000000  0.4330490000000  0.5296220000000 1.0
C      1  0.5516060000000  0.4314970000000  0.5537260000000 1.0
C      1  0.5111080000000  0.4633690000000  0.4223910000000 1.0
C      1  0.4789650000000  0.5258300000000  0.4387760000000 1.0
C      1  0.4289070000000  0.4276190000000  0.4477190000000 1.0
C      1  0.4075060000000  0.4867290000000  0.5345240000000 1.0
C      1  0.4945530000000  0.5909460000000  0.5170750000000 1.0
C      1  0.4699250000000  0.4143690000000  0.5399790000000 1.0
C      1  0.4244580000000  0.5035490000000  0.5527220000000 1.0
C      1  0.4488470000000  0.5790590000000  0.5083680000000 1.0
C      1  0.5017480000000  0.4402640000000  0.4378410000000 1.0
C      1  0.5023200000000  0.5815470000000  0.5614650000000 1.0
C      1  0.5724900000000  0.5744670000000  0.5127640000000 1.0
C      1  0.5519260000000  0.4403960000000  0.4249800000000 1.0
C      1  0.4962390000000  0.4951280000000  0.5482660000000 1.0
C      1  0.5899610000000  0.5014770000000  0.4661940000000 1.0
C      1  0.4929760000000  0.4969850000000  0.4775940000000 1.0
C      1  0.4175710000000  0.4916180000000  0.5041770000000 1.0
C      1  0.5191330000000  0.5396950000000  0.4725120000000 1.0
C      1  0.4491650000000  0.5232300000000  0.4413210000000 1.0
C      1  0.4334900000000  0.5133870000000  0.4169000000000 1.0
C      1  0.4636190000000  0.4665000000000  0.5650640000000 1.0
C      1  0.5248690000000  0.4213580000000  0.5074270000000 1.0
C      1  0.4690110000000  0.5853640000000  0.5277660000000 1.0
C      1  0.5162480000000  0.4952030000000  0.5264490000000 1.0
C      1  0.5148420000000  0.5200250000000  0.6060570000000 1.0
C      1  0.5924780000000  0.5067380000000  0.5399640000000 1.0
C      1  0.5435090000000  0.4996750000000  0.5366180000000 1.0
C      1  0.4755640000000  0.4917960000000  0.4004240000000 1.0
C      1  0.4488150000000  0.4883690000000  0.4093080000000 1.0
C      1  0.4396180000000  0.4533340000000  0.5194730000000 1.0
C      1  0.4800110000000  0.4898840000000  0.5987530000000 1.0
C      1  0.5185450000000  0.4338180000000  0.4617240000000 1.0
C      1  0.5824470000000  0.5229750000000  0.5632170000000 1.0
C      1  0.4521760000000  0.4947920000000  0.5425270000000 1.0
C      1  0.4744810000000  0.4195370000000  0.5677250000000 1.0
C      1  0.4625170000000  0.4125730000000  0.4771120000000 1.0
C      1  0.5130150000000  0.4884040000000  0.4388150000000 1.0
C      1  0.5680920000000  0.4196570000000  0.4617850000000 1.0
C      1  0.5868680000000  0.4572880000000  0.5266790000000 1.0
C      1  0.5464280000000  0.5559420000000  0.5662810000000 1.0
C      1  0.5198280000000  0.4729470000000  0.5038730000000 1.0
C      1  0.5215510000000  0.4842360000000  0.4771850000000 1.0
C      1  0.4886300000000  0.3863660000000  0.5059170000000 1.0
C      1  0.5554620000000  0.4690450000000  0.4647550000000 1.0
C      1  0.4168850000000  0.5526510000000  0.5234600000000 1.0
C      1  0.5087970000000  0.4457450000000  0.4941490000000 1.0
C      1  0.5541040000000  0.4953450000000  0.5833630000000 1.0
C      1  0.5490180000000  0.4891480000000  0.4158540000000 1.0
C      1  0.5379030000000  0.6011580000000  0.5192070000000 1.0
C      1  0.5838550000000  0.4781050000000  0.5472220000000 1.0
C      1  0.5325960000000  0.5938670000000  0.4902170000000 1.0
C      1  0.4983890000000  0.5252310000000  0.4895520000000 1.0
C      1  0.5411800000000  0.5300000000000  0.5144220000000 1.0
C      1  0.4101880000000  0.4681190000000  0.4858720000000 1.0
C      1  0.4732010000000  0.5379010000000  0.5002740000000 1.0
C      1  0.4055750000000  0.5027510000000  0.4263730000000 1.0
C      1  0.5278950000000  0.5080590000000  0.4026950000000 1.0
C      1  0.5157820000000  0.5827760000000  0.4155860000000 1.0
C      1  0.4249070000000  0.5403160000000  0.4758230000000 1.0
C      1  0.4665300000000  0.4396440000000  0.5223770000000 1.0
C      1  0.4484200000000  0.5587880000000  0.5634730000000 1.0
C      1  0.4865870000000  0.3982440000000  0.4809860000000 1.0
C      1  0.4711660000000  0.5769940000000  0.5555550000000 1.0
C      1  0.5130980000000  0.4049040000000  0.4690000000000 1.0
C      1  0.4370040000000  0.4247410000000  0.4744290000000 1.0
C      1  0.4285700000000  0.4907980000000  0.5798110000000 1.0
C      1  0.5891480000000  0.5246730000000  0.5141740000000 1.0
C      1  0.4841410000000  0.4461650000000  0.5673210000000 1.0
C      1  0.5540370000000  0.4281410000000  0.5051210000000 1.0
C      1  0.4202240000000  0.4601050000000  0.5429030000000 1.0
C      1  0.4814700000000  0.5787670000000  0.4714810000000 1.0
C      1  0.5933660000000  0.5251750000000  0.4837110000000 1.0
C      1  0.5127060000000  0.5246070000000  0.5166520000000 1.0
C      1  0.5386490000000  0.4608370000000  0.4122050000000 1.0
C      1  0.4394420000000  0.4736660000000  0.4357850000000 1.0
C      1  0.4518860000000  0.5412110000000  0.5863720000000 1.0
C      1  0.5019650000000  0.5518210000000  0.5361440000000 1.0
C      1  0.4478750000000  0.4451630000000  0.4366690000000 1.0
C      1  0.5615680000000  0.5761690000000  0.4402980000000 1.0
C      1  0.4527730000000  0.5745030000000  0.4460680000000 1.0
C      1  0.4474960000000  0.4832150000000  0.5127010000000 1.0
C      1  0.5229420000000  0.5323870000000  0.4188900000000 1.0
C      1  0.5641120000000  0.5962610000000  0.5285400000000 1.0
C      1  0.4922240000000  0.3964770000000  0.5318720000000 1.0
C      1  0.4917190000000  0.5685900000000  0.4143190000000 1.0
C      1  0.4682990000000  0.4779400000000  0.4880290000000 1.0
C      1  0.5407170000000  0.5836960000000  0.4253890000000 1.0
C      1  0.5169670000000  0.5539530000000  0.5667430000000 1.0
C      1  0.5818070000000  0.4757950000000  0.4775450000000 1.0
C      1  0.5754050000000  0.5125550000000  0.5884860000000 1.0
END
