TITL C-950522-5749-642 3.15571072208609e-06 125000 -1172.69844920163 0 0 186 (C1) n - 1
REM
REM in /home/bkarasulu/work/CARBON/AIRSS/Generating-Clusters/EDIP-Nigel-Params/with-SteepDescent/Only-C1/SD-CG/HFTN-CG
REM
REM
REM
REM
REM
REM ./C.cell (11c1c37f851c82e70ff6c80c92926a4b)
REM
REM compiler GCC version 9.2.1 20190827 (Red Hat 9.2.1-1)
REM options -cpp -mtune=generic -march=x86-64 -g -O0 -fpre-include=/usr/include/finclude/math-vector-fortran.h
REM seed 990072549 869598414 872837376 -796143979 1985673434 -1304879538 119310327 -698457081 491711393 -653698884 470741324 439151918 1627622115 1109414100 1714315720 -1356220309 291641987 -1580962232 2046273057 -1231718928 453390323 -504503974 2059474004 -1921276186 -1783980794 -312198455 -926042489 -306424320 -621262732 -2088427964 -98417385 1742832472 1829694790
REM
CELL 1.54180   50.00000   50.00000   50.00000   90.00000   90.00000   90.00000
LATT -1
SFAC C  
C      1  0.4440540000000  0.4468640000000  0.4334300000000 1.0
C      1  0.4979280000000  0.3974510000000  0.4523030000000 1.0
C      1  0.5070770000000  0.4899740000000  0.4708260000000 1.0
C      1  0.4444310000000  0.4802000000000  0.5840700000000 1.0
C      1  0.5434940000000  0.5314390000000  0.5404100000000 1.0
C      1  0.5472640000000  0.5861040000000  0.5489440000000 1.0
C      1  0.4034770000000  0.4327850000000  0.5077100000000 1.0
C      1  0.5591940000000  0.4178950000000  0.4947050000000 1.0
C      1  0.4843940000000  0.4573180000000  0.5477360000000 1.0
C      1  0.4580000000000  0.4603730000000  0.4105220000000 1.0
C      1  0.4690080000000  0.5629920000000  0.4795420000000 1.0
C      1  0.4249950000000  0.5524630000000  0.4530320000000 1.0
C      1  0.5199900000000  0.5069060000000  0.5913470000000 1.0
C      1  0.5911960000000  0.4984640000000  0.5576410000000 1.0
C      1  0.4894330000000  0.6053030000000  0.4485390000000 1.0
C      1  0.4085520000000  0.5128460000000  0.4756010000000 1.0
C      1  0.4436960000000  0.4134580000000  0.5318070000000 1.0
C      1  0.4648360000000  0.6020140000000  0.4991720000000 1.0
C      1  0.5220970000000  0.5575960000000  0.5814650000000 1.0
C      1  0.5498820000000  0.5294220000000  0.3996950000000 1.0
C      1  0.4741480000000  0.4702100000000  0.5126740000000 1.0
C      1  0.5525130000000  0.4093760000000  0.5225620000000 1.0
C      1  0.3951300000000  0.4533730000000  0.4871690000000 1.0
C      1  0.4267160000000  0.5586960000000  0.5051860000000 1.0
C      1  0.4574010000000  0.4177600000000  0.4325130000000 1.0
C      1  0.4562800000000  0.4892750000000  0.4535740000000 1.0
C      1  0.5158170000000  0.4172820000000  0.5687000000000 1.0
C      1  0.4601570000000  0.4115230000000  0.5070850000000 1.0
C      1  0.5757630000000  0.5471560000000  0.5655550000000 1.0
C      1  0.3834630000000  0.4939980000000  0.5125420000000 1.0
C      1  0.4863160000000  0.4269890000000  0.5100840000000 1.0
C      1  0.5045880000000  0.4980550000000  0.3940320000000 1.0
C      1  0.6125570000000  0.4960260000000  0.4947250000000 1.0
C      1  0.4779330000000  0.5345020000000  0.5800320000000 1.0
C      1  0.4508610000000  0.5476190000000  0.5795360000000 1.0
C      1  0.5101110000000  0.3867350000000  0.5010570000000 1.0
C      1  0.4507650000000  0.5966880000000  0.4745330000000 1.0
C      1  0.4761060000000  0.5057390000000  0.5660450000000 1.0
C      1  0.5505140000000  0.5478200000000  0.5146890000000 1.0
C      1  0.5921560000000  0.4810980000000  0.5109110000000 1.0
C      1  0.4772200000000  0.4943100000000  0.4318770000000 1.0
C      1  0.5164930000000  0.3994790000000  0.4753210000000 1.0
C      1  0.4390330000000  0.4520410000000  0.4822750000000 1.0
C      1  0.5338040000000  0.4885980000000  0.4345910000000 1.0
C      1  0.5495280000000  0.5290170000000  0.4590940000000 1.0
C      1  0.5570470000000  0.4351210000000  0.5420890000000 1.0
C      1  0.6032650000000  0.5444670000000  0.4771030000000 1.0
C      1  0.5926070000000  0.5274020000000  0.5502580000000 1.0
C      1  0.4266690000000  0.4890340000000  0.4431670000000 1.0
C      1  0.4070430000000  0.4927870000000  0.5561350000000 1.0
C      1  0.4929190000000  0.4285960000000  0.5388840000000 1.0
C      1  0.4566230000000  0.4736150000000  0.5542370000000 1.0
C      1  0.5436030000000  0.4087380000000  0.4707050000000 1.0
C      1  0.5493580000000  0.4812400000000  0.4600070000000 1.0
C      1  0.5864850000000  0.4575020000000  0.4928000000000 1.0
C      1  0.5106630000000  0.3948470000000  0.5482880000000 1.0
C      1  0.5016370000000  0.5543490000000  0.5190820000000 1.0
C      1  0.5932640000000  0.5340750000000  0.5218610000000 1.0
C      1  0.5093780000000  0.4688570000000  0.5624730000000 1.0
C      1  0.4819770000000  0.4425340000000  0.4647030000000 1.0
C      1  0.5646970000000  0.5722560000000  0.4412980000000 1.0
C      1  0.5041590000000  0.5966570000000  0.5533240000000 1.0
C      1  0.4439000000000  0.4352430000000  0.5866010000000 1.0
C      1  0.5136140000000  0.4675440000000  0.4897900000000 1.0
C      1  0.5158990000000  0.5007960000000  0.5215630000000 1.0
C      1  0.4585160000000  0.5294630000000  0.3930430000000 1.0
C      1  0.4345340000000  0.5600230000000  0.4259500000000 1.0
C      1  0.5729140000000  0.4363290000000  0.4426580000000 1.0
C      1  0.4907830000000  0.5367450000000  0.6075520000000 1.0
C      1  0.4221170000000  0.4353940000000  0.5350180000000 1.0
C      1  0.3777610000000  0.4743710000000  0.4935450000000 1.0
C      1  0.4702510000000  0.5106390000000  0.5370160000000 1.0
C      1  0.5134270000000  0.5282890000000  0.5382580000000 1.0
C      1  0.5095660000000  0.5209370000000  0.4164950000000 1.0
C      1  0.5881940000000  0.5666410000000  0.4877140000000 1.0
C      1  0.5782540000000  0.5591900000000  0.5171370000000 1.0
C      1  0.4816060000000  0.4215550000000  0.4146280000000 1.0
C      1  0.4768870000000  0.5451390000000  0.5025760000000 1.0
C      1  0.4439910000000  0.5061100000000  0.5958200000000 1.0
C      1  0.3963810000000  0.5181050000000  0.5010760000000 1.0
C      1  0.4325210000000  0.5261330000000  0.5809270000000 1.0
C      1  0.5959870000000  0.4736680000000  0.4672750000000 1.0
C      1  0.4214070000000  0.5193700000000  0.5533560000000 1.0
C      1  0.4037190000000  0.5426060000000  0.5451890000000 1.0
C      1  0.4158740000000  0.4604070000000  0.4376320000000 1.0
C      1  0.5483030000000  0.4246910000000  0.4464380000000 1.0
C      1  0.5041310000000  0.4970610000000  0.5682520000000 1.0
C      1  0.5369990000000  0.5082440000000  0.5011100000000 1.0
C      1  0.5722230000000  0.5701120000000  0.5466130000000 1.0
C      1  0.5887130000000  0.5048850000000  0.4207710000000 1.0
C      1  0.5532330000000  0.5937250000000  0.5035720000000 1.0
C      1  0.5077640000000  0.4509820000000  0.4494180000000 1.0
C      1  0.5247270000000  0.4338370000000  0.4301990000000 1.0
C      1  0.4606440000000  0.4032730000000  0.5531740000000 1.0
C      1  0.5313270000000  0.4533030000000  0.4055470000000 1.0
C      1  0.5386340000000  0.4360810000000  0.5659700000000 1.0
C      1  0.5103420000000  0.6056080000000  0.5246200000000 1.0
C      1  0.5845130000000  0.4613110000000  0.4413900000000 1.0
C      1  0.4014150000000  0.4497570000000  0.4596540000000 1.0
C      1  0.4816800000000  0.3830260000000  0.5108040000000 1.0
C      1  0.5346600000000  0.6017870000000  0.4600590000000 1.0
C      1  0.5386960000000  0.6006400000000  0.5257960000000 1.0
C      1  0.5064200000000  0.4101550000000  0.4259960000000 1.0
C      1  0.4618290000000  0.5985020000000  0.4478880000000 1.0
C      1  0.4482920000000  0.5873200000000  0.5187770000000 1.0
C      1  0.4198580000000  0.5141080000000  0.4267960000000 1.0
C      1  0.4326350000000  0.4652770000000  0.5333300000000 1.0
C      1  0.5214800000000  0.5664080000000  0.4692000000000 1.0
C      1  0.5057610000000  0.4802010000000  0.4424880000000 1.0
C      1  0.4853880000000  0.4898480000000  0.6205720000000 1.0
C      1  0.5590520000000  0.5067570000000  0.5963890000000 1.0
C      1  0.5746650000000  0.4947980000000  0.4719390000000 1.0
C      1  0.5399170000000  0.5021100000000  0.3906930000000 1.0
C      1  0.5274770000000  0.5857270000000  0.5702080000000 1.0
C      1  0.4671820000000  0.4248150000000  0.5722970000000 1.0
C      1  0.4727230000000  0.5046530000000  0.3893870000000 1.0
C      1  0.4542850000000  0.4865750000000  0.4016460000000 1.0
C      1  0.4370370000000  0.5020940000000  0.4997300000000 1.0
C      1  0.4128140000000  0.5670970000000  0.5561620000000 1.0
C      1  0.5372130000000  0.4571170000000  0.4743010000000 1.0
C      1  0.5284740000000  0.5893620000000  0.4114990000000 1.0
C      1  0.5825280000000  0.4911250000000  0.5845570000000 1.0
C      1  0.4801790000000  0.4635200000000  0.6123290000000 1.0
C      1  0.3971460000000  0.4805060000000  0.5333820000000 1.0
C      1  0.5494120000000  0.5354050000000  0.5785690000000 1.0
C      1  0.5402220000000  0.5530720000000  0.4468280000000 1.0
C      1  0.4593070000000  0.5805830000000  0.5449120000000 1.0
C      1  0.5865000000000  0.5533930000000  0.4286050000000 1.0
C      1  0.5326580000000  0.4789600000000  0.5391430000000 1.0
C      1  0.5577140000000  0.6033730000000  0.4780030000000 1.0
C      1  0.4889780000000  0.4511770000000  0.4938730000000 1.0
C      1  0.5000060000000  0.4515840000000  0.5953300000000 1.0
C      1  0.4731480000000  0.4131920000000  0.4576980000000 1.0
C      1  0.4837620000000  0.4500350000000  0.4081910000000 1.0
C      1  0.4403600000000  0.4216720000000  0.4859420000000 1.0
C      1  0.5183580000000  0.5666050000000  0.4019050000000 1.0
C      1  0.4404890000000  0.5332650000000  0.4152410000000 1.0
C      1  0.5460830000000  0.5957970000000  0.4316130000000 1.0
C      1  0.4920440000000  0.5682250000000  0.4590260000000 1.0
C      1  0.5472450000000  0.4795190000000  0.4103460000000 1.0
C      1  0.4826350000000  0.3862500000000  0.5410130000000 1.0
C      1  0.5664390000000  0.5015710000000  0.5095130000000 1.0
C      1  0.5769820000000  0.4787030000000  0.4185170000000 1.0
C      1  0.4196530000000  0.4430540000000  0.5691790000000 1.0
C      1  0.6085920000000  0.5244890000000  0.4985040000000 1.0
C      1  0.5273360000000  0.5647700000000  0.5022490000000 1.0
C      1  0.5062870000000  0.6080300000000  0.4715940000000 1.0
C      1  0.4144700000000  0.4116220000000  0.4924450000000 1.0
C      1  0.4523100000000  0.5419550000000  0.4627710000000 1.0
C      1  0.4857280000000  0.4985090000000  0.5147440000000 1.0
C      1  0.4568050000000  0.4585570000000  0.4591530000000 1.0
C      1  0.4434800000000  0.5187270000000  0.5277720000000 1.0
C      1  0.4519180000000  0.4591700000000  0.6035820000000 1.0
C      1  0.4559480000000  0.5791970000000  0.4268630000000 1.0
C      1  0.5771880000000  0.5300390000000  0.4118660000000 1.0
C      1  0.5307320000000  0.5094270000000  0.4733630000000 1.0
C      1  0.4802940000000  0.5169850000000  0.4920850000000 1.0
C      1  0.5757490000000  0.4626060000000  0.5796150000000 1.0
C      1  0.5470480000000  0.4590320000000  0.5833380000000 1.0
C      1  0.4033380000000  0.5436250000000  0.5154880000000 1.0
C      1  0.5383810000000  0.4834170000000  0.5992880000000 1.0
C      1  0.4407620000000  0.5635220000000  0.5582670000000 1.0
C      1  0.5570020000000  0.5029810000000  0.5399480000000 1.0
C      1  0.5849930000000  0.4513580000000  0.5533050000000 1.0
C      1  0.5984870000000  0.4748550000000  0.5399840000000 1.0
C      1  0.5289060000000  0.5439260000000  0.4161520000000 1.0
C      1  0.5272610000000  0.3940560000000  0.5240550000000 1.0
C      1  0.4989990000000  0.5485760000000  0.5630110000000 1.0
C      1  0.5101060000000  0.5573620000000  0.6077680000000 1.0
C      1  0.4445270000000  0.4717140000000  0.5060490000000 1.0
C      1  0.4558130000000  0.5117110000000  0.4765920000000 1.0
C      1  0.4745550000000  0.5473700000000  0.4394840000000 1.0
C      1  0.5459600000000  0.4554490000000  0.5236340000000 1.0
C      1  0.5057000000000  0.4659410000000  0.3978510000000 1.0
C      1  0.5763110000000  0.5839380000000  0.4670150000000 1.0
C      1  0.4173450000000  0.4727770000000  0.5751370000000 1.0
C      1  0.5579050000000  0.4478360000000  0.4958940000000 1.0
C      1  0.4933970000000  0.4259470000000  0.5852680000000 1.0
C      1  0.5024410000000  0.5114170000000  0.6151280000000 1.0
C      1  0.4080210000000  0.5284630000000  0.4509270000000 1.0
C      1  0.5769580000000  0.5189480000000  0.4543630000000 1.0
C      1  0.4884100000000  0.5731140000000  0.5457710000000 1.0
C      1  0.4888970000000  0.5217810000000  0.4355400000000 1.0
C      1  0.4505950000000  0.5470230000000  0.5187600000000 1.0
C      1  0.6063240000000  0.5431640000000  0.4481340000000 1.0
C      1  0.4944980000000  0.6027710000000  0.4987520000000 1.0
END
