TITL C-950533-5798-152 -1.90801604037962e-06 125000 -1215.09125192045 0 0 195 (C1) n - 1
REM
REM in /home/bkarasulu/work/CARBON/AIRSS/Generating-Clusters/EDIP-Nigel-Params/with-SteepDescent/Only-C1/SD-CG/HFTN-CG
REM
REM
REM
REM
REM
REM ./C.cell (11c1c37f851c82e70ff6c80c92926a4b)
REM
REM compiler GCC version 9.2.1 20190827 (Red Hat 9.2.1-1)
REM options -cpp -mtune=generic -march=x86-64 -g -O0 -fpre-include=/usr/include/finclude/math-vector-fortran.h
REM seed -1317982342 -456835931 1569090397 2008734618 354402077 400196420 -1229072350 763438200 -422936892 -400898031 52087069 -1196370568 1043917948 -510851553 218805291 -11242883 1242907937 -1262333152 -1434072595 1671382290 1454114594 -1208956811 -516952892 -1200414458 1377822723 -300467109 -2109368117 -549962594 1892440440 500326453 -1642952555 -995442434 1164730971
REM
CELL 1.54180   50.00000   50.00000   50.00000   90.00000   90.00000   90.00000
LATT -1
SFAC C  
C      1  0.4983640000000  0.4810660000000  0.4382350000000 1.0
C      1  0.5455050000000  0.4086880000000  0.4547810000000 1.0
C      1  0.5246630000000  0.5226770000000  0.4388390000000 1.0
C      1  0.4467650000000  0.4507210000000  0.4749470000000 1.0
C      1  0.5578500000000  0.5130840000000  0.5945570000000 1.0
C      1  0.5341930000000  0.4126670000000  0.4825020000000 1.0
C      1  0.4549450000000  0.5238320000000  0.4440300000000 1.0
C      1  0.4717910000000  0.5376480000000  0.6078700000000 1.0
C      1  0.4882020000000  0.4982010000000  0.4614810000000 1.0
C      1  0.4008590000000  0.4749150000000  0.5472670000000 1.0
C      1  0.5759120000000  0.4466210000000  0.5874600000000 1.0
C      1  0.4806370000000  0.5438770000000  0.4424830000000 1.0
C      1  0.5631100000000  0.4204340000000  0.5462880000000 1.0
C      1  0.4024480000000  0.4289070000000  0.4861300000000 1.0
C      1  0.4593120000000  0.4975930000000  0.4586120000000 1.0
C      1  0.4363530000000  0.5389200000000  0.4087210000000 1.0
C      1  0.4277910000000  0.4354660000000  0.5331950000000 1.0
C      1  0.4018170000000  0.4500980000000  0.5318500000000 1.0
C      1  0.5813880000000  0.4431650000000  0.5130840000000 1.0
C      1  0.4942920000000  0.3976430000000  0.4853020000000 1.0
C      1  0.5510630000000  0.4953460000000  0.4166870000000 1.0
C      1  0.5061560000000  0.4879930000000  0.3829370000000 1.0
C      1  0.5559180000000  0.5968510000000  0.5507360000000 1.0
C      1  0.4298280000000  0.5426850000000  0.5198720000000 1.0
C      1  0.5072500000000  0.5102650000000  0.4065840000000 1.0
C      1  0.4838230000000  0.4652640000000  0.4147060000000 1.0
C      1  0.5807870000000  0.5691830000000  0.4430640000000 1.0
C      1  0.4441190000000  0.4014700000000  0.4855640000000 1.0
C      1  0.4403190000000  0.4800750000000  0.5111490000000 1.0
C      1  0.4659220000000  0.4858150000000  0.4005950000000 1.0
C      1  0.4062500000000  0.5585530000000  0.5094220000000 1.0
C      1  0.4623230000000  0.4175460000000  0.5563440000000 1.0
C      1  0.4328180000000  0.5739050000000  0.5784220000000 1.0
C      1  0.6145410000000  0.5099100000000  0.5245930000000 1.0
C      1  0.4778290000000  0.5602780000000  0.4830510000000 1.0
C      1  0.6072100000000  0.5293150000000  0.5426830000000 1.0
C      1  0.4442660000000  0.3971190000000  0.5141920000000 1.0
C      1  0.4541470000000  0.6008450000000  0.4931730000000 1.0
C      1  0.4670420000000  0.3904340000000  0.4718560000000 1.0
C      1  0.5512380000000  0.5033300000000  0.4484430000000 1.0
C      1  0.4571140000000  0.3986910000000  0.4432180000000 1.0
C      1  0.5534370000000  0.4009290000000  0.5030680000000 1.0
C      1  0.5297740000000  0.4421590000000  0.4896670000000 1.0
C      1  0.4954870000000  0.5909540000000  0.4320430000000 1.0
C      1  0.4740000000000  0.4732280000000  0.6036780000000 1.0
C      1  0.3983320000000  0.4534790000000  0.5028030000000 1.0
C      1  0.5619470000000  0.5741240000000  0.5690710000000 1.0
C      1  0.4823870000000  0.5586280000000  0.5887100000000 1.0
C      1  0.3988060000000  0.4069430000000  0.5032260000000 1.0
C      1  0.4393120000000  0.4398720000000  0.4222530000000 1.0
C      1  0.4874360000000  0.5081180000000  0.5696170000000 1.0
C      1  0.4520270000000  0.5459630000000  0.4756570000000 1.0
C      1  0.5043280000000  0.5442200000000  0.4848650000000 1.0
C      1  0.5085390000000  0.4689200000000  0.5331960000000 1.0
C      1  0.4597480000000  0.5250740000000  0.5830770000000 1.0
C      1  0.5288780000000  0.5839900000000  0.5411630000000 1.0
C      1  0.4880620000000  0.5558940000000  0.5326450000000 1.0
C      1  0.5405110000000  0.5150720000000  0.4896270000000 1.0
C      1  0.5633810000000  0.4539530000000  0.4392170000000 1.0
C      1  0.3876520000000  0.4779000000000  0.4904640000000 1.0
C      1  0.5767050000000  0.5073970000000  0.5726910000000 1.0
C      1  0.4409890000000  0.5268440000000  0.4967940000000 1.0
C      1  0.5889590000000  0.4226800000000  0.4680600000000 1.0
C      1  0.5636330000000  0.6071950000000  0.5079780000000 1.0
C      1  0.4931710000000  0.4009880000000  0.5159540000000 1.0
C      1  0.5927030000000  0.4657800000000  0.4769520000000 1.0
C      1  0.4748030000000  0.5890770000000  0.4752650000000 1.0
C      1  0.5333500000000  0.5583030000000  0.4808040000000 1.0
C      1  0.5683570000000  0.5877980000000  0.4871800000000 1.0
C      1  0.4260400000000  0.4965280000000  0.5866800000000 1.0
C      1  0.4325510000000  0.4684770000000  0.4243230000000 1.0
C      1  0.4542120000000  0.5711990000000  0.4334360000000 1.0
C      1  0.5144930000000  0.6000990000000  0.4532260000000 1.0
C      1  0.5342870000000  0.4514540000000  0.4333980000000 1.0
C      1  0.5275640000000  0.4889360000000  0.5481180000000 1.0
C      1  0.4198080000000  0.4091360000000  0.5220900000000 1.0
C      1  0.5614180000000  0.5470490000000  0.5211730000000 1.0
C      1  0.4640780000000  0.5347790000000  0.4019010000000 1.0
C      1  0.4969160000000  0.5544700000000  0.5626460000000 1.0
C      1  0.5110330000000  0.5350180000000  0.3889060000000 1.0
C      1  0.5858100000000  0.5222590000000  0.4108760000000 1.0
C      1  0.5512930000000  0.5187570000000  0.5157680000000 1.0
C      1  0.4761680000000  0.5107080000000  0.4141360000000 1.0
C      1  0.4897150000000  0.4472540000000  0.4644890000000 1.0
C      1  0.5048990000000  0.4599880000000  0.3933560000000 1.0
C      1  0.5115790000000  0.4448430000000  0.5138050000000 1.0
C      1  0.6080030000000  0.4642160000000  0.5519990000000 1.0
C      1  0.5177310000000  0.5739440000000  0.5668270000000 1.0
C      1  0.3972230000000  0.5023280000000  0.5034720000000 1.0
C      1  0.4840990000000  0.4306480000000  0.5700520000000 1.0
C      1  0.5148250000000  0.4634550000000  0.4540590000000 1.0
C      1  0.5090440000000  0.4210610000000  0.5602020000000 1.0
C      1  0.4945670000000  0.5223100000000  0.6181550000000 1.0
C      1  0.4879760000000  0.4478700000000  0.5947310000000 1.0
C      1  0.5852700000000  0.5417160000000  0.4338220000000 1.0
C      1  0.5149610000000  0.5406970000000  0.6003790000000 1.0
C      1  0.4874120000000  0.4944550000000  0.6173220000000 1.0
C      1  0.4880790000000  0.5533250000000  0.3967050000000 1.0
C      1  0.4087920000000  0.5318310000000  0.5660450000000 1.0
C      1  0.5964940000000  0.5099140000000  0.5006150000000 1.0
C      1  0.4277690000000  0.5922600000000  0.4843410000000 1.0
C      1  0.5156200000000  0.4975330000000  0.5755590000000 1.0
C      1  0.4572570000000  0.5059100000000  0.5129080000000 1.0
C      1  0.4784490000000  0.4137660000000  0.4312620000000 1.0
C      1  0.5832710000000  0.5392700000000  0.4802300000000 1.0
C      1  0.5141600000000  0.4171580000000  0.5303830000000 1.0
C      1  0.4528320000000  0.5112160000000  0.5418560000000 1.0
C      1  0.5628530000000  0.5484460000000  0.5516710000000 1.0
C      1  0.5265330000000  0.4200470000000  0.4112000000000 1.0
C      1  0.4964220000000  0.4177560000000  0.4544260000000 1.0
C      1  0.6024940000000  0.4562740000000  0.5802870000000 1.0
C      1  0.5567720000000  0.4296490000000  0.5731720000000 1.0
C      1  0.5722580000000  0.4967390000000  0.5210520000000 1.0
C      1  0.5441750000000  0.5680160000000  0.5092290000000 1.0
C      1  0.4542440000000  0.4821990000000  0.5828660000000 1.0
C      1  0.5234190000000  0.4778440000000  0.5999500000000 1.0
C      1  0.5945800000000  0.4950230000000  0.4239610000000 1.0
C      1  0.4274450000000  0.5673700000000  0.4416840000000 1.0
C      1  0.4129390000000  0.4947980000000  0.5280120000000 1.0
C      1  0.4694020000000  0.5916210000000  0.4453940000000 1.0
C      1  0.6052550000000  0.4914780000000  0.4776440000000 1.0
C      1  0.5017480000000  0.5301750000000  0.5152340000000 1.0
C      1  0.4782560000000  0.4900390000000  0.3746110000000 1.0
C      1  0.4179540000000  0.5426400000000  0.4304550000000 1.0
C      1  0.4381150000000  0.5990890000000  0.5687760000000 1.0
C      1  0.5276650000000  0.5173100000000  0.5336920000000 1.0
C      1  0.4579600000000  0.4560370000000  0.5198520000000 1.0
C      1  0.4588740000000  0.4661980000000  0.4516970000000 1.0
C      1  0.4163700000000  0.5864690000000  0.5113710000000 1.0
C      1  0.5384390000000  0.5426760000000  0.3981540000000 1.0
C      1  0.5860190000000  0.5696090000000  0.4732080000000 1.0
C      1  0.5700720000000  0.4238880000000  0.4460360000000 1.0
C      1  0.4099200000000  0.5601180000000  0.5686890000000 1.0
C      1  0.4124160000000  0.4721720000000  0.5751710000000 1.0
C      1  0.4236620000000  0.5204800000000  0.5414840000000 1.0
C      1  0.4108440000000  0.4859180000000  0.4220250000000 1.0
C      1  0.4361580000000  0.4297210000000  0.5603800000000 1.0
C      1  0.5950470000000  0.5028260000000  0.4529500000000 1.0
C      1  0.4324330000000  0.4509890000000  0.5787970000000 1.0
C      1  0.5472120000000  0.4662820000000  0.4869810000000 1.0
C      1  0.5657060000000  0.4717460000000  0.4634990000000 1.0
C      1  0.5639530000000  0.4892800000000  0.5510860000000 1.0
C      1  0.5646180000000  0.4685580000000  0.5110600000000 1.0
C      1  0.4542830000000  0.5597940000000  0.5336310000000 1.0
C      1  0.4996430000000  0.6041990000000  0.4783520000000 1.0
C      1  0.4862170000000  0.5057670000000  0.5085190000000 1.0
C      1  0.5731200000000  0.4739160000000  0.4168590000000 1.0
C      1  0.5045110000000  0.5812460000000  0.5227610000000 1.0
C      1  0.5771200000000  0.4618780000000  0.5524970000000 1.0
C      1  0.4996470000000  0.5615180000000  0.4236420000000 1.0
C      1  0.5369930000000  0.6154870000000  0.5079940000000 1.0
C      1  0.5144870000000  0.5997480000000  0.5023730000000 1.0
C      1  0.5357140000000  0.5802220000000  0.4582290000000 1.0
C      1  0.4063780000000  0.5244350000000  0.4542930000000 1.0
C      1  0.5698810000000  0.4260880000000  0.4913100000000 1.0
C      1  0.4451900000000  0.5890940000000  0.5248670000000 1.0
C      1  0.5318550000000  0.4877000000000  0.6265330000000 1.0
C      1  0.5168420000000  0.4489910000000  0.5983630000000 1.0
C      1  0.5294440000000  0.4478360000000  0.4027540000000 1.0
C      1  0.5582240000000  0.5185160000000  0.3977180000000 1.0
C      1  0.6186400000000  0.4857430000000  0.5376990000000 1.0
C      1  0.5316740000000  0.5220900000000  0.5824420000000 1.0
C      1  0.4679410000000  0.4905050000000  0.5566740000000 1.0
C      1  0.5361040000000  0.5351810000000  0.5562290000000 1.0
C      1  0.5862940000000  0.5322900000000  0.5608180000000 1.0
C      1  0.4459490000000  0.6092220000000  0.5453990000000 1.0
C      1  0.5541290000000  0.5776930000000  0.4363880000000 1.0
C      1  0.4319340000000  0.4173800000000  0.4421000000000 1.0
C      1  0.3975580000000  0.4973190000000  0.4437060000000 1.0
C      1  0.5760500000000  0.6038380000000  0.5326570000000 1.0
C      1  0.5220630000000  0.4108100000000  0.4384700000000 1.0
C      1  0.5979370000000  0.5302520000000  0.4562640000000 1.0
C      1  0.4480630000000  0.5515540000000  0.5642430000000 1.0
C      1  0.4180300000000  0.5115760000000  0.4830670000000 1.0
C      1  0.5429660000000  0.4064950000000  0.5298930000000 1.0
C      1  0.4308390000000  0.4749470000000  0.4824820000000 1.0
C      1  0.5296500000000  0.5505880000000  0.4260930000000 1.0
C      1  0.5382140000000  0.5681280000000  0.5864120000000 1.0
C      1  0.5527920000000  0.5337160000000  0.4711810000000 1.0
C      1  0.4966990000000  0.4861740000000  0.4888920000000 1.0
C      1  0.4274420000000  0.5652510000000  0.4707130000000 1.0
C      1  0.6073910000000  0.4439740000000  0.4661290000000 1.0
C      1  0.4021990000000  0.5521930000000  0.4805590000000 1.0
C      1  0.5283350000000  0.4891260000000  0.4819070000000 1.0
C      1  0.4099300000000  0.5188650000000  0.5906550000000 1.0
C      1  0.5006870000000  0.5262480000000  0.4584270000000 1.0
C      1  0.4682360000000  0.4384150000000  0.4190490000000 1.0
C      1  0.4673090000000  0.4064000000000  0.5289340000000 1.0
C      1  0.3970980000000  0.4771010000000  0.4636310000000 1.0
C      1  0.5882120000000  0.4241490000000  0.5339870000000 1.0
C      1  0.4852990000000  0.4534460000000  0.4968700000000 1.0
C      1  0.4300240000000  0.4254940000000  0.4718730000000 1.0
C      1  0.5286380000000  0.4344890000000  0.5762630000000 1.0
C      1  0.5561870000000  0.4923970000000  0.6142900000000 1.0
C      1  0.4791350000000  0.4686270000000  0.5392560000000 1.0
END
