TITL C-951336-9012-458 1.19077445127609e-07 125000 -474.924375502633 0 0 77 (C1) n - 1
REM
REM in /home/bkarasulu/work/CARBON/AIRSS/Generating-Clusters/EDIP-Nigel-Params/with-SteepDescent/Only-C1/SD-CG/HFTN-CG
REM
REM
REM
REM
REM
REM ./C.cell (11c1c37f851c82e70ff6c80c92926a4b)
REM
REM compiler GCC version 9.2.1 20190827 (Red Hat 9.2.1-1)
REM options -cpp -mtune=generic -march=x86-64 -g -O0 -fpre-include=/usr/include/finclude/math-vector-fortran.h
REM seed 696446499 1892984747 -1301962681 1607799167 -1330127540 1566794631 -1431636209 897624416 230897777 -1485139074 1856909069 -741591711 -2041586199 -1227642889 -1837863522 956770488 -1423077563 -1419339829 -2122084762 2027147364 986321769 2099955451 -1559334102 175714952 -781964285 -592529929 740205557 81376263 -343814082 43299342 -618336182 -1305640758 2102825117
REM
CELL 1.54180   50.00000   50.00000   50.00000   90.00000   90.00000   90.00000
LATT -1
SFAC C  
C      1  0.5188640000000  0.4756910000000  0.4337050000000 1.0
C      1  0.5597340000000  0.4696410000000  0.5339500000000 1.0
C      1  0.5155710000000  0.4976120000000  0.5326770000000 1.0
C      1  0.4833180000000  0.4488610000000  0.4319440000000 1.0
C      1  0.4992630000000  0.4266800000000  0.5135550000000 1.0
C      1  0.4929540000000  0.5459140000000  0.5374230000000 1.0
C      1  0.5331390000000  0.4554910000000  0.4527410000000 1.0
C      1  0.4990210000000  0.4648650000000  0.4171570000000 1.0
C      1  0.4682650000000  0.4993380000000  0.5643490000000 1.0
C      1  0.5094040000000  0.4845760000000  0.4631690000000 1.0
C      1  0.5109260000000  0.4746470000000  0.5108300000000 1.0
C      1  0.5259820000000  0.5024480000000  0.4796770000000 1.0
C      1  0.4743220000000  0.4702670000000  0.5654130000000 1.0
C      1  0.5634760000000  0.5117380000000  0.4489150000000 1.0
C      1  0.4963930000000  0.5188030000000  0.5206930000000 1.0
C      1  0.4433650000000  0.5461270000000  0.4671340000000 1.0
C      1  0.4813500000000  0.4804610000000  0.4745290000000 1.0
C      1  0.5371740000000  0.5751710000000  0.5097910000000 1.0
C      1  0.4902570000000  0.5703890000000  0.4979110000000 1.0
C      1  0.5167230000000  0.4450040000000  0.4985620000000 1.0
C      1  0.4246420000000  0.5130990000000  0.4972260000000 1.0
C      1  0.4993830000000  0.5496460000000  0.4781270000000 1.0
C      1  0.4650650000000  0.5532900000000  0.5406790000000 1.0
C      1  0.5466450000000  0.5221940000000  0.5635480000000 1.0
C      1  0.5422080000000  0.5134050000000  0.5351540000000 1.0
C      1  0.4362410000000  0.4551770000000  0.4759600000000 1.0
C      1  0.4722080000000  0.5358060000000  0.4621710000000 1.0
C      1  0.5347030000000  0.5814490000000  0.4818320000000 1.0
C      1  0.5720690000000  0.5055660000000  0.4975130000000 1.0
C      1  0.4434420000000  0.5355310000000  0.5383570000000 1.0
C      1  0.4532130000000  0.4492800000000  0.5225240000000 1.0
C      1  0.5142890000000  0.5266980000000  0.4950230000000 1.0
C      1  0.5371500000000  0.5368280000000  0.5160320000000 1.0
C      1  0.5648540000000  0.4501070000000  0.4910070000000 1.0
C      1  0.4287920000000  0.5381420000000  0.5125000000000 1.0
C      1  0.4689070000000  0.5068910000000  0.4708180000000 1.0
C      1  0.5550490000000  0.4959500000000  0.4738770000000 1.0
C      1  0.5439040000000  0.4243230000000  0.5305380000000 1.0
C      1  0.4585840000000  0.4527290000000  0.5500140000000 1.0
C      1  0.5468760000000  0.4482240000000  0.5481030000000 1.0
C      1  0.4268370000000  0.4911360000000  0.5401040000000 1.0
C      1  0.4930670000000  0.5137030000000  0.5739290000000 1.0
C      1  0.5276200000000  0.5291980000000  0.4294260000000 1.0
C      1  0.5030530000000  0.4660570000000  0.5722400000000 1.0
C      1  0.5152230000000  0.4162870000000  0.5360270000000 1.0
C      1  0.5565760000000  0.4660800000000  0.4692730000000 1.0
C      1  0.5442640000000  0.4346970000000  0.5025630000000 1.0
C      1  0.4213230000000  0.4878960000000  0.5128980000000 1.0
C      1  0.5639730000000  0.4963750000000  0.5253800000000 1.0
C      1  0.5388840000000  0.5487960000000  0.4472170000000 1.0
C      1  0.4747650000000  0.5290900000000  0.4329890000000 1.0
C      1  0.4856380000000  0.4398230000000  0.4581360000000 1.0
C      1  0.4399570000000  0.5588410000000  0.4940340000000 1.0
C      1  0.4652370000000  0.4454720000000  0.4792100000000 1.0
C      1  0.4819440000000  0.4779040000000  0.5043340000000 1.0
C      1  0.4325080000000  0.4619580000000  0.5046380000000 1.0
C      1  0.4518360000000  0.5067540000000  0.5396380000000 1.0
C      1  0.5468570000000  0.5088650000000  0.4255340000000 1.0
C      1  0.5409520000000  0.5004260000000  0.5807900000000 1.0
C      1  0.4591670000000  0.5040040000000  0.4339660000000 1.0
C      1  0.5125070000000  0.4416540000000  0.4692400000000 1.0
C      1  0.5194890000000  0.4456730000000  0.5603300000000 1.0
C      1  0.5078910000000  0.5687010000000  0.5213080000000 1.0
C      1  0.5745300000000  0.5352820000000  0.4932730000000 1.0
C      1  0.5303740000000  0.5441090000000  0.5692300000000 1.0
C      1  0.5623250000000  0.5534740000000  0.5126590000000 1.0
C      1  0.4328070000000  0.4995540000000  0.4469760000000 1.0
C      1  0.4266320000000  0.5204690000000  0.4680810000000 1.0
C      1  0.5005870000000  0.5290680000000  0.4227900000000 1.0
C      1  0.5649250000000  0.5398750000000  0.4575390000000 1.0
C      1  0.4277550000000  0.4735750000000  0.4565930000000 1.0
C      1  0.4628050000000  0.5725710000000  0.5032980000000 1.0
C      1  0.4712670000000  0.5039770000000  0.5148710000000 1.0
C      1  0.5211550000000  0.5649120000000  0.4636980000000 1.0
C      1  0.4704350000000  0.4319880000000  0.5063840000000 1.0
C      1  0.5028110000000  0.5405220000000  0.5648960000000 1.0
C      1  0.5142980000000  0.4931730000000  0.5713760000000 1.0
END
