TITL C-951341-1326-191 3.81332243817587e-08 125000 -465.257880191713 0 0 76 (C1) n - 1
REM
REM in /home/bkarasulu/work/CARBON/AIRSS/Generating-Clusters/EDIP-Nigel-Params/with-SteepDescent/Only-C1/SD-CG/HFTN-CG
REM
REM
REM
REM
REM
REM ./C.cell (11c1c37f851c82e70ff6c80c92926a4b)
REM
REM compiler GCC version 9.2.1 20190827 (Red Hat 9.2.1-1)
REM options -cpp -mtune=generic -march=x86-64 -g -O0 -fpre-include=/usr/include/finclude/math-vector-fortran.h
REM seed -1329492398 459798074 29714706 789639255 351021520 -1023910984 87958434 -191406721 1555123393 -915691774 1666421499 583598765 54974619 468800538 768749109 -779209996 544091120 -1960726852 -821578635 973391756 2025639963 1125208208 -1568145915 -1617831224 13029885 1955710480 -1623486255 107098718 143450510 1700002875 -1266791077 -1194126491 1459206672
REM
CELL 1.54180   50.00000   50.00000   50.00000   90.00000   90.00000   90.00000
LATT -1
SFAC C  
C      1  0.4845700000000  0.5011570000000  0.4333470000000 1.0
C      1  0.4933030000000  0.4277410000000  0.4442740000000 1.0
C      1  0.5449260000000  0.4973880000000  0.5135490000000 1.0
C      1  0.4232230000000  0.4766830000000  0.5091040000000 1.0
C      1  0.4594260000000  0.5147330000000  0.4388550000000 1.0
C      1  0.5253840000000  0.5866410000000  0.5026850000000 1.0
C      1  0.4412100000000  0.5100000000000  0.5044850000000 1.0
C      1  0.5043640000000  0.5276650000000  0.5778400000000 1.0
C      1  0.5466350000000  0.4695690000000  0.5628450000000 1.0
C      1  0.4460900000000  0.5072220000000  0.5745980000000 1.0
C      1  0.4854220000000  0.4564160000000  0.5332330000000 1.0
C      1  0.5286720000000  0.4590310000000  0.4643030000000 1.0
C      1  0.4732590000000  0.4341910000000  0.5159640000000 1.0
C      1  0.5029750000000  0.5721570000000  0.4472440000000 1.0
C      1  0.5146290000000  0.5636400000000  0.5435100000000 1.0
C      1  0.5032170000000  0.5230880000000  0.4417060000000 1.0
C      1  0.5821600000000  0.5175990000000  0.4783920000000 1.0
C      1  0.4906280000000  0.4374030000000  0.4707900000000 1.0
C      1  0.5429900000000  0.5476040000000  0.4626160000000 1.0
C      1  0.5319310000000  0.5252290000000  0.4473000000000 1.0
C      1  0.5349690000000  0.4769270000000  0.4432260000000 1.0
C      1  0.4366460000000  0.4971240000000  0.4418040000000 1.0
C      1  0.4913290000000  0.5496870000000  0.5585780000000 1.0
C      1  0.4883870000000  0.4835230000000  0.4889240000000 1.0
C      1  0.5066980000000  0.4521570000000  0.5551560000000 1.0
C      1  0.4546340000000  0.4474570000000  0.4978810000000 1.0
C      1  0.4888400000000  0.5480030000000  0.4455690000000 1.0
C      1  0.5182660000000  0.4928710000000  0.5296090000000 1.0
C      1  0.5274300000000  0.5722220000000  0.4609510000000 1.0
C      1  0.5681540000000  0.5013170000000  0.5560420000000 1.0
C      1  0.4427680000000  0.5493430000000  0.4719870000000 1.0
C      1  0.4963520000000  0.4986580000000  0.5742770000000 1.0
C      1  0.5340520000000  0.5932480000000  0.4781610000000 1.0
C      1  0.4637960000000  0.4741150000000  0.5447950000000 1.0
C      1  0.4902020000000  0.4493840000000  0.4281150000000 1.0
C      1  0.5327250000000  0.5385460000000  0.5436120000000 1.0
C      1  0.4263840000000  0.5244980000000  0.4825940000000 1.0
C      1  0.4917140000000  0.4212570000000  0.4958600000000 1.0
C      1  0.5102550000000  0.5667750000000  0.5146690000000 1.0
C      1  0.5089900000000  0.5368030000000  0.5045370000000 1.0
C      1  0.4593700000000  0.5431680000000  0.4459930000000 1.0
C      1  0.5347270000000  0.4430430000000  0.5473270000000 1.0
C      1  0.4349630000000  0.4555460000000  0.4655130000000 1.0
C      1  0.4292330000000  0.5052560000000  0.5515950000000 1.0
C      1  0.5341760000000  0.5294870000000  0.5728880000000 1.0
C      1  0.5583180000000  0.5401970000000  0.5237940000000 1.0
C      1  0.5765990000000  0.5041510000000  0.4528030000000 1.0
C      1  0.4759670000000  0.4725420000000  0.4348780000000 1.0
C      1  0.5023980000000  0.4725360000000  0.5139560000000 1.0
C      1  0.5293050000000  0.4445460000000  0.5175840000000 1.0
C      1  0.4179920000000  0.5015890000000  0.4646400000000 1.0
C      1  0.4688430000000  0.4924450000000  0.5665810000000 1.0
C      1  0.5314450000000  0.5155720000000  0.4908600000000 1.0
C      1  0.5170160000000  0.4820470000000  0.5584410000000 1.0
C      1  0.5655270000000  0.5120520000000  0.5289850000000 1.0
C      1  0.4472320000000  0.4697150000000  0.4416620000000 1.0
C      1  0.5104580000000  0.5215550000000  0.5300920000000 1.0
C      1  0.5487570000000  0.5019830000000  0.4456800000000 1.0
C      1  0.5846320000000  0.4893440000000  0.4877700000000 1.0
C      1  0.5545030000000  0.4506160000000  0.5020750000000 1.0
C      1  0.5603210000000  0.4783620000000  0.4982050000000 1.0
C      1  0.4631740000000  0.5556950000000  0.4946580000000 1.0
C      1  0.4717480000000  0.4595180000000  0.4764620000000 1.0
C      1  0.4173610000000  0.4750110000000  0.4799000000000 1.0
C      1  0.5467180000000  0.4387960000000  0.4765160000000 1.0
C      1  0.4824860000000  0.5325450000000  0.4925090000000 1.0
C      1  0.5497120000000  0.5057980000000  0.5767830000000 1.0
C      1  0.5141260000000  0.4934650000000  0.4714580000000 1.0
C      1  0.4368650000000  0.5248750000000  0.5306380000000 1.0
C      1  0.4529360000000  0.5588890000000  0.5221090000000 1.0
C      1  0.4705420000000  0.5068650000000  0.4973390000000 1.0
C      1  0.4651360000000  0.5466710000000  0.5450190000000 1.0
C      1  0.5360330000000  0.4131160000000  0.4824550000000 1.0
C      1  0.4361080000000  0.4805490000000  0.5361200000000 1.0
C      1  0.5196600000000  0.4185370000000  0.5052600000000 1.0
C      1  0.5580070000000  0.5348450000000  0.4884630000000 1.0
END
