TITL C-951346-9544-65 -1.26516062552071e-06 125000 -896.044853435248 0 0 144 (C1) n - 1
REM
REM in /home/bkarasulu/work/CARBON/AIRSS/Generating-Clusters/EDIP-Nigel-Params/with-SteepDescent/Only-C1/SD-CG/HFTN-CG
REM
REM
REM
REM
REM
REM ./C.cell (11c1c37f851c82e70ff6c80c92926a4b)
REM
REM compiler GCC version 9.2.1 20190827 (Red Hat 9.2.1-1)
REM options -cpp -mtune=generic -march=x86-64 -g -O0 -fpre-include=/usr/include/finclude/math-vector-fortran.h
REM seed -219250951 1245306910 -861663018 1965974846 -2106628157 -1054679605 660821523 1875380980 1883495711 -2013124591 1809405317 -1600057455 -1075585157 1593455243 -2134231725 698943817 -548127047 -643367390 -709708709 -1582060510 -1621938711 1139212238 -410353671 167594677 472243633 240100252 1460459052 -1533813235 1480825992 1734596588 1844579891 2039989887 1499209786
REM
CELL 1.54180   50.00000   50.00000   50.00000   90.00000   90.00000   90.00000
LATT -1
SFAC C  
C      1  0.4528580000000  0.4945780000000  0.3974940000000 1.0
C      1  0.4594090000000  0.4473290000000  0.5918150000000 1.0
C      1  0.4418710000000  0.5301950000000  0.4301560000000 1.0
C      1  0.4470010000000  0.4291030000000  0.4678220000000 1.0
C      1  0.5203250000000  0.5745840000000  0.5640410000000 1.0
C      1  0.5565650000000  0.4734150000000  0.5830330000000 1.0
C      1  0.5449260000000  0.4913560000000  0.4689810000000 1.0
C      1  0.4361680000000  0.4606020000000  0.4339360000000 1.0
C      1  0.4589480000000  0.4218830000000  0.5524320000000 1.0
C      1  0.5424680000000  0.5574800000000  0.5152960000000 1.0
C      1  0.5483430000000  0.4751330000000  0.5399730000000 1.0
C      1  0.4726310000000  0.5231540000000  0.5845730000000 1.0
C      1  0.5409900000000  0.6035810000000  0.5037820000000 1.0
C      1  0.6079520000000  0.5413940000000  0.5001890000000 1.0
C      1  0.5220450000000  0.4299580000000  0.4318080000000 1.0
C      1  0.4968520000000  0.4840850000000  0.5441940000000 1.0
C      1  0.4756990000000  0.5436880000000  0.5383240000000 1.0
C      1  0.5606050000000  0.4369880000000  0.4964870000000 1.0
C      1  0.4607870000000  0.5648780000000  0.5207360000000 1.0
C      1  0.4971230000000  0.5626510000000  0.4761840000000 1.0
C      1  0.4894840000000  0.4165250000000  0.4786590000000 1.0
C      1  0.5466780000000  0.5847470000000  0.5527010000000 1.0
C      1  0.4426130000000  0.5721970000000  0.4548980000000 1.0
C      1  0.5380680000000  0.5019910000000  0.5460030000000 1.0
C      1  0.4677360000000  0.5168180000000  0.5266030000000 1.0
C      1  0.4300740000000  0.5618280000000  0.4789750000000 1.0
C      1  0.5186860000000  0.4074810000000  0.5182360000000 1.0
C      1  0.5763520000000  0.5317290000000  0.4655700000000 1.0
C      1  0.5236360000000  0.5501180000000  0.4212560000000 1.0
C      1  0.5184280000000  0.5199080000000  0.4708200000000 1.0
C      1  0.5169100000000  0.5062840000000  0.6058660000000 1.0
C      1  0.5568530000000  0.5844200000000  0.5224470000000 1.0
C      1  0.5397260000000  0.4429860000000  0.4525390000000 1.0
C      1  0.5288420000000  0.4540250000000  0.5291010000000 1.0
C      1  0.5651340000000  0.4243810000000  0.5237340000000 1.0
C      1  0.5290120000000  0.4740040000000  0.4135850000000 1.0
C      1  0.5653600000000  0.5627210000000  0.5599320000000 1.0
C      1  0.4713670000000  0.5885750000000  0.5693170000000 1.0
C      1  0.4031180000000  0.5070800000000  0.5070870000000 1.0
C      1  0.4071160000000  0.4911890000000  0.5301690000000 1.0
C      1  0.5804890000000  0.5503680000000  0.5369770000000 1.0
C      1  0.4069130000000  0.4727100000000  0.4740100000000 1.0
C      1  0.5116770000000  0.5545560000000  0.5271620000000 1.0
C      1  0.5868310000000  0.4693880000000  0.4640290000000 1.0
C      1  0.4736710000000  0.4039070000000  0.4563490000000 1.0
C      1  0.4126990000000  0.4626870000000  0.5259760000000 1.0
C      1  0.4772910000000  0.5879240000000  0.5141630000000 1.0
C      1  0.5556190000000  0.5144440000000  0.4161810000000 1.0
C      1  0.4762310000000  0.4694300000000  0.5935110000000 1.0
C      1  0.5764950000000  0.5214540000000  0.5356780000000 1.0
C      1  0.5788930000000  0.4431980000000  0.5434500000000 1.0
C      1  0.5372460000000  0.4253100000000  0.5348550000000 1.0
C      1  0.5127240000000  0.6018090000000  0.5092670000000 1.0
C      1  0.4431260000000  0.5234480000000  0.5111040000000 1.0
C      1  0.4281940000000  0.4285370000000  0.4910350000000 1.0
C      1  0.4029580000000  0.5202580000000  0.4616170000000 1.0
C      1  0.4367750000000  0.5719480000000  0.5379900000000 1.0
C      1  0.5293950000000  0.5195600000000  0.4988120000000 1.0
C      1  0.4478990000000  0.5005210000000  0.4621440000000 1.0
C      1  0.5044230000000  0.4944410000000  0.5170570000000 1.0
C      1  0.4741670000000  0.5411100000000  0.4742620000000 1.0
C      1  0.5045230000000  0.4629700000000  0.5889640000000 1.0
C      1  0.4438060000000  0.4380450000000  0.5706360000000 1.0
C      1  0.5707020000000  0.5553390000000  0.4812500000000 1.0
C      1  0.4162750000000  0.4549670000000  0.4970220000000 1.0
C      1  0.3956560000000  0.4989250000000  0.4810680000000 1.0
C      1  0.4583200000000  0.4736200000000  0.4495220000000 1.0
C      1  0.5659610000000  0.5334790000000  0.4375290000000 1.0
C      1  0.5234720000000  0.4853440000000  0.5867790000000 1.0
C      1  0.5508380000000  0.5416630000000  0.5746040000000 1.0
C      1  0.4878310000000  0.4884320000000  0.4925380000000 1.0
C      1  0.5582710000000  0.4828530000000  0.4193790000000 1.0
C      1  0.4838070000000  0.4705670000000  0.4290320000000 1.0
C      1  0.5468180000000  0.5557600000000  0.4371390000000 1.0
C      1  0.5757470000000  0.4954690000000  0.5743830000000 1.0
C      1  0.5055710000000  0.4653580000000  0.4822480000000 1.0
C      1  0.5562380000000  0.4857300000000  0.4975210000000 1.0
C      1  0.5929250000000  0.4895330000000  0.5503530000000 1.0
C      1  0.4987720000000  0.4894020000000  0.3851440000000 1.0
C      1  0.4121010000000  0.4724010000000  0.4448170000000 1.0
C      1  0.5121800000000  0.4371010000000  0.5784800000000 1.0
C      1  0.4943430000000  0.5540570000000  0.4209250000000 1.0
C      1  0.5614760000000  0.4452520000000  0.5698440000000 1.0
C      1  0.4614740000000  0.4552550000000  0.4732390000000 1.0
C      1  0.4464750000000  0.4163930000000  0.5104780000000 1.0
C      1  0.4687910000000  0.4914140000000  0.5434890000000 1.0
C      1  0.5237120000000  0.4456790000000  0.4080930000000 1.0
C      1  0.4738460000000  0.4100880000000  0.5033850000000 1.0
C      1  0.5429130000000  0.5638460000000  0.4835110000000 1.0
C      1  0.4345530000000  0.4852640000000  0.5701430000000 1.0
C      1  0.4577680000000  0.5198890000000  0.4084880000000 1.0
C      1  0.5183050000000  0.5996870000000  0.4593500000000 1.0
C      1  0.5035260000000  0.5261820000000  0.5886010000000 1.0
C      1  0.4085670000000  0.5451370000000  0.4732600000000 1.0
C      1  0.5588400000000  0.5162850000000  0.5600010000000 1.0
C      1  0.4579790000000  0.5413940000000  0.5638650000000 1.0
C      1  0.4769160000000  0.4803920000000  0.4009470000000 1.0
C      1  0.5108540000000  0.4817780000000  0.4360310000000 1.0
C      1  0.5407350000000  0.5932420000000  0.4759400000000 1.0
C      1  0.5250470000000  0.4705030000000  0.4597500000000 1.0
C      1  0.5371340000000  0.4272520000000  0.5661290000000 1.0
C      1  0.4836690000000  0.5320420000000  0.4052320000000 1.0
C      1  0.4979810000000  0.5906750000000  0.5680660000000 1.0
C      1  0.5015950000000  0.5744640000000  0.5053530000000 1.0
C      1  0.4591810000000  0.5495080000000  0.4477000000000 1.0
C      1  0.4500200000000  0.5711660000000  0.5658290000000 1.0
C      1  0.5146670000000  0.4996910000000  0.5619110000000 1.0
C      1  0.4935580000000  0.5857530000000  0.4584040000000 1.0
C      1  0.4880220000000  0.4452410000000  0.4723010000000 1.0
C      1  0.5224550000000  0.5490220000000  0.4655250000000 1.0
C      1  0.4249650000000  0.5085140000000  0.4445860000000 1.0
C      1  0.5781910000000  0.4714640000000  0.5324160000000 1.0
C      1  0.4680470000000  0.4190540000000  0.4314250000000 1.0
C      1  0.4517220000000  0.5483420000000  0.4952680000000 1.0
C      1  0.5016280000000  0.4545730000000  0.5458070000000 1.0
C      1  0.6020640000000  0.5239250000000  0.4773210000000 1.0
C      1  0.5435290000000  0.4231590000000  0.4761060000000 1.0
C      1  0.5296760000000  0.5256610000000  0.4072680000000 1.0
C      1  0.4887730000000  0.5130550000000  0.4732730000000 1.0
C      1  0.4911220000000  0.4066730000000  0.5256880000000 1.0
C      1  0.4310730000000  0.5306490000000  0.5532380000000 1.0
C      1  0.5677360000000  0.4535500000000  0.4423910000000 1.0
C      1  0.5860420000000  0.5622700000000  0.5083200000000 1.0
C      1  0.4225340000000  0.5034040000000  0.5519500000000 1.0
C      1  0.4582040000000  0.4755810000000  0.4990540000000 1.0
C      1  0.5189320000000  0.4111030000000  0.4885390000000 1.0
C      1  0.4768660000000  0.5738480000000  0.4359080000000 1.0
C      1  0.5391820000000  0.4592600000000  0.5004330000000 1.0
C      1  0.4389260000000  0.4312050000000  0.4377070000000 1.0
C      1  0.4338090000000  0.4602740000000  0.5520700000000 1.0
C      1  0.4395010000000  0.4085460000000  0.5365390000000 1.0
C      1  0.5105750000000  0.5249620000000  0.5199170000000 1.0
C      1  0.5861480000000  0.4782230000000  0.4948940000000 1.0
C      1  0.5226060000000  0.5489580000000  0.5786820000000 1.0
C      1  0.4622520000000  0.4937980000000  0.5817230000000 1.0
C      1  0.5594950000000  0.5230550000000  0.5091120000000 1.0
C      1  0.5684340000000  0.4910140000000  0.4508610000000 1.0
C      1  0.4568650000000  0.4658960000000  0.5303130000000 1.0
C      1  0.6029120000000  0.5029730000000  0.4972750000000 1.0
C      1  0.4911780000000  0.4401020000000  0.4285710000000 1.0
C      1  0.4380890000000  0.4983620000000  0.4916990000000 1.0
C      1  0.4761590000000  0.4409160000000  0.5345390000000 1.0
C      1  0.5047940000000  0.5148330000000  0.3960060000000 1.0
C      1  0.4212770000000  0.5472310000000  0.5325210000000 1.0
END
