TITL C-950533-5798-183 -4.6309703074244e-06 125000 -1062.34573931756 0 0 169 (C1) n - 1
REM
REM in /home/bkarasulu/work/CARBON/AIRSS/Generating-Clusters/EDIP-Nigel-Params/with-SteepDescent/Only-C1/SD-CG/HFTN-CG
REM
REM
REM
REM
REM
REM ./C.cell (11c1c37f851c82e70ff6c80c92926a4b)
REM
REM compiler GCC version 9.2.1 20190827 (Red Hat 9.2.1-1)
REM options -cpp -mtune=generic -march=x86-64 -g -O0 -fpre-include=/usr/include/finclude/math-vector-fortran.h
REM seed 1726360115 271452934 -1819341450 -136858648 1886682975 1837360885 403517966 358351382 2045935753 1800313606 -1992750039 -658721295 -1604255934 -337556274 1552830939 -780882059 1523784819 -412655296 205665741 -758574417 -1579780675 -281614147 1837584836 1556689314 544868284 2089142197 -1357737190 617420010 -2047965724 -372514313 -1752631038 -1911390926 1446762777
REM
CELL 1.54180   50.00000   50.00000   50.00000   90.00000   90.00000   90.00000
LATT -1
SFAC C  
C      1  0.4872480000000  0.5976270000000  0.5387490000000 1.0
C      1  0.5336720000000  0.5357260000000  0.5109710000000 1.0
C      1  0.5153000000000  0.4001970000000  0.4536960000000 1.0
C      1  0.4941520000000  0.4004760000000  0.5296940000000 1.0
C      1  0.5796300000000  0.4800410000000  0.4444380000000 1.0
C      1  0.5318800000000  0.5500660000000  0.5940160000000 1.0
C      1  0.3958270000000  0.5011930000000  0.4615430000000 1.0
C      1  0.5233290000000  0.4654690000000  0.4507590000000 1.0
C      1  0.4669270000000  0.5387920000000  0.4596260000000 1.0
C      1  0.4622800000000  0.5869270000000  0.4504060000000 1.0
C      1  0.5447380000000  0.4084170000000  0.5022890000000 1.0
C      1  0.5246430000000  0.5109060000000  0.5529690000000 1.0
C      1  0.5231090000000  0.4928600000000  0.6049510000000 1.0
C      1  0.5465020000000  0.5743310000000  0.5844740000000 1.0
C      1  0.4596870000000  0.5368920000000  0.5928040000000 1.0
C      1  0.3840460000000  0.4656510000000  0.4989280000000 1.0
C      1  0.4360410000000  0.4772140000000  0.4214590000000 1.0
C      1  0.4705020000000  0.5033970000000  0.5192180000000 1.0
C      1  0.4633720000000  0.4961810000000  0.4702970000000 1.0
C      1  0.4641490000000  0.5608080000000  0.5754470000000 1.0
C      1  0.5587220000000  0.4358770000000  0.5024250000000 1.0
C      1  0.4998000000000  0.5487490000000  0.4551050000000 1.0
C      1  0.5873230000000  0.5805760000000  0.5572490000000 1.0
C      1  0.5106760000000  0.6081930000000  0.4612850000000 1.0
C      1  0.4910980000000  0.4799630000000  0.4114450000000 1.0
C      1  0.4842930000000  0.4458990000000  0.5259070000000 1.0
C      1  0.5504540000000  0.5257710000000  0.4872310000000 1.0
C      1  0.4101290000000  0.4795590000000  0.4326410000000 1.0
C      1  0.4032180000000  0.4585090000000  0.4514810000000 1.0
C      1  0.4082710000000  0.5062200000000  0.5539710000000 1.0
C      1  0.5635410000000  0.4235500000000  0.5467170000000 1.0
C      1  0.4605370000000  0.5886750000000  0.5415280000000 1.0
C      1  0.5014210000000  0.4668850000000  0.5731300000000 1.0
C      1  0.4832280000000  0.5572230000000  0.4152610000000 1.0
C      1  0.5798760000000  0.4365010000000  0.5238840000000 1.0
C      1  0.5246320000000  0.4492070000000  0.4067180000000 1.0
C      1  0.4866270000000  0.5071660000000  0.4555710000000 1.0
C      1  0.5326190000000  0.5918960000000  0.5648190000000 1.0
C      1  0.5048710000000  0.5728220000000  0.4254890000000 1.0
C      1  0.4770260000000  0.4536690000000  0.4117000000000 1.0
C      1  0.4431930000000  0.5444630000000  0.4383660000000 1.0
C      1  0.4479150000000  0.4316200000000  0.5793350000000 1.0
C      1  0.4534500000000  0.5097850000000  0.4944500000000 1.0
C      1  0.5393080000000  0.4598820000000  0.5087290000000 1.0
C      1  0.4756100000000  0.4859500000000  0.5868730000000 1.0
C      1  0.5032270000000  0.5559280000000  0.6011940000000 1.0
C      1  0.4979900000000  0.4348600000000  0.4188270000000 1.0
C      1  0.4551680000000  0.5125390000000  0.5746420000000 1.0
C      1  0.5445280000000  0.4586870000000  0.4272130000000 1.0
C      1  0.5483530000000  0.6042540000000  0.5453390000000 1.0
C      1  0.4129770000000  0.5257720000000  0.5314800000000 1.0
C      1  0.4413250000000  0.4427730000000  0.4954080000000 1.0
C      1  0.4415690000000  0.5960060000000  0.5219990000000 1.0
C      1  0.5689610000000  0.5371180000000  0.5673780000000 1.0
C      1  0.4822890000000  0.4287260000000  0.4699560000000 1.0
C      1  0.5279830000000  0.5638470000000  0.4632020000000 1.0
C      1  0.5321620000000  0.5007030000000  0.3980970000000 1.0
C      1  0.5432340000000  0.4376580000000  0.5629060000000 1.0
C      1  0.4150870000000  0.4569050000000  0.5331870000000 1.0
C      1  0.5885850000000  0.5490240000000  0.5223940000000 1.0
C      1  0.4329500000000  0.4337450000000  0.5521660000000 1.0
C      1  0.4748350000000  0.5041840000000  0.4048790000000 1.0
C      1  0.4856670000000  0.5320170000000  0.6074700000000 1.0
C      1  0.6064420000000  0.4518370000000  0.4656150000000 1.0
C      1  0.4349260000000  0.5262570000000  0.4188190000000 1.0
C      1  0.4698410000000  0.4018670000000  0.5475350000000 1.0
C      1  0.4233930000000  0.5738710000000  0.5152980000000 1.0
C      1  0.3843190000000  0.4889020000000  0.5173930000000 1.0
C      1  0.4631520000000  0.4729610000000  0.5263520000000 1.0
C      1  0.5158050000000  0.4761790000000  0.3948630000000 1.0
C      1  0.4605540000000  0.5231660000000  0.5447860000000 1.0
C      1  0.4876510000000  0.5556530000000  0.5246860000000 1.0
C      1  0.5627790000000  0.5309340000000  0.4087140000000 1.0
C      1  0.4715170000000  0.4067280000000  0.4883590000000 1.0
C      1  0.5218010000000  0.4811790000000  0.5538820000000 1.0
C      1  0.4493350000000  0.4584210000000  0.5937620000000 1.0
C      1  0.5732170000000  0.5648280000000  0.5757100000000 1.0
C      1  0.5185570000000  0.4232240000000  0.5628760000000 1.0
C      1  0.5377490000000  0.5455420000000  0.4062280000000 1.0
C      1  0.5474380000000  0.4548220000000  0.5863140000000 1.0
C      1  0.5094940000000  0.4529050000000  0.5056440000000 1.0
C      1  0.4533740000000  0.4730310000000  0.5522900000000 1.0
C      1  0.4288640000000  0.4940280000000  0.4985350000000 1.0
C      1  0.5610600000000  0.5944770000000  0.5225050000000 1.0
C      1  0.5193310000000  0.3989410000000  0.4861150000000 1.0
C      1  0.5058970000000  0.5186250000000  0.4766560000000 1.0
C      1  0.5352630000000  0.5918130000000  0.4509370000000 1.0
C      1  0.5097450000000  0.4361860000000  0.4800640000000 1.0
C      1  0.5490510000000  0.6033930000000  0.4963350000000 1.0
C      1  0.3966970000000  0.5230800000000  0.4810550000000 1.0
C      1  0.5933360000000  0.4544670000000  0.4380360000000 1.0
C      1  0.4409020000000  0.4275180000000  0.4351950000000 1.0
C      1  0.5744070000000  0.5367220000000  0.4342490000000 1.0
C      1  0.5761500000000  0.5120020000000  0.5011100000000 1.0
C      1  0.4551420000000  0.5389360000000  0.4878090000000 1.0
C      1  0.5541730000000  0.5475820000000  0.4654590000000 1.0
C      1  0.5718080000000  0.4669210000000  0.5469990000000 1.0
C      1  0.5444140000000  0.5245710000000  0.5781890000000 1.0
C      1  0.5463980000000  0.4769970000000  0.5339190000000 1.0
C      1  0.5729340000000  0.4414770000000  0.4760860000000 1.0
C      1  0.4151730000000  0.4282250000000  0.4930220000000 1.0
C      1  0.5463500000000  0.4031080000000  0.5313010000000 1.0
C      1  0.4579600000000  0.5674420000000  0.4279790000000 1.0
C      1  0.5010310000000  0.4843270000000  0.4397480000000 1.0
C      1  0.3977660000000  0.4422670000000  0.5121760000000 1.0
C      1  0.5332550000000  0.5078750000000  0.4719890000000 1.0
C      1  0.4739480000000  0.4196270000000  0.5716340000000 1.0
C      1  0.4937100000000  0.4393210000000  0.5589440000000 1.0
C      1  0.3970260000000  0.4749360000000  0.4743170000000 1.0
C      1  0.4875360000000  0.6021280000000  0.5088620000000 1.0
C      1  0.5790750000000  0.5289610000000  0.5419140000000 1.0
C      1  0.5226580000000  0.5126150000000  0.5227930000000 1.0
C      1  0.4892610000000  0.4137620000000  0.4412840000000 1.0
C      1  0.4735720000000  0.4715890000000  0.4788640000000 1.0
C      1  0.5372120000000  0.4788330000000  0.4743060000000 1.0
C      1  0.4377180000000  0.5429760000000  0.5346820000000 1.0
C      1  0.4092850000000  0.5477490000000  0.4759730000000 1.0
C      1  0.4586470000000  0.4035080000000  0.4423490000000 1.0
C      1  0.6103990000000  0.4804790000000  0.4763180000000 1.0
C      1  0.4900300000000  0.5293130000000  0.4068440000000 1.0
C      1  0.5233010000000  0.5736900000000  0.4908590000000 1.0
C      1  0.5734090000000  0.5669820000000  0.4765860000000 1.0
C      1  0.4854180000000  0.6030390000000  0.4501960000000 1.0
C      1  0.4603550000000  0.4257590000000  0.5112360000000 1.0
C      1  0.5917600000000  0.5269240000000  0.4549250000000 1.0
C      1  0.5179560000000  0.5256070000000  0.4010340000000 1.0
C      1  0.4476780000000  0.5024100000000  0.4135610000000 1.0
C      1  0.5667980000000  0.4716340000000  0.4719450000000 1.0
C      1  0.6015800000000  0.4988150000000  0.4530660000000 1.0
C      1  0.4272740000000  0.5011580000000  0.5768170000000 1.0
C      1  0.4457700000000  0.4132430000000  0.5343770000000 1.0
C      1  0.5304580000000  0.4272220000000  0.4546810000000 1.0
C      1  0.5982260000000  0.5487620000000  0.4741560000000 1.0
C      1  0.6037540000000  0.5378390000000  0.5000610000000 1.0
C      1  0.4834590000000  0.5413320000000  0.5518750000000 1.0
C      1  0.5858040000000  0.4829020000000  0.4950320000000 1.0
C      1  0.4978110000000  0.4764570000000  0.4945570000000 1.0
C      1  0.5320910000000  0.5709530000000  0.4185470000000 1.0
C      1  0.5604130000000  0.5043110000000  0.3978020000000 1.0
C      1  0.5502920000000  0.5010500000000  0.5956350000000 1.0
C      1  0.5599610000000  0.4247890000000  0.4558350000000 1.0
C      1  0.4235640000000  0.5700930000000  0.4858680000000 1.0
C      1  0.4362360000000  0.4677320000000  0.5118700000000 1.0
C      1  0.5616790000000  0.5943630000000  0.4702710000000 1.0
C      1  0.4523560000000  0.4532290000000  0.4259330000000 1.0
C      1  0.4991800000000  0.5044300000000  0.5051390000000 1.0
C      1  0.4588940000000  0.5573450000000  0.5122150000000 1.0
C      1  0.5102950000000  0.5517120000000  0.5055910000000 1.0
C      1  0.4348180000000  0.4731240000000  0.5730510000000 1.0
C      1  0.4048620000000  0.5093360000000  0.5068580000000 1.0
C      1  0.5195380000000  0.4017070000000  0.5439690000000 1.0
C      1  0.5017810000000  0.5212460000000  0.5654560000000 1.0
C      1  0.4497330000000  0.5817670000000  0.4767040000000 1.0
C      1  0.4574630000000  0.4483970000000  0.4688630000000 1.0
C      1  0.5660200000000  0.5061370000000  0.5288780000000 1.0
C      1  0.5858860000000  0.5787130000000  0.5291750000000 1.0
C      1  0.4977990000000  0.5086620000000  0.5926930000000 1.0
C      1  0.4941940000000  0.3922760000000  0.5014750000000 1.0
C      1  0.5207040000000  0.4639610000000  0.5968130000000 1.0
C      1  0.5906790000000  0.4659850000000  0.5220940000000 1.0
C      1  0.5044300000000  0.5868420000000  0.5603380000000 1.0
C      1  0.5678840000000  0.4391120000000  0.4316990000000 1.0
C      1  0.5128290000000  0.6031540000000  0.4910320000000 1.0
C      1  0.4594670000000  0.5992380000000  0.4985530000000 1.0
C      1  0.5643630000000  0.4781780000000  0.5831090000000 1.0
C      1  0.4539540000000  0.3927310000000  0.4687880000000 1.0
C      1  0.4894650000000  0.5736260000000  0.5816440000000 1.0
C      1  0.4216860000000  0.4358790000000  0.4564080000000 1.0
C      1  0.3963860000000  0.4805310000000  0.5432760000000 1.0
END
