TITL C-950529-3362-364 -5.98068258490761e-07 125000 -461.896948475425 0 0 76 (C1) n - 1
REM
REM in /home/bkarasulu/work/CARBON/AIRSS/Generating-Clusters/EDIP-Nigel-Params/with-SteepDescent/Only-C1/SD-CG/HFTN-CG
REM
REM
REM
REM
REM
REM ./C.cell (11c1c37f851c82e70ff6c80c92926a4b)
REM
REM compiler GCC version 9.2.1 20190827 (Red Hat 9.2.1-1)
REM options -cpp -mtune=generic -march=x86-64 -g -O0 -fpre-include=/usr/include/finclude/math-vector-fortran.h
REM seed 508451416 -2010373189 2047586715 1263125797 -1550712737 -1383114109 1958209460 982747560 1413845778 -133396793 1160898548 -1497062056 288963441 588955968 563072893 -844774195 1229580674 -941408500 1924950356 568590324 -1101402586 287461093 -947386403 -848886401 1627217363 -2001393900 594166933 -356097389 -2043167115 -1555943956 530622469 843624928 -2099359533
REM
CELL 1.54180   50.00000   50.00000   50.00000   90.00000   90.00000   90.00000
LATT -1
SFAC C  
C      1  0.5408730000000  0.5043980000000  0.4736830000000 1.0
C      1  0.5053300000000  0.4715370000000  0.4713100000000 1.0
C      1  0.4623830000000  0.5367700000000  0.5658020000000 1.0
C      1  0.5030540000000  0.4902010000000  0.4484030000000 1.0
C      1  0.5465940000000  0.5162680000000  0.5554890000000 1.0
C      1  0.4271470000000  0.4725730000000  0.4747650000000 1.0
C      1  0.5671000000000  0.5350290000000  0.4888640000000 1.0
C      1  0.5429730000000  0.4598500000000  0.4999020000000 1.0
C      1  0.5090740000000  0.5661320000000  0.4701370000000 1.0
C      1  0.5280800000000  0.4357690000000  0.5460650000000 1.0
C      1  0.5086380000000  0.5395020000000  0.5189870000000 1.0
C      1  0.4940610000000  0.4616510000000  0.5149240000000 1.0
C      1  0.4237130000000  0.4643190000000  0.5032400000000 1.0
C      1  0.4987770000000  0.4766720000000  0.5552570000000 1.0
C      1  0.5014780000000  0.5065910000000  0.5785500000000 1.0
C      1  0.5236110000000  0.4834760000000  0.4279420000000 1.0
C      1  0.5358600000000  0.5696000000000  0.5110490000000 1.0
C      1  0.5568310000000  0.5504110000000  0.5129090000000 1.0
C      1  0.4534680000000  0.4519090000000  0.5436240000000 1.0
C      1  0.5601800000000  0.5373850000000  0.5389890000000 1.0
C      1  0.4176010000000  0.5111010000000  0.5023800000000 1.0
C      1  0.5078730000000  0.5451950000000  0.5492020000000 1.0
C      1  0.4691870000000  0.4781790000000  0.5092290000000 1.0
C      1  0.5112100000000  0.4264880000000  0.4844780000000 1.0
C      1  0.4764750000000  0.5747630000000  0.5364190000000 1.0
C      1  0.4800990000000  0.5309010000000  0.5060320000000 1.0
C      1  0.5625240000000  0.4680980000000  0.5222090000000 1.0
C      1  0.4658490000000  0.5345990000000  0.4603310000000 1.0
C      1  0.5166180000000  0.5327430000000  0.4382570000000 1.0
C      1  0.4665460000000  0.5200380000000  0.4328730000000 1.0
C      1  0.4466870000000  0.5490110000000  0.4975750000000 1.0
C      1  0.4722430000000  0.5122790000000  0.5789720000000 1.0
C      1  0.4302180000000  0.4935950000000  0.5453530000000 1.0
C      1  0.5360670000000  0.4211600000000  0.5247320000000 1.0
C      1  0.5783490000000  0.5045600000000  0.4869010000000 1.0
C      1  0.4801180000000  0.5637940000000  0.4608620000000 1.0
C      1  0.5178360000000  0.5026380000000  0.5113390000000 1.0
C      1  0.4884440000000  0.5419350000000  0.4294170000000 1.0
C      1  0.4700150000000  0.4662220000000  0.5617830000000 1.0
C      1  0.4906870000000  0.4328130000000  0.5070640000000 1.0
C      1  0.5774020000000  0.4743490000000  0.4622250000000 1.0
C      1  0.4821750000000  0.5568870000000  0.5574550000000 1.0
C      1  0.5334460000000  0.4561960000000  0.4371210000000 1.0
C      1  0.5578280000000  0.5153700000000  0.4491700000000 1.0
C      1  0.4745870000000  0.4448950000000  0.4541990000000 1.0
C      1  0.5109750000000  0.5148340000000  0.4630800000000 1.0
C      1  0.5120100000000  0.5762380000000  0.4970980000000 1.0
C      1  0.5801820000000  0.4892340000000  0.5120770000000 1.0
C      1  0.4323030000000  0.5325480000000  0.5166370000000 1.0
C      1  0.4302500000000  0.5008190000000  0.4782640000000 1.0
C      1  0.4150160000000  0.4876860000000  0.5204210000000 1.0
C      1  0.4665980000000  0.4903910000000  0.4810160000000 1.0
C      1  0.5496380000000  0.4746710000000  0.4729340000000 1.0
C      1  0.4606320000000  0.4282700000000  0.4717460000000 1.0
C      1  0.5146900000000  0.4744030000000  0.5001550000000 1.0
C      1  0.4497240000000  0.4546480000000  0.5147740000000 1.0
C      1  0.4469630000000  0.5173280000000  0.5385770000000 1.0
C      1  0.4600240000000  0.4721830000000  0.4547370000000 1.0
C      1  0.5577600000000  0.5433110000000  0.4612090000000 1.0
C      1  0.5472480000000  0.5080290000000  0.5171110000000 1.0
C      1  0.5375600000000  0.4302800000000  0.4981780000000 1.0
C      1  0.4820350000000  0.5177710000000  0.4786540000000 1.0
C      1  0.5300990000000  0.5540100000000  0.4536240000000 1.0
C      1  0.4990280000000  0.5038130000000  0.5369540000000 1.0
C      1  0.4559440000000  0.4887550000000  0.5729700000000 1.0
C      1  0.5060110000000  0.4450670000000  0.4596890000000 1.0
C      1  0.4619550000000  0.4306560000000  0.4996150000000 1.0
C      1  0.5629340000000  0.4570790000000  0.4418160000000 1.0
C      1  0.5385270000000  0.5109490000000  0.4258640000000 1.0
C      1  0.4717650000000  0.5067200000000  0.5240870000000 1.0
C      1  0.4754110000000  0.4915660000000  0.4363930000000 1.0
C      1  0.5258630000000  0.4621410000000  0.5551480000000 1.0
C      1  0.4848510000000  0.5749580000000  0.5093180000000 1.0
C      1  0.5208630000000  0.5260160000000  0.5676350000000 1.0
C      1  0.4656790000000  0.5686990000000  0.4885670000000 1.0
C      1  0.5481530000000  0.4790770000000  0.5461850000000 1.0
END
