TITL C-951347-9520-209 -2.66124331413348e-06 125000 -1047.07361277661 0 0 169 (C1) n - 1
REM
REM in /home/bkarasulu/work/CARBON/AIRSS/Generating-Clusters/EDIP-Nigel-Params/with-SteepDescent/Only-C1/SD-CG/HFTN-CG
REM
REM
REM
REM
REM
REM ./C.cell (11c1c37f851c82e70ff6c80c92926a4b)
REM
REM compiler GCC version 9.2.1 20190827 (Red Hat 9.2.1-1)
REM options -cpp -mtune=generic -march=x86-64 -g -O0 -fpre-include=/usr/include/finclude/math-vector-fortran.h
REM seed 1020685978 2016877271 -108267961 951597544 -320014415 1157065573 -79697412 -958794865 -605644680 103074706 574200089 -469805327 -1974206490 -483087956 -123414467 719463648 -419484754 1112542448 -2114590095 1737277514 -164511227 250124912 105895333 1659582717 -890099192 -1332286579 -10951971 -1852475218 -592790916 -656404803 1854675326 -628600858 259796923
REM
CELL 1.54180   50.00000   50.00000   50.00000   90.00000   90.00000   90.00000
LATT -1
SFAC C  
C      1  0.4146780000000  0.5442720000000  0.4820260000000 1.0
C      1  0.5773270000000  0.4579720000000  0.4389070000000 1.0
C      1  0.4685840000000  0.5607470000000  0.4620210000000 1.0
C      1  0.4025560000000  0.4754050000000  0.4727150000000 1.0
C      1  0.4989440000000  0.4927480000000  0.6047970000000 1.0
C      1  0.4271510000000  0.4532290000000  0.4219480000000 1.0
C      1  0.4293400000000  0.4306450000000  0.4593770000000 1.0
C      1  0.5060020000000  0.4415570000000  0.5627860000000 1.0
C      1  0.4750670000000  0.4103890000000  0.4592210000000 1.0
C      1  0.6030840000000  0.5187070000000  0.5623980000000 1.0
C      1  0.4439350000000  0.5508550000000  0.4054140000000 1.0
C      1  0.5226170000000  0.4002870000000  0.4634180000000 1.0
C      1  0.5494580000000  0.4434830000000  0.4488750000000 1.0
C      1  0.5047720000000  0.4431900000000  0.4583570000000 1.0
C      1  0.4734570000000  0.4590090000000  0.5930130000000 1.0
C      1  0.4212240000000  0.4963520000000  0.5668440000000 1.0
C      1  0.5099150000000  0.6143790000000  0.5015760000000 1.0
C      1  0.4798270000000  0.5024900000000  0.5207700000000 1.0
C      1  0.5307200000000  0.5953400000000  0.4565080000000 1.0
C      1  0.4475620000000  0.4769630000000  0.4853590000000 1.0
C      1  0.4320960000000  0.4831570000000  0.5914410000000 1.0
C      1  0.4579570000000  0.4895400000000  0.4368990000000 1.0
C      1  0.5712950000000  0.5662240000000  0.4682320000000 1.0
C      1  0.5071960000000  0.5293120000000  0.5712350000000 1.0
C      1  0.4726620000000  0.5176060000000  0.4879200000000 1.0
C      1  0.4258560000000  0.4786320000000  0.4090790000000 1.0
C      1  0.5504670000000  0.6027610000000  0.5301370000000 1.0
C      1  0.4162910000000  0.5618930000000  0.5290870000000 1.0
C      1  0.4586330000000  0.5343170000000  0.5586430000000 1.0
C      1  0.5629460000000  0.4600190000000  0.5763630000000 1.0
C      1  0.5595970000000  0.4206550000000  0.4782390000000 1.0
C      1  0.5138970000000  0.5138170000000  0.3861590000000 1.0
C      1  0.5142700000000  0.4713070000000  0.5612890000000 1.0
C      1  0.4693420000000  0.5281400000000  0.5306450000000 1.0
C      1  0.4960180000000  0.4712910000000  0.4645650000000 1.0
C      1  0.4979210000000  0.5630980000000  0.4698090000000 1.0
C      1  0.5074650000000  0.4117330000000  0.4218860000000 1.0
C      1  0.4246770000000  0.4275850000000  0.5442650000000 1.0
C      1  0.4543720000000  0.5337800000000  0.4670010000000 1.0
C      1  0.4767770000000  0.4737140000000  0.4871540000000 1.0
C      1  0.5160860000000  0.4382800000000  0.4305530000000 1.0
C      1  0.4845810000000  0.5967190000000  0.4982510000000 1.0
C      1  0.5671220000000  0.4780380000000  0.4790520000000 1.0
C      1  0.5829050000000  0.4487770000000  0.5131480000000 1.0
C      1  0.5692490000000  0.4977380000000  0.5447840000000 1.0
C      1  0.5201770000000  0.6097740000000  0.5300640000000 1.0
C      1  0.3920680000000  0.4872430000000  0.4965390000000 1.0
C      1  0.4650270000000  0.5325680000000  0.4150700000000 1.0
C      1  0.5124040000000  0.5281280000000  0.5409260000000 1.0
C      1  0.4446210000000  0.4563890000000  0.5887030000000 1.0
C      1  0.4167360000000  0.5010760000000  0.4255620000000 1.0
C      1  0.5591830000000  0.5839320000000  0.5520600000000 1.0
C      1  0.5165990000000  0.4252350000000  0.5339180000000 1.0
C      1  0.5212840000000  0.4776110000000  0.5324110000000 1.0
C      1  0.4619750000000  0.5677980000000  0.5479530000000 1.0
C      1  0.5340110000000  0.6044880000000  0.4853120000000 1.0
C      1  0.5549770000000  0.5242180000000  0.5522570000000 1.0
C      1  0.4711080000000  0.4369160000000  0.5543130000000 1.0
C      1  0.5317140000000  0.5153190000000  0.4418200000000 1.0
C      1  0.5746560000000  0.5744140000000  0.4957860000000 1.0
C      1  0.5975590000000  0.5029990000000  0.5307260000000 1.0
C      1  0.5475810000000  0.5185840000000  0.4891200000000 1.0
C      1  0.6122840000000  0.4754170000000  0.4869080000000 1.0
C      1  0.5470500000000  0.4031860000000  0.5006590000000 1.0
C      1  0.4241510000000  0.4841190000000  0.5300490000000 1.0
C      1  0.5014520000000  0.5173160000000  0.4455260000000 1.0
C      1  0.4076970000000  0.4981640000000  0.4539440000000 1.0
C      1  0.5130570000000  0.4469610000000  0.5105040000000 1.0
C      1  0.4877620000000  0.4834000000000  0.5686080000000 1.0
C      1  0.5642390000000  0.5042310000000  0.5932910000000 1.0
C      1  0.5269260000000  0.5496120000000  0.4599710000000 1.0
C      1  0.5439200000000  0.4812710000000  0.5849080000000 1.0
C      1  0.4132240000000  0.5021870000000  0.5088740000000 1.0
C      1  0.5095670000000  0.5845110000000  0.5404150000000 1.0
C      1  0.4668490000000  0.4583980000000  0.5301180000000 1.0
C      1  0.4301220000000  0.5252390000000  0.5640220000000 1.0
C      1  0.4736920000000  0.4594900000000  0.4092230000000 1.0
C      1  0.5158730000000  0.4471270000000  0.6082720000000 1.0
C      1  0.5821290000000  0.5646500000000  0.5441320000000 1.0
C      1  0.5843310000000  0.4353550000000  0.4858250000000 1.0
C      1  0.5984150000000  0.5177130000000  0.4852070000000 1.0
C      1  0.4468410000000  0.4139320000000  0.5000860000000 1.0
C      1  0.4544480000000  0.4269050000000  0.4468890000000 1.0
C      1  0.5486410000000  0.5865650000000  0.5047130000000 1.0
C      1  0.4195040000000  0.5526550000000  0.4184330000000 1.0
C      1  0.5620290000000  0.4681860000000  0.5066960000000 1.0
C      1  0.4397700000000  0.4633600000000  0.5136530000000 1.0
C      1  0.4894190000000  0.4890040000000  0.4381430000000 1.0
C      1  0.4038500000000  0.4445510000000  0.5301220000000 1.0
C      1  0.4992820000000  0.5192690000000  0.4755960000000 1.0
C      1  0.5556070000000  0.5293200000000  0.5814900000000 1.0
C      1  0.4041720000000  0.5238450000000  0.4651400000000 1.0
C      1  0.4950810000000  0.4391170000000  0.5912630000000 1.0
C      1  0.4024230000000  0.4706300000000  0.5444930000000 1.0
C      1  0.5826560000000  0.5544860000000  0.5164590000000 1.0
C      1  0.4699990000000  0.4022740000000  0.4865090000000 1.0
C      1  0.4410760000000  0.5591110000000  0.4987830000000 1.0
C      1  0.4962520000000  0.5681870000000  0.5010480000000 1.0
C      1  0.4697140000000  0.4096250000000  0.5431530000000 1.0
C      1  0.5770820000000  0.5114930000000  0.4442860000000 1.0
C      1  0.3922660000000  0.5215460000000  0.5151150000000 1.0
C      1  0.4419250000000  0.5877000000000  0.4915050000000 1.0
C      1  0.5233510000000  0.4347910000000  0.4813330000000 1.0
C      1  0.5293840000000  0.5368580000000  0.5916660000000 1.0
C      1  0.4506130000000  0.6010790000000  0.5150050000000 1.0
C      1  0.4149660000000  0.5263190000000  0.4108870000000 1.0
C      1  0.4848510000000  0.4551960000000  0.5075190000000 1.0
C      1  0.6049180000000  0.4736280000000  0.5159630000000 1.0
C      1  0.5301290000000  0.5611750000000  0.5085510000000 1.0
C      1  0.5205930000000  0.5382220000000  0.4015260000000 1.0
C      1  0.5404490000000  0.4871490000000  0.4401900000000 1.0
C      1  0.5227730000000  0.4686480000000  0.3932780000000 1.0
C      1  0.5454460000000  0.5271410000000  0.4169300000000 1.0
C      1  0.5686830000000  0.4317600000000  0.5361440000000 1.0
C      1  0.4598600000000  0.5877580000000  0.4701050000000 1.0
C      1  0.5867790000000  0.4742070000000  0.5690510000000 1.0
C      1  0.5201180000000  0.4785870000000  0.4801510000000 1.0
C      1  0.4356780000000  0.5056780000000  0.4871680000000 1.0
C      1  0.4786160000000  0.5320990000000  0.5824190000000 1.0
C      1  0.4424730000000  0.4423480000000  0.5634840000000 1.0
C      1  0.4436880000000  0.4095280000000  0.5283790000000 1.0
C      1  0.5722860000000  0.5078040000000  0.4743890000000 1.0
C      1  0.4143140000000  0.5435620000000  0.5508850000000 1.0
C      1  0.5039010000000  0.4577160000000  0.4113530000000 1.0
C      1  0.4764400000000  0.5567390000000  0.5973700000000 1.0
C      1  0.5213050000000  0.3919650000000  0.4901520000000 1.0
C      1  0.4943100000000  0.4995590000000  0.4013240000000 1.0
C      1  0.4680420000000  0.5093180000000  0.3960750000000 1.0
C      1  0.4717970000000  0.4842810000000  0.5428290000000 1.0
C      1  0.4697090000000  0.5526060000000  0.5132180000000 1.0
C      1  0.6203180000000  0.5010560000000  0.4799010000000 1.0
C      1  0.4856510000000  0.5836260000000  0.5578750000000 1.0
C      1  0.5922950000000  0.5452770000000  0.5627330000000 1.0
C      1  0.4942040000000  0.5737220000000  0.5841650000000 1.0
C      1  0.4984690000000  0.5740060000000  0.4258580000000 1.0
C      1  0.5426240000000  0.4708730000000  0.4638350000000 1.0
C      1  0.4545210000000  0.4819590000000  0.3991370000000 1.0
C      1  0.5511350000000  0.4759690000000  0.5326100000000 1.0
C      1  0.4752400000000  0.5093530000000  0.6012800000000 1.0
C      1  0.5349890000000  0.4929110000000  0.3848290000000 1.0
C      1  0.5478760000000  0.5711060000000  0.4498380000000 1.0
C      1  0.5202590000000  0.5057930000000  0.4918020000000 1.0
C      1  0.5901730000000  0.4604500000000  0.4688480000000 1.0
C      1  0.4538680000000  0.4419760000000  0.4224630000000 1.0
C      1  0.5968290000000  0.5280780000000  0.5120650000000 1.0
C      1  0.5358160000000  0.5442400000000  0.5367360000000 1.0
C      1  0.5920930000000  0.4989070000000  0.5824380000000 1.0
C      1  0.5429120000000  0.5461190000000  0.4852870000000 1.0
C      1  0.5695980000000  0.5367450000000  0.4319420000000 1.0
C      1  0.5220820000000  0.4745300000000  0.6048750000000 1.0
C      1  0.4964420000000  0.5457110000000  0.4195130000000 1.0
C      1  0.4240350000000  0.4250250000000  0.4863310000000 1.0
C      1  0.5571750000000  0.5027520000000  0.4017760000000 1.0
C      1  0.5098500000000  0.5041290000000  0.5219540000000 1.0
C      1  0.4496540000000  0.4993620000000  0.6060050000000 1.0
C      1  0.4542510000000  0.5195200000000  0.4401740000000 1.0
C      1  0.5322030000000  0.5694900000000  0.5537070000000 1.0
C      1  0.4942910000000  0.3957800000000  0.5022650000000 1.0
C      1  0.3997390000000  0.5478960000000  0.5068180000000 1.0
C      1  0.4082550000000  0.4467730000000  0.4990720000000 1.0
C      1  0.5029120000000  0.5866400000000  0.4509490000000 1.0
C      1  0.5222080000000  0.5641330000000  0.5817510000000 1.0
C      1  0.5526970000000  0.4515760000000  0.5506460000000 1.0
C      1  0.5672550000000  0.4870760000000  0.4280650000000 1.0
C      1  0.4997740000000  0.4006360000000  0.4465360000000 1.0
C      1  0.4396310000000  0.5832900000000  0.5356570000000 1.0
C      1  0.4396620000000  0.4677520000000  0.4555700000000 1.0
C      1  0.4956280000000  0.4033280000000  0.5300610000000 1.0
C      1  0.5455610000000  0.4137650000000  0.5285470000000 1.0
END
