TITL C-950529-3362-87 -3.01191886490942e-06 125000 -1252.46532762709 0 0 200 (C1) n - 1
REM
REM in /home/bkarasulu/work/CARBON/AIRSS/Generating-Clusters/EDIP-Nigel-Params/with-SteepDescent/Only-C1/SD-CG/HFTN-CG
REM
REM
REM
REM
REM
REM ./C.cell (11c1c37f851c82e70ff6c80c92926a4b)
REM
REM compiler GCC version 9.2.1 20190827 (Red Hat 9.2.1-1)
REM options -cpp -mtune=generic -march=x86-64 -g -O0 -fpre-include=/usr/include/finclude/math-vector-fortran.h
REM seed 1359123059 -339536227 -1438560597 1999834674 579928518 1535429259 924324332 1144175915 810789235 -575728235 -2088099785 1134993897 -328792875 -224719378 1872434937 305403380 -924621024 54564790 1827819417 1520796456 514046371 -1817906147 -1032056759 -1827849589 928572698 1605886812 -1843524546 1153002790 72380480 -683539321 -1012773533 1643981134 1457616971
REM
CELL 1.54180   50.00000   50.00000   50.00000   90.00000   90.00000   90.00000
LATT -1
SFAC C  
C      1  0.4093650000000  0.4339300000000  0.4800660000000 1.0
C      1  0.4587150000000  0.5448020000000  0.4383350000000 1.0
C      1  0.4302320000000  0.4783530000000  0.4099290000000 1.0
C      1  0.5126780000000  0.5626440000000  0.4896190000000 1.0
C      1  0.4091340000000  0.4618960000000  0.4767020000000 1.0
C      1  0.5325420000000  0.3991740000000  0.5467510000000 1.0
C      1  0.3862150000000  0.4805890000000  0.4800930000000 1.0
C      1  0.5712020000000  0.5557580000000  0.4368000000000 1.0
C      1  0.5690160000000  0.5478310000000  0.4826490000000 1.0
C      1  0.4999780000000  0.5655450000000  0.5982760000000 1.0
C      1  0.4199530000000  0.4627600000000  0.5194530000000 1.0
C      1  0.4043970000000  0.4766770000000  0.5412350000000 1.0
C      1  0.5479100000000  0.4898910000000  0.5448090000000 1.0
C      1  0.5546320000000  0.4670440000000  0.3840310000000 1.0
C      1  0.5648580000000  0.4158410000000  0.4550370000000 1.0
C      1  0.4947020000000  0.5373740000000  0.6056840000000 1.0
C      1  0.5584120000000  0.4077500000000  0.5345220000000 1.0
C      1  0.6011730000000  0.4826750000000  0.5466630000000 1.0
C      1  0.4781550000000  0.4552880000000  0.6089720000000 1.0
C      1  0.4860020000000  0.5626220000000  0.5021050000000 1.0
C      1  0.4861790000000  0.4831360000000  0.6063630000000 1.0
C      1  0.4558160000000  0.4916730000000  0.4855530000000 1.0
C      1  0.4886690000000  0.5503390000000  0.4212690000000 1.0
C      1  0.6029830000000  0.4760090000000  0.5183560000000 1.0
C      1  0.5647290000000  0.6017160000000  0.4962560000000 1.0
C      1  0.4982810000000  0.4571510000000  0.4991530000000 1.0
C      1  0.4811360000000  0.4352200000000  0.5394480000000 1.0
C      1  0.4977140000000  0.4460530000000  0.4706460000000 1.0
C      1  0.4797230000000  0.5969260000000  0.4692440000000 1.0
C      1  0.5347110000000  0.4530420000000  0.4379020000000 1.0
C      1  0.5587440000000  0.5137560000000  0.3991530000000 1.0
C      1  0.5135630000000  0.3901980000000  0.5266620000000 1.0
C      1  0.6139550000000  0.5463830000000  0.4961340000000 1.0
C      1  0.5784610000000  0.5019740000000  0.5488920000000 1.0
C      1  0.5463440000000  0.4683510000000  0.5230560000000 1.0
C      1  0.4921700000000  0.5024850000000  0.4421170000000 1.0
C      1  0.5162010000000  0.5058220000000  0.4250270000000 1.0
C      1  0.4675340000000  0.4194010000000  0.4118810000000 1.0
C      1  0.4949500000000  0.5787870000000  0.4253230000000 1.0
C      1  0.3675740000000  0.5222260000000  0.4965900000000 1.0
C      1  0.4212120000000  0.4559140000000  0.4286290000000 1.0
C      1  0.4245260000000  0.6014920000000  0.5112560000000 1.0
C      1  0.5454570000000  0.5557220000000  0.5898190000000 1.0
C      1  0.5585260000000  0.4838390000000  0.4835220000000 1.0
C      1  0.5937150000000  0.5660280000000  0.4815930000000 1.0
C      1  0.4993320000000  0.4139870000000  0.5826330000000 1.0
C      1  0.5202980000000  0.4695020000000  0.4002280000000 1.0
C      1  0.5309540000000  0.5678640000000  0.5132300000000 1.0
C      1  0.3815190000000  0.5204880000000  0.5435620000000 1.0
C      1  0.5563700000000  0.5521070000000  0.5094180000000 1.0
C      1  0.5810770000000  0.4409230000000  0.5033470000000 1.0
C      1  0.4009740000000  0.5126300000000  0.5761300000000 1.0
C      1  0.4688140000000  0.3951160000000  0.5056570000000 1.0
C      1  0.4833210000000  0.4370480000000  0.3952630000000 1.0
C      1  0.5323690000000  0.5144400000000  0.4994570000000 1.0
C      1  0.4460890000000  0.4937350000000  0.5706910000000 1.0
C      1  0.5851920000000  0.4368000000000  0.4518420000000 1.0
C      1  0.5430150000000  0.6046540000000  0.5174220000000 1.0
C      1  0.4531130000000  0.5389890000000  0.5265960000000 1.0
C      1  0.5510090000000  0.4057290000000  0.5027880000000 1.0
C      1  0.4549060000000  0.5527140000000  0.5860710000000 1.0
C      1  0.4591790000000  0.4756230000000  0.4181100000000 1.0
C      1  0.4523050000000  0.6027710000000  0.5069420000000 1.0
C      1  0.5355250000000  0.4233600000000  0.4456760000000 1.0
C      1  0.5899220000000  0.4652170000000  0.4477440000000 1.0
C      1  0.5387720000000  0.5348640000000  0.6070560000000 1.0
C      1  0.5176790000000  0.5333500000000  0.5458510000000 1.0
C      1  0.5227540000000  0.5719980000000  0.5795730000000 1.0
C      1  0.3767640000000  0.5259550000000  0.4686940000000 1.0
C      1  0.5721440000000  0.4547230000000  0.5286660000000 1.0
C      1  0.5394070000000  0.4607490000000  0.5854370000000 1.0
C      1  0.5267920000000  0.4826840000000  0.5677830000000 1.0
C      1  0.4122620000000  0.4357990000000  0.5240550000000 1.0
C      1  0.4140030000000  0.5007050000000  0.4480390000000 1.0
C      1  0.5802630000000  0.5793810000000  0.4537940000000 1.0
C      1  0.4537330000000  0.4660310000000  0.5604400000000 1.0
C      1  0.4509250000000  0.5365540000000  0.4677140000000 1.0
C      1  0.5285550000000  0.5869000000000  0.4629200000000 1.0
C      1  0.4624520000000  0.4953820000000  0.5291190000000 1.0
C      1  0.5998220000000  0.5409340000000  0.5223770000000 1.0
C      1  0.5575240000000  0.5947640000000  0.4679510000000 1.0
C      1  0.4810290000000  0.4549770000000  0.5604340000000 1.0
C      1  0.6218290000000  0.5235440000000  0.4821680000000 1.0
C      1  0.5219930000000  0.4880940000000  0.4712090000000 1.0
C      1  0.5119890000000  0.3938260000000  0.4778290000000 1.0
C      1  0.5262630000000  0.5422230000000  0.3782380000000 1.0
C      1  0.5503590000000  0.5626950000000  0.4171520000000 1.0
C      1  0.4343700000000  0.4215410000000  0.4819170000000 1.0
C      1  0.5051190000000  0.5164140000000  0.5847740000000 1.0
C      1  0.6091780000000  0.4806320000000  0.4608340000000 1.0
C      1  0.5171230000000  0.5344460000000  0.4778000000000 1.0
C      1  0.5685510000000  0.5721310000000  0.5512520000000 1.0
C      1  0.5194010000000  0.4226070000000  0.4709210000000 1.0
C      1  0.4557630000000  0.4749080000000  0.4579740000000 1.0
C      1  0.5251020000000  0.4499160000000  0.5123000000000 1.0
C      1  0.5798800000000  0.5642240000000  0.5249610000000 1.0
C      1  0.4656490000000  0.5817310000000  0.4903330000000 1.0
C      1  0.4206690000000  0.5780570000000  0.5260850000000 1.0
C      1  0.5594040000000  0.5032040000000  0.4556340000000 1.0
C      1  0.4502950000000  0.4198470000000  0.5083750000000 1.0
C      1  0.4772940000000  0.5349250000000  0.5092510000000 1.0
C      1  0.4871870000000  0.5084150000000  0.3925760000000 1.0
C      1  0.6084760000000  0.4365640000000  0.4992310000000 1.0
C      1  0.5273630000000  0.3870180000000  0.5016710000000 1.0
C      1  0.5415350000000  0.4902880000000  0.4323830000000 1.0
C      1  0.4719560000000  0.5890350000000  0.4417270000000 1.0
C      1  0.4683370000000  0.4485490000000  0.4626300000000 1.0
C      1  0.4226850000000  0.5062940000000  0.4198760000000 1.0
C      1  0.4328380000000  0.4258080000000  0.5397380000000 1.0
C      1  0.4240490000000  0.5727680000000  0.4610930000000 1.0
C      1  0.4252050000000  0.4724700000000  0.4537580000000 1.0
C      1  0.4702640000000  0.4454460000000  0.5137120000000 1.0
C      1  0.4697510000000  0.5198690000000  0.4831610000000 1.0
C      1  0.4900550000000  0.4987960000000  0.5387890000000 1.0
C      1  0.4231150000000  0.5233180000000  0.4675010000000 1.0
C      1  0.5228530000000  0.4185340000000  0.5656590000000 1.0
C      1  0.5771240000000  0.5047330000000  0.4204830000000 1.0
C      1  0.5037640000000  0.5072420000000  0.5125990000000 1.0
C      1  0.6054690000000  0.5017190000000  0.4785130000000 1.0
C      1  0.6230460000000  0.4573480000000  0.5086720000000 1.0
C      1  0.4561480000000  0.5993130000000  0.5539300000000 1.0
C      1  0.5612900000000  0.4601720000000  0.4109510000000 1.0
C      1  0.5388640000000  0.4327080000000  0.4923460000000 1.0
C      1  0.4058080000000  0.5484430000000  0.4614220000000 1.0
C      1  0.4095140000000  0.5313760000000  0.5084360000000 1.0
C      1  0.4723590000000  0.4047830000000  0.4554080000000 1.0
C      1  0.3762810000000  0.4951740000000  0.5043080000000 1.0
C      1  0.4375440000000  0.4308300000000  0.4305490000000 1.0
C      1  0.5590670000000  0.5364200000000  0.4570180000000 1.0
C      1  0.5114770000000  0.4387090000000  0.4033460000000 1.0
C      1  0.4330150000000  0.5798220000000  0.5527290000000 1.0
C      1  0.4820700000000  0.5470410000000  0.3926930000000 1.0
C      1  0.4709590000000  0.5032750000000  0.4192800000000 1.0
C      1  0.4926390000000  0.5224810000000  0.5560150000000 1.0
C      1  0.4348740000000  0.4441280000000  0.5661790000000 1.0
C      1  0.5183950000000  0.5624590000000  0.5420020000000 1.0
C      1  0.5820440000000  0.4759030000000  0.4225100000000 1.0
C      1  0.4307190000000  0.5533680000000  0.5114180000000 1.0
C      1  0.5804890000000  0.5164680000000  0.5218410000000 1.0
C      1  0.5014320000000  0.4756650000000  0.5534800000000 1.0
C      1  0.5856330000000  0.4518870000000  0.5742240000000 1.0
C      1  0.4838360000000  0.3862440000000  0.5307050000000 1.0
C      1  0.5866070000000  0.4948880000000  0.4997500000000 1.0
C      1  0.4648030000000  0.5015860000000  0.5940300000000 1.0
C      1  0.4513160000000  0.4254340000000  0.4575030000000 1.0
C      1  0.4430270000000  0.5623380000000  0.4831680000000 1.0
C      1  0.5779300000000  0.5204560000000  0.5736280000000 1.0
C      1  0.5456220000000  0.4935980000000  0.3834670000000 1.0
C      1  0.5130560000000  0.4656270000000  0.4543820000000 1.0
C      1  0.5658240000000  0.5494920000000  0.5706340000000 1.0
C      1  0.5158830000000  0.4893430000000  0.6099980000000 1.0
C      1  0.3816050000000  0.5372440000000  0.5180750000000 1.0
C      1  0.4927700000000  0.5208330000000  0.4656560000000 1.0
C      1  0.4809440000000  0.4385060000000  0.5858960000000 1.0
C      1  0.5081530000000  0.6041960000000  0.4773060000000 1.0
C      1  0.5171900000000  0.5361860000000  0.4280200000000 1.0
C      1  0.4519680000000  0.4336020000000  0.5903140000000 1.0
C      1  0.5475060000000  0.5410900000000  0.3963890000000 1.0
C      1  0.5444390000000  0.5907220000000  0.5472900000000 1.0
C      1  0.5000250000000  0.5332080000000  0.3753520000000 1.0
C      1  0.5148760000000  0.6086020000000  0.5070290000000 1.0
C      1  0.4963570000000  0.4810230000000  0.3850480000000 1.0
C      1  0.5235820000000  0.5816610000000  0.4336530000000 1.0
C      1  0.4679420000000  0.6099730000000  0.5298760000000 1.0
C      1  0.4662180000000  0.5303060000000  0.6012770000000 1.0
C      1  0.4452260000000  0.5725080000000  0.4382980000000 1.0
C      1  0.4723300000000  0.4081960000000  0.5478030000000 1.0
C      1  0.5681330000000  0.4002530000000  0.4790830000000 1.0
C      1  0.5406900000000  0.5070380000000  0.6089480000000 1.0
C      1  0.3851420000000  0.4999800000000  0.4573350000000 1.0
C      1  0.4442270000000  0.5140690000000  0.5407890000000 1.0
C      1  0.4195190000000  0.5065930000000  0.5256940000000 1.0
C      1  0.5312420000000  0.5438040000000  0.4543760000000 1.0
C      1  0.5070090000000  0.6005650000000  0.5581130000000 1.0
C      1  0.4507290000000  0.4697860000000  0.5167560000000 1.0
C      1  0.4745600000000  0.5742400000000  0.5891120000000 1.0
C      1  0.5443630000000  0.4359380000000  0.5711850000000 1.0
C      1  0.5879770000000  0.5859600000000  0.5047150000000 1.0
C      1  0.4843480000000  0.3936920000000  0.5691780000000 1.0
C      1  0.5691770000000  0.4339280000000  0.5525530000000 1.0
C      1  0.5637610000000  0.4511410000000  0.4806960000000 1.0
C      1  0.5649810000000  0.4999510000000  0.5933890000000 1.0
C      1  0.4183140000000  0.4901270000000  0.5809540000000 1.0
C      1  0.4791260000000  0.5957180000000  0.5708220000000 1.0
C      1  0.4970110000000  0.6069370000000  0.5302460000000 1.0
C      1  0.5519030000000  0.5255610000000  0.5190110000000 1.0
C      1  0.4303450000000  0.5563910000000  0.5705810000000 1.0
C      1  0.5667050000000  0.4701550000000  0.5889550000000 1.0
C      1  0.5349750000000  0.5192630000000  0.5671270000000 1.0
C      1  0.5152070000000  0.4161690000000  0.4231760000000 1.0
C      1  0.4866770000000  0.4054770000000  0.4291760000000 1.0
C      1  0.3789340000000  0.4917090000000  0.5339260000000 1.0
C      1  0.4246270000000  0.4982660000000  0.4939120000000 1.0
C      1  0.4993490000000  0.4861030000000  0.4922430000000 1.0
C      1  0.4828110000000  0.3914460000000  0.4794520000000 1.0
C      1  0.4481140000000  0.5226530000000  0.4203460000000 1.0
C      1  0.4101120000000  0.5363630000000  0.5638050000000 1.0
C      1  0.4732870000000  0.4642340000000  0.3928780000000 1.0
C      1  0.6090680000000  0.4645450000000  0.5662870000000 1.0
C      1  0.4103090000000  0.4639520000000  0.5694900000000 1.0
END
