TITL C-950522-5749-69 -5.64080079111476e-08 125000 -1144.27787031554 0 0 182 (C1) n - 1
REM
REM in /home/bkarasulu/work/CARBON/AIRSS/Generating-Clusters/EDIP-Nigel-Params/with-SteepDescent/Only-C1/SD-CG/HFTN-CG
REM
REM
REM
REM
REM
REM ./C.cell (11c1c37f851c82e70ff6c80c92926a4b)
REM
REM compiler GCC version 9.2.1 20190827 (Red Hat 9.2.1-1)
REM options -cpp -mtune=generic -march=x86-64 -g -O0 -fpre-include=/usr/include/finclude/math-vector-fortran.h
REM seed 2110883226 -456626171 -8377949 2103293353 158478775 -1573233782 990543484 -721895798 -1519150912 -199505546 649940795 1781580847 -254948668 -787824508 -1192593728 1757236578 -1535486456 305515834 -897599970 -1983143059 -39374988 -1022568756 1628323653 295749440 1424362838 -280371333 -84139050 1040570587 374115048 523508191 -112643863 -971040628 1313964437
REM
CELL 1.54180   50.00000   50.00000   50.00000   90.00000   90.00000   90.00000
LATT -1
SFAC C  
C      1  0.5293430000000  0.6010930000000  0.5554300000000 1.0
C      1  0.4198370000000  0.4313750000000  0.5046870000000 1.0
C      1  0.5985070000000  0.4632650000000  0.4307900000000 1.0
C      1  0.5274550000000  0.4974890000000  0.5572070000000 1.0
C      1  0.5359960000000  0.5522470000000  0.5882760000000 1.0
C      1  0.5423220000000  0.3988780000000  0.4735100000000 1.0
C      1  0.5170060000000  0.6114170000000  0.5293910000000 1.0
C      1  0.4673210000000  0.4758850000000  0.5560180000000 1.0
C      1  0.4082630000000  0.5365420000000  0.4561450000000 1.0
C      1  0.4480610000000  0.4769850000000  0.4685220000000 1.0
C      1  0.4023750000000  0.5281940000000  0.5028830000000 1.0
C      1  0.5218680000000  0.5103440000000  0.6095650000000 1.0
C      1  0.4685830000000  0.5787920000000  0.5736620000000 1.0
C      1  0.5165800000000  0.4336280000000  0.5056780000000 1.0
C      1  0.5537110000000  0.4200630000000  0.5348960000000 1.0
C      1  0.4996220000000  0.5441750000000  0.5647910000000 1.0
C      1  0.5640190000000  0.3888720000000  0.4876320000000 1.0
C      1  0.4405580000000  0.4193130000000  0.5693810000000 1.0
C      1  0.4078020000000  0.4880160000000  0.4404830000000 1.0
C      1  0.5290190000000  0.5433320000000  0.4074020000000 1.0
C      1  0.6060680000000  0.5073760000000  0.4957790000000 1.0
C      1  0.4805820000000  0.4224620000000  0.4568060000000 1.0
C      1  0.5673990000000  0.4380330000000  0.4559350000000 1.0
C      1  0.5836820000000  0.5582460000000  0.5720740000000 1.0
C      1  0.4954410000000  0.4488020000000  0.4645460000000 1.0
C      1  0.4422510000000  0.5122030000000  0.5331530000000 1.0
C      1  0.5796420000000  0.4113190000000  0.4941030000000 1.0
C      1  0.5928810000000  0.5355820000000  0.5415300000000 1.0
C      1  0.4516300000000  0.4278350000000  0.5042370000000 1.0
C      1  0.4883110000000  0.4661670000000  0.6021810000000 1.0
C      1  0.5242750000000  0.4691520000000  0.5474410000000 1.0
C      1  0.5462450000000  0.5793870000000  0.5433140000000 1.0
C      1  0.4883170000000  0.4980870000000  0.4827650000000 1.0
C      1  0.5117720000000  0.4506490000000  0.5979770000000 1.0
C      1  0.4832900000000  0.3969980000000  0.5046210000000 1.0
C      1  0.4294820000000  0.4764990000000  0.4259450000000 1.0
C      1  0.5095020000000  0.5088700000000  0.4628450000000 1.0
C      1  0.4760090000000  0.4695700000000  0.4800740000000 1.0
C      1  0.4141740000000  0.5628570000000  0.5350930000000 1.0
C      1  0.5498590000000  0.5325200000000  0.5316340000000 1.0
C      1  0.5731390000000  0.4660070000000  0.5895640000000 1.0
C      1  0.3952080000000  0.4934040000000  0.4656380000000 1.0
C      1  0.3874150000000  0.4828910000000  0.5147150000000 1.0
C      1  0.5509860000000  0.5533340000000  0.4277910000000 1.0
C      1  0.5406870000000  0.4259620000000  0.4614140000000 1.0
C      1  0.5561010000000  0.4277780000000  0.5629170000000 1.0
C      1  0.5085660000000  0.4688280000000  0.3910260000000 1.0
C      1  0.5980610000000  0.4862100000000  0.4493190000000 1.0
C      1  0.5485940000000  0.5849390000000  0.5140840000000 1.0
C      1  0.4507770000000  0.5839800000000  0.4748740000000 1.0
C      1  0.5341600000000  0.4796050000000  0.4404480000000 1.0
C      1  0.4367140000000  0.5322500000000  0.3899660000000 1.0
C      1  0.5281040000000  0.5978240000000  0.4952030000000 1.0
C      1  0.4329200000000  0.5199540000000  0.5052680000000 1.0
C      1  0.5225680000000  0.5475000000000  0.4941480000000 1.0
C      1  0.5080460000000  0.4586200000000  0.4380100000000 1.0
C      1  0.5856720000000  0.4644680000000  0.5420450000000 1.0
C      1  0.5312150000000  0.5524900000000  0.5442490000000 1.0
C      1  0.5130710000000  0.4043110000000  0.5055950000000 1.0
C      1  0.5759110000000  0.4449360000000  0.4296230000000 1.0
C      1  0.4109960000000  0.4472820000000  0.4808730000000 1.0
C      1  0.5315290000000  0.4525770000000  0.4010810000000 1.0
C      1  0.5302510000000  0.4723890000000  0.4885880000000 1.0
C      1  0.6024430000000  0.5110410000000  0.5254990000000 1.0
C      1  0.4134030000000  0.5409010000000  0.5564960000000 1.0
C      1  0.5040530000000  0.5527500000000  0.4185380000000 1.0
C      1  0.5347550000000  0.4920540000000  0.4679380000000 1.0
C      1  0.4650070000000  0.5175800000000  0.4750870000000 1.0
C      1  0.5065400000000  0.4982330000000  0.3906640000000 1.0
C      1  0.5186260000000  0.4304310000000  0.4129870000000 1.0
C      1  0.6075090000000  0.5315530000000  0.4815890000000 1.0
C      1  0.4764160000000  0.5118330000000  0.5964460000000 1.0
C      1  0.5067600000000  0.5431830000000  0.4678310000000 1.0
C      1  0.5851770000000  0.5391640000000  0.4389970000000 1.0
C      1  0.5976600000000  0.4918460000000  0.5479090000000 1.0
C      1  0.5817620000000  0.4198970000000  0.5214730000000 1.0
C      1  0.5162650000000  0.5388750000000  0.6053640000000 1.0
C      1  0.4368830000000  0.4497070000000  0.4353780000000 1.0
C      1  0.4967150000000  0.5220600000000  0.5259550000000 1.0
C      1  0.5979560000000  0.4559070000000  0.4917160000000 1.0
C      1  0.5099360000000  0.5667130000000  0.4442730000000 1.0
C      1  0.5529420000000  0.5064130000000  0.5446390000000 1.0
C      1  0.4383120000000  0.5787950000000  0.5245290000000 1.0
C      1  0.4791080000000  0.5914240000000  0.4733140000000 1.0
C      1  0.3961980000000  0.4685790000000  0.5388230000000 1.0
C      1  0.5275990000000  0.4250270000000  0.5734760000000 1.0
C      1  0.4436410000000  0.4842150000000  0.5398730000000 1.0
C      1  0.3960210000000  0.5163020000000  0.5504320000000 1.0
C      1  0.4943810000000  0.5881420000000  0.5631650000000 1.0
C      1  0.5009810000000  0.4985470000000  0.5098040000000 1.0
C      1  0.5443550000000  0.5796350000000  0.5911570000000 1.0
C      1  0.5674830000000  0.5647330000000  0.5045790000000 1.0
C      1  0.4044310000000  0.4893210000000  0.5597200000000 1.0
C      1  0.4285290000000  0.5274020000000  0.4397820000000 1.0
C      1  0.4318110000000  0.5128980000000  0.5949970000000 1.0
C      1  0.4642370000000  0.4586520000000  0.5818050000000 1.0
C      1  0.4664470000000  0.4100680000000  0.5262490000000 1.0
C      1  0.4899460000000  0.5900170000000  0.4466140000000 1.0
C      1  0.4036170000000  0.4768270000000  0.4887760000000 1.0
C      1  0.4786540000000  0.5053920000000  0.3808690000000 1.0
C      1  0.5513820000000  0.4663450000000  0.5076580000000 1.0
C      1  0.5882630000000  0.5619100000000  0.5268830000000 1.0
C      1  0.4298170000000  0.5408490000000  0.4153890000000 1.0
C      1  0.4653870000000  0.5853350000000  0.4310770000000 1.0
C      1  0.5653030000000  0.5590730000000  0.5941260000000 1.0
C      1  0.4996570000000  0.5852240000000  0.4919070000000 1.0
C      1  0.5014670000000  0.5003790000000  0.4343400000000 1.0
C      1  0.4207390000000  0.4282670000000  0.5539140000000 1.0
C      1  0.4525000000000  0.5093040000000  0.6128450000000 1.0
C      1  0.5769950000000  0.5079040000000  0.5644320000000 1.0
C      1  0.4596630000000  0.5569630000000  0.5909530000000 1.0
C      1  0.5880880000000  0.4328290000000  0.4757430000000 1.0
C      1  0.5103030000000  0.4103030000000  0.5535370000000 1.0
C      1  0.5496830000000  0.5855800000000  0.4694260000000 1.0
C      1  0.5961160000000  0.4462970000000  0.5205130000000 1.0
C      1  0.4374780000000  0.4651340000000  0.5914930000000 1.0
C      1  0.4347230000000  0.4830190000000  0.3970790000000 1.0
C      1  0.5484840000000  0.5270300000000  0.4450050000000 1.0
C      1  0.4044010000000  0.5771180000000  0.4907430000000 1.0
C      1  0.5730200000000  0.4515040000000  0.5660480000000 1.0
C      1  0.3867840000000  0.5118110000000  0.5221910000000 1.0
C      1  0.5763360000000  0.5755950000000  0.5503670000000 1.0
C      1  0.5609950000000  0.4880840000000  0.5232340000000 1.0
C      1  0.4368910000000  0.5365820000000  0.5774710000000 1.0
C      1  0.5142020000000  0.4515200000000  0.5693810000000 1.0
C      1  0.4809090000000  0.4572960000000  0.5337010000000 1.0
C      1  0.5848230000000  0.5435240000000  0.4682670000000 1.0
C      1  0.4748330000000  0.5113760000000  0.4298420000000 1.0
C      1  0.5764870000000  0.5727140000000  0.4770760000000 1.0
C      1  0.4640530000000  0.4556900000000  0.5081450000000 1.0
C      1  0.5699990000000  0.4935010000000  0.5907630000000 1.0
C      1  0.4710100000000  0.5497760000000  0.5490890000000 1.0
C      1  0.5280480000000  0.3997550000000  0.5319230000000 1.0
C      1  0.4308420000000  0.5852310000000  0.4964530000000 1.0
C      1  0.5285140000000  0.5143220000000  0.4028830000000 1.0
C      1  0.4621500000000  0.5553520000000  0.4400210000000 1.0
C      1  0.4223550000000  0.4877830000000  0.5836650000000 1.0
C      1  0.5476630000000  0.5038820000000  0.4232000000000 1.0
C      1  0.5504570000000  0.5389060000000  0.5004970000000 1.0
C      1  0.4754850000000  0.5048120000000  0.5662640000000 1.0
C      1  0.5591910000000  0.4594900000000  0.4103630000000 1.0
C      1  0.4770740000000  0.5384300000000  0.4176950000000 1.0
C      1  0.4317060000000  0.4872390000000  0.4933780000000 1.0
C      1  0.5018220000000  0.5150150000000  0.5538900000000 1.0
C      1  0.6032910000000  0.4828940000000  0.4791070000000 1.0
C      1  0.4827940000000  0.4257700000000  0.5466370000000 1.0
C      1  0.5937720000000  0.5110250000000  0.4318840000000 1.0
C      1  0.5755520000000  0.5034810000000  0.4099630000000 1.0
C      1  0.4748130000000  0.5472320000000  0.4690750000000 1.0
C      1  0.5024170000000  0.4022750000000  0.4492930000000 1.0
C      1  0.4553900000000  0.5256150000000  0.5558870000000 1.0
C      1  0.5798970000000  0.4772700000000  0.3998890000000 1.0
C      1  0.4664800000000  0.5326800000000  0.3891120000000 1.0
C      1  0.4131840000000  0.4441920000000  0.5317770000000 1.0
C      1  0.5158310000000  0.3878790000000  0.4714840000000 1.0
C      1  0.4513010000000  0.5460100000000  0.4972960000000 1.0
C      1  0.4816420000000  0.4679520000000  0.4264580000000 1.0
C      1  0.4255740000000  0.5069040000000  0.3857240000000 1.0
C      1  0.5483830000000  0.5019450000000  0.6062860000000 1.0
C      1  0.4513900000000  0.5078100000000  0.4485490000000 1.0
C      1  0.4869660000000  0.5408540000000  0.5948960000000 1.0
C      1  0.5616330000000  0.5261710000000  0.4744410000000 1.0
C      1  0.4649530000000  0.4412790000000  0.4295170000000 1.0
C      1  0.5384600000000  0.5756710000000  0.4439700000000 1.0
C      1  0.4897610000000  0.5745540000000  0.5168770000000 1.0
C      1  0.5089690000000  0.5496320000000  0.5205210000000 1.0
C      1  0.4362840000000  0.4492290000000  0.4644180000000 1.0
C      1  0.5244510000000  0.4174980000000  0.4372810000000 1.0
C      1  0.3990290000000  0.5574190000000  0.5102480000000 1.0
C      1  0.4658920000000  0.4299550000000  0.5718040000000 1.0
C      1  0.4617900000000  0.4795600000000  0.3847980000000 1.0
C      1  0.4921330000000  0.5969990000000  0.5355900000000 1.0
C      1  0.4800930000000  0.4589820000000  0.3973010000000 1.0
C      1  0.5212250000000  0.4451010000000  0.4793840000000 1.0
C      1  0.4970160000000  0.4943550000000  0.6058920000000 1.0
C      1  0.4419180000000  0.5877240000000  0.4481340000000 1.0
C      1  0.3945260000000  0.5215390000000  0.4744090000000 1.0
C      1  0.4623900000000  0.5617130000000  0.5214010000000 1.0
C      1  0.4664260000000  0.4112350000000  0.4818670000000 1.0
C      1  0.5386270000000  0.4444800000000  0.5237320000000 1.0
C      1  0.5042530000000  0.4718710000000  0.5245050000000 1.0
C      1  0.4390920000000  0.4690250000000  0.5161390000000 1.0
END
