TITL C-950522-5749-605 -2.68668634004468e-06 125000 -815.956394516086 0 0 130 (C1) n - 1
REM
REM in /home/bkarasulu/work/CARBON/AIRSS/Generating-Clusters/EDIP-Nigel-Params/with-SteepDescent/Only-C1/SD-CG/HFTN-CG
REM
REM
REM
REM
REM
REM ./C.cell (11c1c37f851c82e70ff6c80c92926a4b)
REM
REM compiler GCC version 9.2.1 20190827 (Red Hat 9.2.1-1)
REM options -cpp -mtune=generic -march=x86-64 -g -O0 -fpre-include=/usr/include/finclude/math-vector-fortran.h
REM seed 1340966971 -1143381019 840939522 -203598182 711881213 -1397133566 -1254473367 802491679 1454207407 -920317629 1114643298 -1159845767 672654294 407613705 -120286086 -110829001 39615860 1990074105 1275046763 597968146 -1797968580 -1155393973 58415588 -1991677226 518209676 2067855519 -1053251788 708013125 -1001870061 1522200353 -2073040364 1100399218 435440821
REM
CELL 1.54180   50.00000   50.00000   50.00000   90.00000   90.00000   90.00000
LATT -1
SFAC C  
C      1  0.4543310000000  0.5151440000000  0.5671320000000 1.0
C      1  0.4134020000000  0.5387250000000  0.5169350000000 1.0
C      1  0.4866030000000  0.5787160000000  0.4609450000000 1.0
C      1  0.4545780000000  0.4324690000000  0.5558900000000 1.0
C      1  0.5609250000000  0.4542450000000  0.4599310000000 1.0
C      1  0.5151860000000  0.4668730000000  0.4079070000000 1.0
C      1  0.5908060000000  0.4709120000000  0.4974400000000 1.0
C      1  0.5233280000000  0.5167650000000  0.5882800000000 1.0
C      1  0.5747600000000  0.4926180000000  0.5366980000000 1.0
C      1  0.4669890000000  0.5401020000000  0.4327730000000 1.0
C      1  0.5276210000000  0.4148780000000  0.4696580000000 1.0
C      1  0.4601370000000  0.4048590000000  0.5156910000000 1.0
C      1  0.4303340000000  0.4719880000000  0.4491930000000 1.0
C      1  0.5035340000000  0.6008250000000  0.4652720000000 1.0
C      1  0.4508200000000  0.5894870000000  0.4908370000000 1.0
C      1  0.4837380000000  0.4739780000000  0.5238680000000 1.0
C      1  0.4884090000000  0.5606730000000  0.4839740000000 1.0
C      1  0.4371330000000  0.4353480000000  0.5102380000000 1.0
C      1  0.4561000000000  0.5808170000000  0.5626340000000 1.0
C      1  0.4674780000000  0.5048810000000  0.5400130000000 1.0
C      1  0.5602560000000  0.5562180000000  0.5706720000000 1.0
C      1  0.5813910000000  0.4728080000000  0.4696390000000 1.0
C      1  0.4030160000000  0.4693960000000  0.4968870000000 1.0
C      1  0.4674070000000  0.4755060000000  0.4249460000000 1.0
C      1  0.5809620000000  0.5590760000000  0.4755440000000 1.0
C      1  0.4673900000000  0.4442020000000  0.5820440000000 1.0
C      1  0.4926640000000  0.4519920000000  0.4640380000000 1.0
C      1  0.4299720000000  0.5638500000000  0.4561810000000 1.0
C      1  0.5781580000000  0.4498720000000  0.5131230000000 1.0
C      1  0.4479070000000  0.4696360000000  0.4741280000000 1.0
C      1  0.5010600000000  0.4172940000000  0.5426950000000 1.0
C      1  0.5311310000000  0.5433740000000  0.4644250000000 1.0
C      1  0.4937770000000  0.5984810000000  0.5130500000000 1.0
C      1  0.5025930000000  0.5937270000000  0.5407270000000 1.0
C      1  0.5214680000000  0.5552340000000  0.4911380000000 1.0
C      1  0.5712380000000  0.5436820000000  0.5488660000000 1.0
C      1  0.5186620000000  0.4206940000000  0.4423220000000 1.0
C      1  0.4733190000000  0.5201500000000  0.4546740000000 1.0
C      1  0.5467680000000  0.5640880000000  0.4481730000000 1.0
C      1  0.5250230000000  0.4910500000000  0.5444250000000 1.0
C      1  0.4922480000000  0.4837980000000  0.4106980000000 1.0
C      1  0.5105950000000  0.5398340000000  0.4419690000000 1.0
C      1  0.5155620000000  0.4503950000000  0.4427120000000 1.0
C      1  0.4910730000000  0.4977780000000  0.5965860000000 1.0
C      1  0.5363550000000  0.5385540000000  0.5129200000000 1.0
C      1  0.4622810000000  0.4962530000000  0.5889030000000 1.0
C      1  0.5617710000000  0.5526520000000  0.5221990000000 1.0
C      1  0.4000610000000  0.4971650000000  0.4904630000000 1.0
C      1  0.5273770000000  0.5784990000000  0.5437520000000 1.0
C      1  0.4993130000000  0.5041570000000  0.4486210000000 1.0
C      1  0.5809920000000  0.4451400000000  0.5420940000000 1.0
C      1  0.5260640000000  0.5215800000000  0.4050450000000 1.0
C      1  0.5390300000000  0.4692230000000  0.4465850000000 1.0
C      1  0.5583490000000  0.4263790000000  0.5491490000000 1.0
C      1  0.4149660000000  0.4663400000000  0.5439300000000 1.0
C      1  0.4743340000000  0.5283400000000  0.4072880000000 1.0
C      1  0.5258410000000  0.4927190000000  0.4635630000000 1.0
C      1  0.4374030000000  0.5432340000000  0.4390980000000 1.0
C      1  0.4994160000000  0.4420930000000  0.4935260000000 1.0
C      1  0.5150150000000  0.5424290000000  0.5772420000000 1.0
C      1  0.4297400000000  0.5163160000000  0.4478350000000 1.0
C      1  0.4091260000000  0.5105960000000  0.4666700000000 1.0
C      1  0.5179970000000  0.4085840000000  0.5203100000000 1.0
C      1  0.5480290000000  0.4348150000000  0.4776380000000 1.0
C      1  0.4245320000000  0.5176830000000  0.5600220000000 1.0
C      1  0.4449000000000  0.5619720000000  0.5445730000000 1.0
C      1  0.5456320000000  0.5140470000000  0.5014890000000 1.0
C      1  0.5927730000000  0.4888450000000  0.4500820000000 1.0
C      1  0.4891880000000  0.5499880000000  0.5830470000000 1.0
C      1  0.4884990000000  0.5617670000000  0.4378610000000 1.0
C      1  0.4126350000000  0.4520010000000  0.5176740000000 1.0
C      1  0.5147780000000  0.6018570000000  0.4913370000000 1.0
C      1  0.4334950000000  0.5688180000000  0.4831840000000 1.0
C      1  0.5368540000000  0.5814960000000  0.4944290000000 1.0
C      1  0.5580040000000  0.5781900000000  0.4716790000000 1.0
C      1  0.4895990000000  0.4888680000000  0.4964730000000 1.0
C      1  0.4427680000000  0.4613340000000  0.5553120000000 1.0
C      1  0.4203400000000  0.5447210000000  0.5461510000000 1.0
C      1  0.5418150000000  0.4758530000000  0.4174590000000 1.0
C      1  0.4783460000000  0.5286580000000  0.5258180000000 1.0
C      1  0.4440580000000  0.4934990000000  0.4347490000000 1.0
C      1  0.4651890000000  0.5397200000000  0.5768620000000 1.0
C      1  0.5307750000000  0.4889350000000  0.5740850000000 1.0
C      1  0.5335380000000  0.5634660000000  0.5686360000000 1.0
C      1  0.5849710000000  0.5432930000000  0.4522610000000 1.0
C      1  0.5485620000000  0.5800580000000  0.5227380000000 1.0
C      1  0.5128160000000  0.4422290000000  0.5556860000000 1.0
C      1  0.5956110000000  0.4948520000000  0.5143810000000 1.0
C      1  0.5775640000000  0.4701830000000  0.5572160000000 1.0
C      1  0.4871210000000  0.5183550000000  0.5004290000000 1.0
C      1  0.4778260000000  0.4785690000000  0.4678330000000 1.0
C      1  0.4389780000000  0.5444730000000  0.4992940000000 1.0
C      1  0.4931580000000  0.4102450000000  0.4365850000000 1.0
C      1  0.4431750000000  0.4878110000000  0.4964970000000 1.0
C      1  0.5441290000000  0.4216100000000  0.5237340000000 1.0
C      1  0.5839720000000  0.5464520000000  0.5018420000000 1.0
C      1  0.4178420000000  0.4970790000000  0.5379530000000 1.0
C      1  0.5117610000000  0.4659590000000  0.5345700000000 1.0
C      1  0.4748660000000  0.4025400000000  0.4903410000000 1.0
C      1  0.4749470000000  0.4471630000000  0.5129980000000 1.0
C      1  0.5071770000000  0.4758440000000  0.5882580000000 1.0
C      1  0.4757050000000  0.4307890000000  0.4484400000000 1.0
C      1  0.5742370000000  0.5279040000000  0.4314990000000 1.0
C      1  0.5286680000000  0.5466390000000  0.4187000000000 1.0
C      1  0.4602460000000  0.5531910000000  0.5208620000000 1.0
C      1  0.4492180000000  0.4698770000000  0.5850280000000 1.0
C      1  0.5849970000000  0.5024810000000  0.4275080000000 1.0
C      1  0.4599690000000  0.4469580000000  0.4280440000000 1.0
C      1  0.4951330000000  0.4528640000000  0.5762470000000 1.0
C      1  0.4731720000000  0.4243470000000  0.5337670000000 1.0
C      1  0.5968080000000  0.5209660000000  0.5030130000000 1.0
C      1  0.4322370000000  0.4479740000000  0.4337130000000 1.0
C      1  0.4441440000000  0.4932950000000  0.5245020000000 1.0
C      1  0.5279330000000  0.4594040000000  0.5076000000000 1.0
C      1  0.5497610000000  0.5043290000000  0.4127850000000 1.0
C      1  0.5409190000000  0.4400600000000  0.5683420000000 1.0
C      1  0.4599700000000  0.4192790000000  0.4704330000000 1.0
C      1  0.5758540000000  0.5168770000000  0.5511140000000 1.0
C      1  0.5173890000000  0.4822260000000  0.4900550000000 1.0
C      1  0.4812510000000  0.5902640000000  0.5586720000000 1.0
C      1  0.4441710000000  0.4405430000000  0.4827040000000 1.0
C      1  0.4013640000000  0.5114080000000  0.5164250000000 1.0
C      1  0.4974310000000  0.5117970000000  0.4058340000000 1.0
C      1  0.5605020000000  0.4303600000000  0.5023000000000 1.0
C      1  0.5465900000000  0.4898520000000  0.5216990000000 1.0
C      1  0.5425770000000  0.5159010000000  0.4714410000000 1.0
C      1  0.5053130000000  0.4124950000000  0.4925910000000 1.0
C      1  0.5535080000000  0.4667580000000  0.5754600000000 1.0
C      1  0.4720570000000  0.5340640000000  0.4814160000000 1.0
C      1  0.4733700000000  0.5771600000000  0.5044700000000 1.0
END
