TITL C-950528-5794-658 -1.90234614899397e-06 125000 -839.086055751411 0 0 135 (C1) n - 1
REM
REM in /home/bkarasulu/work/CARBON/AIRSS/Generating-Clusters/EDIP-Nigel-Params/with-SteepDescent/Only-C1/SD-CG/HFTN-CG
REM
REM
REM
REM
REM
REM ./C.cell (11c1c37f851c82e70ff6c80c92926a4b)
REM
REM compiler GCC version 9.2.1 20190827 (Red Hat 9.2.1-1)
REM options -cpp -mtune=generic -march=x86-64 -g -O0 -fpre-include=/usr/include/finclude/math-vector-fortran.h
REM seed 1619196384 -563337239 1372494022 -1899696924 -176653211 1932655608 1798736465 1846889976 2033992434 2055983407 397564547 1189872114 -1914724932 1187953801 -1865538630 -604162506 935608555 1237990795 -1048267589 -265743878 1128103195 613655825 1658421268 1381547262 496379107 1622620657 -1683835662 -1772422187 -573015670 -1511579488 224165053 1406252403 -1168430852
REM
CELL 1.54180   50.00000   50.00000   50.00000   90.00000   90.00000   90.00000
LATT -1
SFAC C  
C      1  0.4552850000000  0.4523910000000  0.4969010000000 1.0
C      1  0.4132710000000  0.4326810000000  0.4959520000000 1.0
C      1  0.5429310000000  0.5380840000000  0.4159600000000 1.0
C      1  0.4783930000000  0.5269100000000  0.5886520000000 1.0
C      1  0.5130940000000  0.5594290000000  0.5819490000000 1.0
C      1  0.4640790000000  0.4867130000000  0.4648860000000 1.0
C      1  0.5420140000000  0.4911350000000  0.6098960000000 1.0
C      1  0.5359870000000  0.4673910000000  0.4106000000000 1.0
C      1  0.4133800000000  0.4939540000000  0.4378780000000 1.0
C      1  0.4775380000000  0.5422480000000  0.5198150000000 1.0
C      1  0.5002560000000  0.5068680000000  0.5451170000000 1.0
C      1  0.4832370000000  0.4104430000000  0.4668860000000 1.0
C      1  0.4415410000000  0.5828770000000  0.4652080000000 1.0
C      1  0.5748050000000  0.5432570000000  0.4958540000000 1.0
C      1  0.4282470000000  0.5609220000000  0.5485210000000 1.0
C      1  0.5306860000000  0.4456680000000  0.5513840000000 1.0
C      1  0.5198840000000  0.5531760000000  0.4921800000000 1.0
C      1  0.5346650000000  0.4051110000000  0.5210750000000 1.0
C      1  0.4652560000000  0.5485780000000  0.5749520000000 1.0
C      1  0.5178210000000  0.5337780000000  0.4032120000000 1.0
C      1  0.5690010000000  0.4614010000000  0.5266160000000 1.0
C      1  0.5491850000000  0.5275210000000  0.5110040000000 1.0
C      1  0.4962130000000  0.4122210000000  0.5494040000000 1.0
C      1  0.4334270000000  0.5156790000000  0.4349260000000 1.0
C      1  0.4737610000000  0.5451820000000  0.4756670000000 1.0
C      1  0.5198280000000  0.4569690000000  0.5771050000000 1.0
C      1  0.5250200000000  0.4165190000000  0.5473890000000 1.0
C      1  0.4741660000000  0.5216000000000  0.4962090000000 1.0
C      1  0.4611880000000  0.4117410000000  0.5138780000000 1.0
C      1  0.4482680000000  0.5147080000000  0.5398530000000 1.0
C      1  0.5366150000000  0.5959580000000  0.5176350000000 1.0
C      1  0.5441420000000  0.4250630000000  0.4996000000000 1.0
C      1  0.5639880000000  0.5266450000000  0.5821090000000 1.0
C      1  0.4455290000000  0.4735070000000  0.4407450000000 1.0
C      1  0.5924930000000  0.5052790000000  0.5192190000000 1.0
C      1  0.5587010000000  0.5746260000000  0.4810630000000 1.0
C      1  0.4579780000000  0.4822040000000  0.4144210000000 1.0
C      1  0.5837550000000  0.4804070000000  0.4727580000000 1.0
C      1  0.4285840000000  0.5506120000000  0.4993910000000 1.0
C      1  0.5212790000000  0.4645280000000  0.5241600000000 1.0
C      1  0.4865160000000  0.4014090000000  0.5242790000000 1.0
C      1  0.5276560000000  0.5181260000000  0.5483850000000 1.0
C      1  0.5063560000000  0.5349700000000  0.5933280000000 1.0
C      1  0.4434290000000  0.5829900000000  0.5530510000000 1.0
C      1  0.5450200000000  0.5286310000000  0.4442190000000 1.0
C      1  0.5327820000000  0.5746450000000  0.4382900000000 1.0
C      1  0.5126870000000  0.6028010000000  0.5044410000000 1.0
C      1  0.5240520000000  0.5252540000000  0.6133240000000 1.0
C      1  0.5351500000000  0.5474270000000  0.5415830000000 1.0
C      1  0.4047900000000  0.4751780000000  0.4570230000000 1.0
C      1  0.4479160000000  0.4444770000000  0.4372890000000 1.0
C      1  0.3999480000000  0.4891460000000  0.5117570000000 1.0
C      1  0.4666230000000  0.5939650000000  0.5043740000000 1.0
C      1  0.4961810000000  0.4458080000000  0.4760540000000 1.0
C      1  0.5523280000000  0.5187440000000  0.6073000000000 1.0
C      1  0.4746810000000  0.4430300000000  0.4276430000000 1.0
C      1  0.5689840000000  0.5376650000000  0.5563640000000 1.0
C      1  0.4293570000000  0.5382890000000  0.5308020000000 1.0
C      1  0.5400070000000  0.4760340000000  0.5859900000000 1.0
C      1  0.5079550000000  0.4828190000000  0.4119780000000 1.0
C      1  0.4907150000000  0.4537850000000  0.5799560000000 1.0
C      1  0.4791210000000  0.5295720000000  0.4060980000000 1.0
C      1  0.4752280000000  0.4650260000000  0.4818110000000 1.0
C      1  0.4209530000000  0.4735160000000  0.5281920000000 1.0
C      1  0.4685660000000  0.5739650000000  0.5616710000000 1.0
C      1  0.4980590000000  0.4864470000000  0.5233470000000 1.0
C      1  0.4068220000000  0.5319330000000  0.4942740000000 1.0
C      1  0.5496800000000  0.5653470000000  0.4181140000000 1.0
C      1  0.5362900000000  0.4998250000000  0.4472630000000 1.0
C      1  0.5892550000000  0.5264270000000  0.4758750000000 1.0
C      1  0.5380200000000  0.5861910000000  0.4637900000000 1.0
C      1  0.4560660000000  0.5113840000000  0.4157700000000 1.0
C      1  0.4473940000000  0.4902520000000  0.5193330000000 1.0
C      1  0.5960570000000  0.5015320000000  0.4898000000000 1.0
C      1  0.5137600000000  0.4582640000000  0.4531120000000 1.0
C      1  0.4433610000000  0.4278770000000  0.5319380000000 1.0
C      1  0.4916310000000  0.5770340000000  0.5434770000000 1.0
C      1  0.5092970000000  0.4037040000000  0.4795950000000 1.0
C      1  0.4640100000000  0.5007440000000  0.5823240000000 1.0
C      1  0.5413610000000  0.4928260000000  0.4750610000000 1.0
C      1  0.4383440000000  0.4335770000000  0.4825320000000 1.0
C      1  0.5209470000000  0.4209270000000  0.4368530000000 1.0
C      1  0.5902020000000  0.4816680000000  0.5351030000000 1.0
C      1  0.5035280000000  0.5096610000000  0.3977520000000 1.0
C      1  0.4825930000000  0.4658240000000  0.4098020000000 1.0
C      1  0.4494410000000  0.5030490000000  0.4890400000000 1.0
C      1  0.4058780000000  0.4892420000000  0.4814090000000 1.0
C      1  0.4391420000000  0.5038770000000  0.5660580000000 1.0
C      1  0.5425800000000  0.5705840000000  0.5052180000000 1.0
C      1  0.4890580000000  0.5984770000000  0.5218570000000 1.0
C      1  0.4218480000000  0.5132780000000  0.4769790000000 1.0
C      1  0.4251510000000  0.4781440000000  0.5596980000000 1.0
C      1  0.4524430000000  0.4346630000000  0.5588150000000 1.0
C      1  0.5221460000000  0.4473740000000  0.4981520000000 1.0
C      1  0.5101030000000  0.3954590000000  0.5074390000000 1.0
C      1  0.4429710000000  0.5546340000000  0.4721270000000 1.0
C      1  0.4765860000000  0.5268680000000  0.5452910000000 1.0
C      1  0.5341100000000  0.4123570000000  0.4640340000000 1.0
C      1  0.4804240000000  0.4318200000000  0.5640640000000 1.0
C      1  0.4893740000000  0.5631560000000  0.4975510000000 1.0
C      1  0.5460120000000  0.4790290000000  0.5200940000000 1.0
C      1  0.4648940000000  0.5931500000000  0.4760300000000 1.0
C      1  0.4669800000000  0.4713480000000  0.5873630000000 1.0
C      1  0.5794650000000  0.4911140000000  0.4446110000000 1.0
C      1  0.5895320000000  0.5309390000000  0.5353550000000 1.0
C      1  0.4994980000000  0.5040150000000  0.4987290000000 1.0
C      1  0.4713310000000  0.4737560000000  0.5246970000000 1.0
C      1  0.3998100000000  0.5177840000000  0.5187650000000 1.0
C      1  0.5933800000000  0.5516720000000  0.5167590000000 1.0
C      1  0.5126080000000  0.5937170000000  0.4760480000000 1.0
C      1  0.5216680000000  0.5452900000000  0.4607310000000 1.0
C      1  0.4884230000000  0.5897820000000  0.4605210000000 1.0
C      1  0.5784000000000  0.4923500000000  0.5594080000000 1.0
C      1  0.4565310000000  0.4097830000000  0.4845500000000 1.0
C      1  0.4863380000000  0.5773690000000  0.4349330000000 1.0
C      1  0.5371900000000  0.4619070000000  0.4731830000000 1.0
C      1  0.5326900000000  0.4408700000000  0.4200340000000 1.0
C      1  0.5651830000000  0.4704200000000  0.5728610000000 1.0
C      1  0.5602100000000  0.4494420000000  0.5525700000000 1.0
C      1  0.5764120000000  0.5209620000000  0.4493990000000 1.0
C      1  0.5269900000000  0.5150570000000  0.4909520000000 1.0
C      1  0.4428870000000  0.4583510000000  0.5739920000000 1.0
C      1  0.4922700000000  0.5348130000000  0.4537410000000 1.0
C      1  0.5174420000000  0.5681720000000  0.5557200000000 1.0
C      1  0.4873880000000  0.5038180000000  0.4532830000000 1.0
C      1  0.5092290000000  0.4874670000000  0.4417680000000 1.0
C      1  0.4913320000000  0.4224080000000  0.4396170000000 1.0
C      1  0.5805630000000  0.4511530000000  0.4784600000000 1.0
C      1  0.5515420000000  0.5042510000000  0.5350180000000 1.0
C      1  0.4851420000000  0.5493310000000  0.4292930000000 1.0
C      1  0.4288640000000  0.5396380000000  0.4499960000000 1.0
C      1  0.5714700000000  0.4400630000000  0.5047490000000 1.0
C      1  0.5596650000000  0.4799730000000  0.4241850000000 1.0
C      1  0.5581930000000  0.4424680000000  0.4626830000000 1.0
C      1  0.4200440000000  0.4426610000000  0.5218210000000 1.0
END
