TITL C-951336-9012-16 -2.6313388104482e-06 125000 -372.147146861471 0 0 61 (C1) n - 1
REM
REM in /home/bkarasulu/work/CARBON/AIRSS/Generating-Clusters/EDIP-Nigel-Params/with-SteepDescent/Only-C1/SD-CG/HFTN-CG
REM
REM
REM
REM
REM
REM ./C.cell (11c1c37f851c82e70ff6c80c92926a4b)
REM
REM compiler GCC version 9.2.1 20190827 (Red Hat 9.2.1-1)
REM options -cpp -mtune=generic -march=x86-64 -g -O0 -fpre-include=/usr/include/finclude/math-vector-fortran.h
REM seed 966368458 -1335109262 1695691995 1985185470 -495579348 -955924758 -776380456 447543067 -291351965 -286723374 -1809305837 887440577 1808841315 762552776 -806845757 1571410359 161633554 881025508 -991999972 -546915454 1436934102 387432754 1794576754 1111691772 1359241942 249650932 -856001938 1750204194 1578748234 650102464 -298023205 1989655360 1419266367
REM
CELL 1.54180   50.00000   50.00000   50.00000   90.00000   90.00000   90.00000
LATT -1
SFAC C  
C      1  0.4228900000000  0.4743190000000  0.4927550000000 1.0
C      1  0.4439900000000  0.5319180000000  0.5190090000000 1.0
C      1  0.4662620000000  0.5467500000000  0.5048770000000 1.0
C      1  0.4573320000000  0.5289220000000  0.4357150000000 1.0
C      1  0.4948810000000  0.5197290000000  0.5375800000000 1.0
C      1  0.5355960000000  0.5379840000000  0.5108400000000 1.0
C      1  0.4717640000000  0.4529850000000  0.5521840000000 1.0
C      1  0.5834450000000  0.4717460000000  0.5221390000000 1.0
C      1  0.4191600000000  0.5233580000000  0.5024270000000 1.0
C      1  0.4848670000000  0.5674050000000  0.5199740000000 1.0
C      1  0.5619730000000  0.5513170000000  0.4746230000000 1.0
C      1  0.5286290000000  0.5514610000000  0.5378990000000 1.0
C      1  0.5742030000000  0.5143700000000  0.5008640000000 1.0
C      1  0.4894520000000  0.5645020000000  0.4678170000000 1.0
C      1  0.4945760000000  0.4681520000000  0.5171680000000 1.0
C      1  0.4535880000000  0.4664860000000  0.4900150000000 1.0
C      1  0.5301470000000  0.4258990000000  0.5149930000000 1.0
C      1  0.4803850000000  0.4316470000000  0.4770110000000 1.0
C      1  0.5125720000000  0.5434980000000  0.4912480000000 1.0
C      1  0.5035130000000  0.5723410000000  0.4960080000000 1.0
C      1  0.5412500000000  0.5414020000000  0.5608250000000 1.0
C      1  0.4828480000000  0.5032650000000  0.4861930000000 1.0
C      1  0.5208490000000  0.4992140000000  0.4423740000000 1.0
C      1  0.4497680000000  0.5006800000000  0.5249460000000 1.0
C      1  0.4710950000000  0.4854570000000  0.5059380000000 1.0
C      1  0.5663660000000  0.5030720000000  0.4727410000000 1.0
C      1  0.5235410000000  0.4717530000000  0.4428240000000 1.0
C      1  0.5685320000000  0.5062690000000  0.5496150000000 1.0
C      1  0.5214000000000  0.5038690000000  0.5377160000000 1.0
C      1  0.4241680000000  0.4896200000000  0.4660910000000 1.0
C      1  0.5023300000000  0.4382490000000  0.4613470000000 1.0
C      1  0.5515240000000  0.4390610000000  0.5023250000000 1.0
C      1  0.5465560000000  0.4879580000000  0.4930970000000 1.0
C      1  0.4851880000000  0.5271210000000  0.4332700000000 1.0
C      1  0.5003860000000  0.4542540000000  0.4363710000000 1.0
C      1  0.5045300000000  0.4247150000000  0.5236480000000 1.0
C      1  0.4204130000000  0.4946060000000  0.5143130000000 1.0
C      1  0.5266070000000  0.4573700000000  0.4703390000000 1.0
C      1  0.5826330000000  0.4994630000000  0.5265750000000 1.0
C      1  0.4464700000000  0.5364670000000  0.4609270000000 1.0
C      1  0.4992130000000  0.5509030000000  0.5414940000000 1.0
C      1  0.4641880000000  0.4391050000000  0.4981010000000 1.0
C      1  0.5538700000000  0.5279070000000  0.4605340000000 1.0
C      1  0.4614590000000  0.5559650000000  0.4767700000000 1.0
C      1  0.5253790000000  0.5237260000000  0.4545470000000 1.0
C      1  0.5427780000000  0.5139150000000  0.5569280000000 1.0
C      1  0.4911750000000  0.4742720000000  0.5610260000000 1.0
C      1  0.5317590000000  0.5082690000000  0.5109570000000 1.0
C      1  0.5632870000000  0.5426700000000  0.5012090000000 1.0
C      1  0.5579410000000  0.4660630000000  0.5113910000000 1.0
C      1  0.4467580000000  0.4649300000000  0.5567620000000 1.0
C      1  0.4786200000000  0.5018320000000  0.5593600000000 1.0
C      1  0.4249070000000  0.5195370000000  0.4731170000000 1.0
C      1  0.5122010000000  0.4758590000000  0.5404290000000 1.0
C      1  0.5498030000000  0.4421440000000  0.4746610000000 1.0
C      1  0.4514860000000  0.4926210000000  0.5531490000000 1.0
C      1  0.4818470000000  0.4425320000000  0.5234210000000 1.0
C      1  0.4721590000000  0.5009510000000  0.4583080000000 1.0
C      1  0.4523460000000  0.4784570000000  0.4596880000000 1.0
C      1  0.5037300000000  0.5431850000000  0.4485020000000 1.0
C      1  0.4894150000000  0.5265020000000  0.5030300000000 1.0
END
