TITL C-950524-1808-290 -1.51886786183669e-08 125000 -782.267165881036 0 0 126 (C1) n - 1
REM
REM in /home/bkarasulu/work/CARBON/AIRSS/Generating-Clusters/EDIP-Nigel-Params/with-SteepDescent/Only-C1/SD-CG/HFTN-CG
REM
REM
REM
REM
REM
REM ./C.cell (11c1c37f851c82e70ff6c80c92926a4b)
REM
REM compiler GCC version 9.2.1 20190827 (Red Hat 9.2.1-1)
REM options -cpp -mtune=generic -march=x86-64 -g -O0 -fpre-include=/usr/include/finclude/math-vector-fortran.h
REM seed -1569221361 -432102986 1396090111 868887639 1436779064 -1252058384 -1759686299 -1049310016 1099216777 1977623602 -1532585979 -2050849401 2005036912 -334781738 -214342549 -1411323626 871055721 -119828432 829900659 313073552 -730714413 1653300108 1104071087 87980088 -424170223 -371597024 970193703 135148832 55420154 1454086822 1419096761 -564349826 -912497183
REM
CELL 1.54180   50.00000   50.00000   50.00000   90.00000   90.00000   90.00000
LATT -1
SFAC C  
C      1  0.5587410000000  0.4894640000000  0.4437400000000 1.0
C      1  0.5463180000000  0.5252730000000  0.4209530000000 1.0
C      1  0.4846990000000  0.5882550000000  0.4653250000000 1.0
C      1  0.4434320000000  0.4385390000000  0.4719650000000 1.0
C      1  0.4721750000000  0.4068540000000  0.4991350000000 1.0
C      1  0.5591470000000  0.4136540000000  0.5168380000000 1.0
C      1  0.5746220000000  0.5046820000000  0.5127920000000 1.0
C      1  0.4399650000000  0.5692770000000  0.4509200000000 1.0
C      1  0.5297740000000  0.5392110000000  0.4638610000000 1.0
C      1  0.5127560000000  0.5886650000000  0.4600090000000 1.0
C      1  0.5417630000000  0.4700710000000  0.5092620000000 1.0
C      1  0.4699810000000  0.4340290000000  0.5600200000000 1.0
C      1  0.5692940000000  0.5634890000000  0.5221310000000 1.0
C      1  0.4964160000000  0.5764080000000  0.5701860000000 1.0
C      1  0.4544060000000  0.5234410000000  0.4652770000000 1.0
C      1  0.4777350000000  0.5563840000000  0.4271920000000 1.0
C      1  0.4376510000000  0.5709930000000  0.4804030000000 1.0
C      1  0.4635230000000  0.5020860000000  0.4928410000000 1.0
C      1  0.4794710000000  0.5514300000000  0.5013470000000 1.0
C      1  0.4915290000000  0.4943070000000  0.4877390000000 1.0
C      1  0.4194750000000  0.4768420000000  0.5097340000000 1.0
C      1  0.4371170000000  0.4675800000000  0.4681950000000 1.0
C      1  0.5487790000000  0.4392720000000  0.5699790000000 1.0
C      1  0.5209900000000  0.5310250000000  0.4360900000000 1.0
C      1  0.5389200000000  0.5134410000000  0.4792920000000 1.0
C      1  0.4974820000000  0.4201040000000  0.5076160000000 1.0
C      1  0.4490880000000  0.4154880000000  0.5156030000000 1.0
C      1  0.4104300000000  0.4761790000000  0.4640430000000 1.0
C      1  0.4754680000000  0.4286890000000  0.4261910000000 1.0
C      1  0.5053910000000  0.4620770000000  0.5788410000000 1.0
C      1  0.4310610000000  0.5380620000000  0.5141290000000 1.0
C      1  0.4788840000000  0.4535060000000  0.4668310000000 1.0
C      1  0.4374150000000  0.5425830000000  0.5430930000000 1.0
C      1  0.4540540000000  0.4778470000000  0.5831560000000 1.0
C      1  0.4238020000000  0.4474210000000  0.5424980000000 1.0
C      1  0.4573710000000  0.5360470000000  0.4187220000000 1.0
C      1  0.5214370000000  0.5857580000000  0.5117120000000 1.0
C      1  0.5478280000000  0.5696810000000  0.5636370000000 1.0
C      1  0.4839610000000  0.4277580000000  0.4545710000000 1.0
C      1  0.4457530000000  0.5952620000000  0.4925640000000 1.0
C      1  0.4009040000000  0.4863130000000  0.4884390000000 1.0
C      1  0.5567690000000  0.5626150000000  0.4486260000000 1.0
C      1  0.5084200000000  0.5433140000000  0.4918830000000 1.0
C      1  0.5183330000000  0.5787250000000  0.4342000000000 1.0
C      1  0.5316230000000  0.5872970000000  0.4825800000000 1.0
C      1  0.4737520000000  0.5943490000000  0.4913380000000 1.0
C      1  0.4810230000000  0.4495700000000  0.4090010000000 1.0
C      1  0.5666440000000  0.5183750000000  0.5364580000000 1.0
C      1  0.5133400000000  0.4225450000000  0.4587720000000 1.0
C      1  0.4218580000000  0.4925380000000  0.4135130000000 1.0
C      1  0.5369400000000  0.4372550000000  0.4488930000000 1.0
C      1  0.4222210000000  0.4770450000000  0.5445100000000 1.0
C      1  0.5374690000000  0.4931310000000  0.4048960000000 1.0
C      1  0.4750200000000  0.5555450000000  0.5747250000000 1.0
C      1  0.4475690000000  0.4863150000000  0.4135200000000 1.0
C      1  0.4775790000000  0.5065210000000  0.4476900000000 1.0
C      1  0.4742100000000  0.4562040000000  0.5797810000000 1.0
C      1  0.4646340000000  0.4616770000000  0.5199210000000 1.0
C      1  0.5545880000000  0.4733390000000  0.4185180000000 1.0
C      1  0.4680670000000  0.5076260000000  0.4186330000000 1.0
C      1  0.4051830000000  0.5311940000000  0.5067570000000 1.0
C      1  0.5079930000000  0.5031580000000  0.4415560000000 1.0
C      1  0.5213030000000  0.5612750000000  0.5719590000000 1.0
C      1  0.4127190000000  0.4463710000000  0.5140240000000 1.0
C      1  0.5678860000000  0.5489390000000  0.5684720000000 1.0
C      1  0.4673190000000  0.5785060000000  0.4434370000000 1.0
C      1  0.5890780000000  0.5110330000000  0.4682040000000 1.0
C      1  0.5354070000000  0.5087260000000  0.5767850000000 1.0
C      1  0.4375940000000  0.5191280000000  0.5591830000000 1.0
C      1  0.5777040000000  0.5441050000000  0.5417460000000 1.0
C      1  0.5408080000000  0.4496120000000  0.4243840000000 1.0
C      1  0.5893800000000  0.5278250000000  0.4458140000000 1.0
C      1  0.5652950000000  0.5517870000000  0.4956300000000 1.0
C      1  0.5833390000000  0.4824740000000  0.4602770000000 1.0
C      1  0.5165320000000  0.5085420000000  0.5296550000000 1.0
C      1  0.5481370000000  0.4179370000000  0.4906710000000 1.0
C      1  0.4924090000000  0.4513730000000  0.5127520000000 1.0
C      1  0.5293560000000  0.4655250000000  0.4813430000000 1.0
C      1  0.4508950000000  0.5459910000000  0.4911430000000 1.0
C      1  0.5765620000000  0.4630300000000  0.4826020000000 1.0
C      1  0.5067710000000  0.5549730000000  0.4239120000000 1.0
C      1  0.4992460000000  0.4886980000000  0.5445140000000 1.0
C      1  0.5786330000000  0.4638630000000  0.5392170000000 1.0
C      1  0.5714910000000  0.4355450000000  0.5461620000000 1.0
C      1  0.4761760000000  0.5854050000000  0.5402930000000 1.0
C      1  0.5264470000000  0.5544660000000  0.5160510000000 1.0
C      1  0.5128130000000  0.5118370000000  0.4992260000000 1.0
C      1  0.5070900000000  0.4602100000000  0.5398060000000 1.0
C      1  0.5638100000000  0.5102090000000  0.5657310000000 1.0
C      1  0.4805630000000  0.5385040000000  0.5279520000000 1.0
C      1  0.4897830000000  0.5043280000000  0.3990990000000 1.0
C      1  0.5542900000000  0.4657660000000  0.5822300000000 1.0
C      1  0.4552780000000  0.4586610000000  0.4132790000000 1.0
C      1  0.5356930000000  0.4545730000000  0.5346410000000 1.0
C      1  0.4644970000000  0.5566600000000  0.5461970000000 1.0
C      1  0.5337720000000  0.4897890000000  0.4613760000000 1.0
C      1  0.4675170000000  0.4085760000000  0.4702750000000 1.0
C      1  0.4454600000000  0.4909400000000  0.5572460000000 1.0
C      1  0.5568340000000  0.4395450000000  0.4719190000000 1.0
C      1  0.5158540000000  0.5324000000000  0.5759770000000 1.0
C      1  0.4694730000000  0.4884180000000  0.5372890000000 1.0
C      1  0.4292620000000  0.4274840000000  0.4971750000000 1.0
C      1  0.4907950000000  0.5917720000000  0.5153890000000 1.0
C      1  0.5563070000000  0.5717740000000  0.4759160000000 1.0
C      1  0.5087580000000  0.4096670000000  0.5327980000000 1.0
C      1  0.4872310000000  0.5301260000000  0.5830160000000 1.0
C      1  0.5178280000000  0.4354300000000  0.5738210000000 1.0
C      1  0.5703800000000  0.4754080000000  0.5111450000000 1.0
C      1  0.5103950000000  0.5366160000000  0.5374190000000 1.0
C      1  0.4972540000000  0.4211210000000  0.5574520000000 1.0
C      1  0.5683080000000  0.5412340000000  0.4330340000000 1.0
C      1  0.4391880000000  0.5399770000000  0.4423240000000 1.0
C      1  0.4603670000000  0.4952150000000  0.6038700000000 1.0
C      1  0.4768940000000  0.5160800000000  0.6045170000000 1.0
C      1  0.5096890000000  0.4919520000000  0.4142750000000 1.0
C      1  0.5727130000000  0.4804140000000  0.5644920000000 1.0
C      1  0.5293060000000  0.4813690000000  0.5867620000000 1.0
C      1  0.4519270000000  0.4385260000000  0.5359110000000 1.0
C      1  0.5487550000000  0.5802680000000  0.5353420000000 1.0
C      1  0.4982240000000  0.4655430000000  0.4862380000000 1.0
C      1  0.5362650000000  0.4224420000000  0.5330070000000 1.0
C      1  0.4470420000000  0.4757710000000  0.4959020000000 1.0
C      1  0.5189690000000  0.4152330000000  0.4863510000000 1.0
C      1  0.4661690000000  0.5122050000000  0.5206230000000 1.0
C      1  0.5687700000000  0.5203040000000  0.4888110000000 1.0
C      1  0.3937470000000  0.5127380000000  0.4912910000000 1.0
END
