TITL C-950527-2551-292 -1.15545736597751e-06 125000 -1129.57142364517 0 0 180 (C1) n - 1
REM
REM in /home/bkarasulu/work/CARBON/AIRSS/Generating-Clusters/EDIP-Nigel-Params/with-SteepDescent/Only-C1/SD-CG/HFTN-CG
REM
REM
REM
REM
REM
REM ./C.cell (11c1c37f851c82e70ff6c80c92926a4b)
REM
REM compiler GCC version 9.2.1 20190827 (Red Hat 9.2.1-1)
REM options -cpp -mtune=generic -march=x86-64 -g -O0 -fpre-include=/usr/include/finclude/math-vector-fortran.h
REM seed -1491456020 -1767790424 712411542 -223802445 1624911049 -440287642 186586555 -1691790299 -1825644062 -1319142050 1017106722 -946413635 -1826273733 1262437685 -663741592 -600064348 1358871232 449510551 -2073179142 -272573498 -1143406758 -253976399 1744057255 -1627228285 -1547736811 977269514 1744786916 -1128717044 -877958271 -878343044 69339203 -1263895074 -85753894
REM
CELL 1.54180   50.00000   50.00000   50.00000   90.00000   90.00000   90.00000
LATT -1
SFAC C  
C      1  0.5657990000000  0.4200060000000  0.5101800000000 1.0
C      1  0.5352560000000  0.6093120000000  0.5195450000000 1.0
C      1  0.4255600000000  0.4322660000000  0.4721280000000 1.0
C      1  0.4944170000000  0.5618340000000  0.5758980000000 1.0
C      1  0.5637520000000  0.5554770000000  0.4533920000000 1.0
C      1  0.5149900000000  0.5096370000000  0.4379770000000 1.0
C      1  0.4660400000000  0.5304900000000  0.3983550000000 1.0
C      1  0.3845600000000  0.5108010000000  0.4619240000000 1.0
C      1  0.4882890000000  0.4546220000000  0.4460290000000 1.0
C      1  0.4440600000000  0.4044810000000  0.5058530000000 1.0
C      1  0.5342620000000  0.4795020000000  0.5877910000000 1.0
C      1  0.4362250000000  0.4981980000000  0.5794680000000 1.0
C      1  0.5170010000000  0.5664270000000  0.4028240000000 1.0
C      1  0.4855990000000  0.4642140000000  0.5675450000000 1.0
C      1  0.5579070000000  0.4858620000000  0.4927870000000 1.0
C      1  0.5440070000000  0.4417490000000  0.5117150000000 1.0
C      1  0.5731590000000  0.4588150000000  0.5757900000000 1.0
C      1  0.5216350000000  0.5491320000000  0.6119780000000 1.0
C      1  0.4367150000000  0.5086870000000  0.4958700000000 1.0
C      1  0.5290780000000  0.4500990000000  0.5888640000000 1.0
C      1  0.5181340000000  0.5614410000000  0.5181430000000 1.0
C      1  0.5084680000000  0.5179960000000  0.5730350000000 1.0
C      1  0.4961180000000  0.4971820000000  0.4145630000000 1.0
C      1  0.5644250000000  0.4828030000000  0.5892450000000 1.0
C      1  0.5532270000000  0.5521620000000  0.4243290000000 1.0
C      1  0.4475170000000  0.4878920000000  0.4123650000000 1.0
C      1  0.4653260000000  0.3979390000000  0.4867340000000 1.0
C      1  0.4625740000000  0.4473250000000  0.5564690000000 1.0
C      1  0.4627080000000  0.4612600000000  0.4565940000000 1.0
C      1  0.5493030000000  0.5938070000000  0.5420660000000 1.0
C      1  0.4375790000000  0.5825310000000  0.5051290000000 1.0
C      1  0.5245320000000  0.5300370000000  0.4764060000000 1.0
C      1  0.4565900000000  0.5180610000000  0.5724780000000 1.0
C      1  0.4421590000000  0.4647100000000  0.4311710000000 1.0
C      1  0.5750360000000  0.4211920000000  0.5375330000000 1.0
C      1  0.5072710000000  0.4519020000000  0.4656160000000 1.0
C      1  0.4933590000000  0.4364070000000  0.5196760000000 1.0
C      1  0.3869760000000  0.4882530000000  0.5292150000000 1.0
C      1  0.5485800000000  0.4153130000000  0.4563240000000 1.0
C      1  0.5824900000000  0.5093930000000  0.4493390000000 1.0
C      1  0.4780110000000  0.4808520000000  0.5936690000000 1.0
C      1  0.4497490000000  0.4146280000000  0.4380870000000 1.0
C      1  0.3958640000000  0.5161060000000  0.5223760000000 1.0
C      1  0.4157980000000  0.4417310000000  0.5697050000000 1.0
C      1  0.5126810000000  0.5165700000000  0.5003150000000 1.0
C      1  0.5726060000000  0.4986520000000  0.4192990000000 1.0
C      1  0.4783720000000  0.4242630000000  0.5438450000000 1.0
C      1  0.4062350000000  0.4356580000000  0.5199130000000 1.0
C      1  0.4775430000000  0.5900470000000  0.4362780000000 1.0
C      1  0.5060140000000  0.4435540000000  0.5731420000000 1.0
C      1  0.4531190000000  0.5544130000000  0.4038500000000 1.0
C      1  0.5317970000000  0.5173900000000  0.3943430000000 1.0
C      1  0.5071460000000  0.5366250000000  0.4538240000000 1.0
C      1  0.5431520000000  0.5797900000000  0.4140350000000 1.0
C      1  0.5331280000000  0.4513320000000  0.4297580000000 1.0
C      1  0.4214760000000  0.4750350000000  0.4937250000000 1.0
C      1  0.4770060000000  0.5075980000000  0.5413310000000 1.0
C      1  0.4246430000000  0.5027810000000  0.4064090000000 1.0
C      1  0.6019560000000  0.5427260000000  0.4807360000000 1.0
C      1  0.5520970000000  0.4649260000000  0.4470080000000 1.0
C      1  0.5253820000000  0.4094850000000  0.5449260000000 1.0
C      1  0.5485250000000  0.5460820000000  0.4805910000000 1.0
C      1  0.5758980000000  0.4704590000000  0.4275270000000 1.0
C      1  0.4978310000000  0.5292750000000  0.5460610000000 1.0
C      1  0.5157770000000  0.4005880000000  0.4960550000000 1.0
C      1  0.6193470000000  0.5227050000000  0.5232260000000 1.0
C      1  0.5565760000000  0.5266250000000  0.5849120000000 1.0
C      1  0.5593480000000  0.5046170000000  0.4694190000000 1.0
C      1  0.5852520000000  0.4307270000000  0.4921110000000 1.0
C      1  0.4747990000000  0.6119890000000  0.4979420000000 1.0
C      1  0.4917340000000  0.5754430000000  0.4151360000000 1.0
C      1  0.4357620000000  0.5558290000000  0.5164090000000 1.0
C      1  0.4942420000000  0.5876930000000  0.4599610000000 1.0
C      1  0.5507930000000  0.4223970000000  0.5546210000000 1.0
C      1  0.5386060000000  0.5675960000000  0.5944840000000 1.0
C      1  0.4463920000000  0.5603000000000  0.5649420000000 1.0
C      1  0.4872030000000  0.5309140000000  0.3801490000000 1.0
C      1  0.5630950000000  0.5179420000000  0.5268230000000 1.0
C      1  0.3827520000000  0.5313030000000  0.5022110000000 1.0
C      1  0.4118540000000  0.4584230000000  0.4698670000000 1.0
C      1  0.6136380000000  0.5213630000000  0.4955610000000 1.0
C      1  0.4459990000000  0.5015750000000  0.4675820000000 1.0
C      1  0.4709080000000  0.4089500000000  0.4592800000000 1.0
C      1  0.5208160000000  0.5715910000000  0.5710380000000 1.0
C      1  0.4061590000000  0.5001240000000  0.4478240000000 1.0
C      1  0.5902870000000  0.4468630000000  0.5363230000000 1.0
C      1  0.5040480000000  0.6016560000000  0.5312840000000 1.0
C      1  0.5965800000000  0.4531480000000  0.5089060000000 1.0
C      1  0.4570760000000  0.5221960000000  0.4493260000000 1.0
C      1  0.5299330000000  0.4673790000000  0.4053970000000 1.0
C      1  0.4687730000000  0.4851390000000  0.4713450000000 1.0
C      1  0.5146390000000  0.5695590000000  0.4459260000000 1.0
C      1  0.4025450000000  0.4805330000000  0.5531700000000 1.0
C      1  0.4866050000000  0.5626140000000  0.5082430000000 1.0
C      1  0.4673020000000  0.5088040000000  0.4194670000000 1.0
C      1  0.4472740000000  0.4735450000000  0.5941340000000 1.0
C      1  0.5763870000000  0.5061500000000  0.5761210000000 1.0
C      1  0.4443020000000  0.5769340000000  0.4738890000000 1.0
C      1  0.4652720000000  0.5083760000000  0.5114640000000 1.0
C      1  0.5277250000000  0.5386760000000  0.4146500000000 1.0
C      1  0.4483930000000  0.4594280000000  0.5335220000000 1.0
C      1  0.5997480000000  0.4882520000000  0.4606010000000 1.0
C      1  0.4199210000000  0.4191980000000  0.4983670000000 1.0
C      1  0.5669420000000  0.6008210000000  0.4799590000000 1.0
C      1  0.4998190000000  0.6206700000000  0.5104020000000 1.0
C      1  0.6131980000000  0.4779950000000  0.5089740000000 1.0
C      1  0.4088530000000  0.5056430000000  0.5683390000000 1.0
C      1  0.4796210000000  0.5344630000000  0.4655310000000 1.0
C      1  0.4236310000000  0.4156170000000  0.4484200000000 1.0
C      1  0.5420340000000  0.4961520000000  0.5163750000000 1.0
C      1  0.4834920000000  0.5294900000000  0.4959790000000 1.0
C      1  0.6109250000000  0.4972280000000  0.5325320000000 1.0
C      1  0.5733790000000  0.4318510000000  0.4651960000000 1.0
C      1  0.5042960000000  0.5103540000000  0.3885450000000 1.0
C      1  0.6004890000000  0.4648800000000  0.4426080000000 1.0
C      1  0.5458140000000  0.4676960000000  0.5313100000000 1.0
C      1  0.4090750000000  0.5272230000000  0.5466080000000 1.0
C      1  0.4239530000000  0.4012680000000  0.5474640000000 1.0
C      1  0.5372500000000  0.5675660000000  0.4967750000000 1.0
C      1  0.4493640000000  0.5826800000000  0.4433350000000 1.0
C      1  0.4173520000000  0.5492210000000  0.4701620000000 1.0
C      1  0.4488680000000  0.4602880000000  0.5033870000000 1.0
C      1  0.4285600000000  0.4762210000000  0.5417140000000 1.0
C      1  0.4792980000000  0.5833160000000  0.5317880000000 1.0
C      1  0.5210030000000  0.4926480000000  0.5624000000000 1.0
C      1  0.4543360000000  0.4397310000000  0.4775490000000 1.0
C      1  0.5441840000000  0.5948550000000  0.4946530000000 1.0
C      1  0.4481380000000  0.5428820000000  0.5875460000000 1.0
C      1  0.4297440000000  0.5487440000000  0.5436890000000 1.0
C      1  0.4769440000000  0.5309030000000  0.6096540000000 1.0
C      1  0.4140200000000  0.5183870000000  0.4272390000000 1.0
C      1  0.5895730000000  0.5390790000000  0.4549780000000 1.0
C      1  0.5180070000000  0.5322030000000  0.5247300000000 1.0
C      1  0.4996100000000  0.4039680000000  0.4503100000000 1.0
C      1  0.4087260000000  0.4247250000000  0.5479010000000 1.0
C      1  0.4727340000000  0.5714970000000  0.5589700000000 1.0
C      1  0.5454780000000  0.4601000000000  0.4843050000000 1.0
C      1  0.4143190000000  0.4715070000000  0.4442800000000 1.0
C      1  0.5396350000000  0.5908990000000  0.4410260000000 1.0
C      1  0.4770220000000  0.5836910000000  0.4841070000000 1.0
C      1  0.5828690000000  0.4979730000000  0.5455680000000 1.0
C      1  0.5192340000000  0.4214700000000  0.5174100000000 1.0
C      1  0.5555050000000  0.5444810000000  0.5443960000000 1.0
C      1  0.4999480000000  0.4667270000000  0.4048710000000 1.0
C      1  0.4967010000000  0.4826990000000  0.5454940000000 1.0
C      1  0.4564830000000  0.6004870000000  0.5195210000000 1.0
C      1  0.4812840000000  0.5110690000000  0.5876270000000 1.0
C      1  0.4970950000000  0.4798810000000  0.6158240000000 1.0
C      1  0.4882480000000  0.4418500000000  0.4201120000000 1.0
C      1  0.4977050000000  0.4663210000000  0.5130550000000 1.0
C      1  0.5158500000000  0.4662650000000  0.4876370000000 1.0
C      1  0.5723470000000  0.4680660000000  0.5469080000000 1.0
C      1  0.5440500000000  0.4947870000000  0.4083750000000 1.0
C      1  0.5755710000000  0.5900390000000  0.5511130000000 1.0
C      1  0.5287460000000  0.5226770000000  0.5982800000000 1.0
C      1  0.4460350000000  0.3959780000000  0.5325050000000 1.0
C      1  0.5961490000000  0.4379240000000  0.4496700000000 1.0
C      1  0.4719070000000  0.4798440000000  0.5002410000000 1.0
C      1  0.5365720000000  0.4225190000000  0.4289370000000 1.0
C      1  0.4931780000000  0.5543280000000  0.6044940000000 1.0
C      1  0.6152870000000  0.4944310000000  0.4846670000000 1.0
C      1  0.4421810000000  0.4467690000000  0.5800090000000 1.0
C      1  0.3978730000000  0.4655690000000  0.5113680000000 1.0
C      1  0.4569850000000  0.4369970000000  0.4196560000000 1.0
C      1  0.5375080000000  0.4929050000000  0.4520430000000 1.0
C      1  0.5070090000000  0.4157740000000  0.4243860000000 1.0
C      1  0.4259520000000  0.5366990000000  0.4968810000000 1.0
C      1  0.5017290000000  0.4169190000000  0.5617040000000 1.0
C      1  0.5538260000000  0.4365590000000  0.5803580000000 1.0
C      1  0.5762080000000  0.5623560000000  0.5584710000000 1.0
C      1  0.5648890000000  0.5863030000000  0.4560530000000 1.0
C      1  0.4383010000000  0.5618430000000  0.4260490000000 1.0
C      1  0.5215570000000  0.4100650000000  0.4689980000000 1.0
C      1  0.4898740000000  0.3896280000000  0.4972600000000 1.0
C      1  0.3880560000000  0.5355790000000  0.4746600000000 1.0
C      1  0.5701160000000  0.5281010000000  0.4962200000000 1.0
C      1  0.4310420000000  0.5386390000000  0.4429180000000 1.0
C      1  0.5343970000000  0.5687330000000  0.5447380000000 1.0
C      1  0.5654320000000  0.5547750000000  0.5862010000000 1.0
C      1  0.5220380000000  0.4931660000000  0.6117980000000 1.0
END
