TITL C-950536-5891-487 -9.78533181136571e-07 125000 -381.923555968994 0 0 63 (C1) n - 1
REM
REM in /home/bkarasulu/work/CARBON/AIRSS/Generating-Clusters/EDIP-Nigel-Params/with-SteepDescent/Only-C1/SD-CG/HFTN-CG
REM
REM
REM
REM
REM
REM ./C.cell (11c1c37f851c82e70ff6c80c92926a4b)
REM
REM compiler GCC version 9.2.1 20190827 (Red Hat 9.2.1-1)
REM options -cpp -mtune=generic -march=x86-64 -g -O0 -fpre-include=/usr/include/finclude/math-vector-fortran.h
REM seed -501786146 -1577972185 -2110599204 -12289935 373743756 150049147 856626475 -758165053 145836398 -2056329469 -189935621 -253725478 -1784878676 483174995 459834631 -467027875 1359586649 2034531733 891159161 525645055 1075592720 -711263432 711427620 1961482950 1165020378 1160986674 1913988967 1446627848 68602882 4317681 1307875868 -575947981 1936029756
REM
CELL 1.54180   50.00000   50.00000   50.00000   90.00000   90.00000   90.00000
LATT -1
SFAC C  
C      1  0.5678090000000  0.5335460000000  0.5267560000000 1.0
C      1  0.5078230000000  0.4882870000000  0.5667900000000 1.0
C      1  0.5189620000000  0.5707380000000  0.4920300000000 1.0
C      1  0.5220800000000  0.5071980000000  0.5836330000000 1.0
C      1  0.4425040000000  0.5023560000000  0.5344430000000 1.0
C      1  0.4801070000000  0.4246790000000  0.5096510000000 1.0
C      1  0.4891320000000  0.4383200000000  0.5361130000000 1.0
C      1  0.4408440000000  0.5521290000000  0.5307770000000 1.0
C      1  0.4386200000000  0.4708100000000  0.4967940000000 1.0
C      1  0.4777600000000  0.4549380000000  0.4389110000000 1.0
C      1  0.4980710000000  0.4829710000000  0.5147920000000 1.0
C      1  0.5412250000000  0.4714240000000  0.4361650000000 1.0
C      1  0.5130590000000  0.4626280000000  0.4984390000000 1.0
C      1  0.5135940000000  0.5497460000000  0.4726270000000 1.0
C      1  0.5642460000000  0.5045390000000  0.5525200000000 1.0
C      1  0.5496330000000  0.5289420000000  0.5494490000000 1.0
C      1  0.5645560000000  0.5426000000000  0.5004930000000 1.0
C      1  0.5246210000000  0.5285690000000  0.5651570000000 1.0
C      1  0.5190710000000  0.5002260000000  0.5316140000000 1.0
C      1  0.4804460000000  0.4875060000000  0.4726790000000 1.0
C      1  0.4794150000000  0.5752330000000  0.5251770000000 1.0
C      1  0.5296370000000  0.4431130000000  0.5114410000000 1.0
C      1  0.5104430000000  0.4613910000000  0.4688350000000 1.0
C      1  0.4916770000000  0.4399970000000  0.4603800000000 1.0
C      1  0.5226420000000  0.5557200000000  0.5158310000000 1.0
C      1  0.5017770000000  0.5615180000000  0.5350430000000 1.0
C      1  0.4506880000000  0.4783820000000  0.4704370000000 1.0
C      1  0.4333130000000  0.4973450000000  0.5070330000000 1.0
C      1  0.5370460000000  0.4549130000000  0.4580940000000 1.0
C      1  0.5600710000000  0.5304400000000  0.4753480000000 1.0
C      1  0.4604510000000  0.4829240000000  0.5487330000000 1.0
C      1  0.4550380000000  0.5625080000000  0.4868700000000 1.0
C      1  0.4856270000000  0.5030060000000  0.4968260000000 1.0
C      1  0.4741370000000  0.5266920000000  0.5608810000000 1.0
C      1  0.4726870000000  0.4297820000000  0.4803990000000 1.0
C      1  0.5271320000000  0.5243080000000  0.5117080000000 1.0
C      1  0.5536190000000  0.4542930000000  0.4832170000000 1.0
C      1  0.4960880000000  0.5310570000000  0.4336990000000 1.0
C      1  0.5643800000000  0.4816410000000  0.4901140000000 1.0
C      1  0.4638000000000  0.5482020000000  0.4644660000000 1.0
C      1  0.4553390000000  0.4544570000000  0.5126410000000 1.0
C      1  0.5209640000000  0.4887550000000  0.4274740000000 1.0
C      1  0.4514460000000  0.5288260000000  0.5420250000000 1.0
C      1  0.5469360000000  0.5054260000000  0.4840430000000 1.0
C      1  0.5393540000000  0.5417870000000  0.4570750000000 1.0
C      1  0.5192780000000  0.5023760000000  0.4686050000000 1.0
C      1  0.4752380000000  0.5103570000000  0.4359240000000 1.0
C      1  0.5226230000000  0.5176030000000  0.4404170000000 1.0
C      1  0.4904800000000  0.5534440000000  0.4530370000000 1.0
C      1  0.4358660000000  0.5048860000000  0.4689110000000 1.0
C      1  0.4760730000000  0.4658450000000  0.5299120000000 1.0
C      1  0.4997900000000  0.5409260000000  0.5556660000000 1.0
C      1  0.4503160000000  0.4544230000000  0.4512330000000 1.0
C      1  0.4471910000000  0.4302280000000  0.4669770000000 1.0
C      1  0.4565130000000  0.5209670000000  0.4565670000000 1.0
C      1  0.4782830000000  0.4975640000000  0.5666370000000 1.0
C      1  0.5064400000000  0.5227100000000  0.4884450000000 1.0
C      1  0.5467740000000  0.4844210000000  0.5388140000000 1.0
C      1  0.4549250000000  0.5689780000000  0.5138590000000 1.0
C      1  0.5627080000000  0.4716100000000  0.5171370000000 1.0
C      1  0.5195010000000  0.4413340000000  0.5390790000000 1.0
C      1  0.5289220000000  0.4651090000000  0.5558110000000 1.0
C      1  0.4912090000000  0.4833520000000  0.4353450000000 1.0
END
