TITL C-951348-1603-512 -4.53918083556617e-06 125000 -911.820594725602 0 0 147 (C1) n - 1
REM
REM in /home/bkarasulu/work/CARBON/AIRSS/Generating-Clusters/EDIP-Nigel-Params/with-SteepDescent/Only-C1/SD-CG/HFTN-CG
REM
REM
REM
REM
REM
REM ./C.cell (11c1c37f851c82e70ff6c80c92926a4b)
REM
REM compiler GCC version 9.2.1 20190827 (Red Hat 9.2.1-1)
REM options -cpp -mtune=generic -march=x86-64 -g -O0 -fpre-include=/usr/include/finclude/math-vector-fortran.h
REM seed -1963848431 1844258889 -1755384687 364860463 -1465117491 -1577620389 -789359519 1241418535 -1798981667 712653866 -245225701 -1232077859 -1501988349 -379703347 -71209079 619841081 1082572058 112488005 -933247256 1162372007 478517551 -182643052 -1331158743 1050718812 1886983398 -10136419 1137543860 800344403 1692348189 -1958459959 691836771 1337007276 -506433147
REM
CELL 1.54180   50.00000   50.00000   50.00000   90.00000   90.00000   90.00000
LATT -1
SFAC C  
C      1  0.5451070000000  0.5630900000000  0.5182940000000 1.0
C      1  0.4739800000000  0.4592530000000  0.4374140000000 1.0
C      1  0.4489840000000  0.4715080000000  0.4446690000000 1.0
C      1  0.5091320000000  0.4673650000000  0.5512230000000 1.0
C      1  0.4567060000000  0.5611430000000  0.5472350000000 1.0
C      1  0.4131210000000  0.4504430000000  0.4592830000000 1.0
C      1  0.4413120000000  0.4228680000000  0.5108490000000 1.0
C      1  0.5718570000000  0.5270930000000  0.4195170000000 1.0
C      1  0.5380840000000  0.4610570000000  0.5098330000000 1.0
C      1  0.4069220000000  0.5267430000000  0.4608340000000 1.0
C      1  0.4272220000000  0.5745030000000  0.5086890000000 1.0
C      1  0.5960360000000  0.5534090000000  0.4956650000000 1.0
C      1  0.5416290000000  0.4109740000000  0.5171590000000 1.0
C      1  0.5581970000000  0.4884240000000  0.4426360000000 1.0
C      1  0.5332050000000  0.4969940000000  0.6016890000000 1.0
C      1  0.4727030000000  0.4557290000000  0.5820750000000 1.0
C      1  0.5538730000000  0.4103840000000  0.5444570000000 1.0
C      1  0.4877770000000  0.4175410000000  0.4455030000000 1.0
C      1  0.4690120000000  0.5704300000000  0.5743280000000 1.0
C      1  0.4675510000000  0.4117230000000  0.5510690000000 1.0
C      1  0.5570440000000  0.4563190000000  0.5593730000000 1.0
C      1  0.4434300000000  0.5073980000000  0.4774970000000 1.0
C      1  0.4025350000000  0.4919130000000  0.5056710000000 1.0
C      1  0.4625080000000  0.5033830000000  0.5918870000000 1.0
C      1  0.4711240000000  0.5708260000000  0.4956830000000 1.0
C      1  0.5536300000000  0.5546640000000  0.5608060000000 1.0
C      1  0.4087360000000  0.4645710000000  0.5120280000000 1.0
C      1  0.4592960000000  0.4372490000000  0.5615280000000 1.0
C      1  0.5278610000000  0.5147060000000  0.4014830000000 1.0
C      1  0.4505470000000  0.5317220000000  0.5076600000000 1.0
C      1  0.4524840000000  0.4768620000000  0.5869800000000 1.0
C      1  0.4167110000000  0.4441930000000  0.4311950000000 1.0
C      1  0.4889050000000  0.5093530000000  0.6011850000000 1.0
C      1  0.5027220000000  0.5053330000000  0.3931100000000 1.0
C      1  0.5577890000000  0.4256240000000  0.4753180000000 1.0
C      1  0.4296480000000  0.5739100000000  0.4798810000000 1.0
C      1  0.4165140000000  0.5015330000000  0.5547540000000 1.0
C      1  0.4554940000000  0.5791400000000  0.5212670000000 1.0
C      1  0.5120690000000  0.4940210000000  0.4463760000000 1.0
C      1  0.5146730000000  0.4456160000000  0.4018890000000 1.0
C      1  0.4173300000000  0.5519530000000  0.4678840000000 1.0
C      1  0.5559890000000  0.5799710000000  0.4954880000000 1.0
C      1  0.6012160000000  0.4955340000000  0.4722600000000 1.0
C      1  0.4290670000000  0.5501880000000  0.5490920000000 1.0
C      1  0.4833110000000  0.4821550000000  0.4008590000000 1.0
C      1  0.5762850000000  0.5658010000000  0.4807000000000 1.0
C      1  0.5734670000000  0.4757960000000  0.5731110000000 1.0
C      1  0.5121150000000  0.4445200000000  0.5082620000000 1.0
C      1  0.4586090000000  0.5453410000000  0.4322210000000 1.0
C      1  0.5997840000000  0.5161660000000  0.5341470000000 1.0
C      1  0.5317600000000  0.5558240000000  0.4273700000000 1.0
C      1  0.5606590000000  0.5353760000000  0.5357610000000 1.0
C      1  0.5935930000000  0.4662690000000  0.5202810000000 1.0
C      1  0.4239530000000  0.5456810000000  0.5196930000000 1.0
C      1  0.5398900000000  0.5218270000000  0.4759960000000 1.0
C      1  0.4257770000000  0.5273650000000  0.5674060000000 1.0
C      1  0.5122780000000  0.5986250000000  0.4696760000000 1.0
C      1  0.5037890000000  0.5581900000000  0.4341570000000 1.0
C      1  0.5373130000000  0.5091530000000  0.4478410000000 1.0
C      1  0.5410490000000  0.5781360000000  0.5461360000000 1.0
C      1  0.5101030000000  0.4970730000000  0.5844040000000 1.0
C      1  0.4931090000000  0.3973540000000  0.4925500000000 1.0
C      1  0.4726810000000  0.5301920000000  0.5290320000000 1.0
C      1  0.5584460000000  0.4826400000000  0.4858670000000 1.0
C      1  0.4389010000000  0.4487830000000  0.4746420000000 1.0
C      1  0.4717640000000  0.4655720000000  0.4863090000000 1.0
C      1  0.4851190000000  0.5810310000000  0.4335120000000 1.0
C      1  0.5208920000000  0.4506730000000  0.5940790000000 1.0
C      1  0.6018780000000  0.5086490000000  0.4467480000000 1.0
C      1  0.4350640000000  0.4765180000000  0.5626770000000 1.0
C      1  0.4635760000000  0.5504530000000  0.5960500000000 1.0
C      1  0.5809850000000  0.5004310000000  0.4281600000000 1.0
C      1  0.5024790000000  0.4671390000000  0.5796270000000 1.0
C      1  0.4866600000000  0.5978020000000  0.4576720000000 1.0
C      1  0.4462520000000  0.5268760000000  0.5891100000000 1.0
C      1  0.5880130000000  0.5431440000000  0.4379970000000 1.0
C      1  0.5405170000000  0.5094390000000  0.5324390000000 1.0
C      1  0.5507510000000  0.5725680000000  0.4388910000000 1.0
C      1  0.5996360000000  0.5391420000000  0.5181920000000 1.0
C      1  0.5219180000000  0.3968290000000  0.4881960000000 1.0
C      1  0.4961140000000  0.5553230000000  0.5279830000000 1.0
C      1  0.5304470000000  0.4385800000000  0.4236360000000 1.0
C      1  0.4729300000000  0.4331970000000  0.4249050000000 1.0
C      1  0.5166590000000  0.4273650000000  0.4476820000000 1.0
C      1  0.5564960000000  0.4351670000000  0.5047060000000 1.0
C      1  0.4028820000000  0.4786740000000  0.4582290000000 1.0
C      1  0.4887030000000  0.4535350000000  0.3966060000000 1.0
C      1  0.4963290000000  0.5935220000000  0.5305410000000 1.0
C      1  0.4698080000000  0.6036350000000  0.5296230000000 1.0
C      1  0.5877950000000  0.4938780000000  0.5195090000000 1.0
C      1  0.5743250000000  0.5644210000000  0.4516700000000 1.0
C      1  0.4594610000000  0.5057500000000  0.4025960000000 1.0
C      1  0.5500450000000  0.5152780000000  0.5899010000000 1.0
C      1  0.5800120000000  0.4640310000000  0.4723560000000 1.0
C      1  0.4580290000000  0.5732250000000  0.4283860000000 1.0
C      1  0.4142110000000  0.5178150000000  0.4327900000000 1.0
C      1  0.5143820000000  0.4213440000000  0.5279990000000 1.0
C      1  0.5193180000000  0.5517630000000  0.5088420000000 1.0
C      1  0.5729570000000  0.4334260000000  0.5462070000000 1.0
C      1  0.4578600000000  0.4816460000000  0.5431220000000 1.0
C      1  0.5682650000000  0.4441750000000  0.4557540000000 1.0
C      1  0.4445010000000  0.5178110000000  0.4279080000000 1.0
C      1  0.4443190000000  0.4900120000000  0.5199380000000 1.0
C      1  0.5319760000000  0.4168480000000  0.5621080000000 1.0
C      1  0.5364990000000  0.5934050000000  0.4803580000000 1.0
C      1  0.4878240000000  0.5118970000000  0.4514280000000 1.0
C      1  0.5415260000000  0.5277590000000  0.4232570000000 1.0
C      1  0.5809740000000  0.5028100000000  0.4926450000000 1.0
C      1  0.4914470000000  0.4014050000000  0.5224360000000 1.0
C      1  0.4318860000000  0.4472150000000  0.5533100000000 1.0
C      1  0.4919470000000  0.5251430000000  0.4797310000000 1.0
C      1  0.4483310000000  0.4218330000000  0.4821610000000 1.0
C      1  0.5338810000000  0.4114070000000  0.4662640000000 1.0
C      1  0.4122550000000  0.5004380000000  0.4774040000000 1.0
C      1  0.5827190000000  0.4404840000000  0.5196140000000 1.0
C      1  0.4274970000000  0.4696000000000  0.4224340000000 1.0
C      1  0.4862000000000  0.4762010000000  0.5345740000000 1.0
C      1  0.4925090000000  0.5050920000000  0.5278540000000 1.0
C      1  0.4562930000000  0.5009780000000  0.4506010000000 1.0
C      1  0.5879570000000  0.5215290000000  0.5595380000000 1.0
C      1  0.4863010000000  0.5351260000000  0.4288980000000 1.0
C      1  0.5088210000000  0.5413680000000  0.5506140000000 1.0
C      1  0.4539830000000  0.4033330000000  0.5276940000000 1.0
C      1  0.4197290000000  0.5070240000000  0.5247670000000 1.0
C      1  0.4244300000000  0.4437190000000  0.5244500000000 1.0
C      1  0.4894350000000  0.4588290000000  0.4617700000000 1.0
C      1  0.5389650000000  0.5414220000000  0.5826930000000 1.0
C      1  0.5373200000000  0.4715640000000  0.5397820000000 1.0
C      1  0.5015550000000  0.5036160000000  0.4998250000000 1.0
C      1  0.5716470000000  0.5036930000000  0.5747270000000 1.0
C      1  0.5174920000000  0.5407970000000  0.4817030000000 1.0
C      1  0.4827140000000  0.5259240000000  0.4000850000000 1.0
C      1  0.5318210000000  0.5037560000000  0.5013670000000 1.0
C      1  0.5183530000000  0.4660470000000  0.4562290000000 1.0
C      1  0.5130350000000  0.5870700000000  0.5531990000000 1.0
C      1  0.5484930000000  0.4586990000000  0.4386930000000 1.0
C      1  0.4864360000000  0.4580390000000  0.5109620000000 1.0
C      1  0.4058540000000  0.4891700000000  0.4303160000000 1.0
C      1  0.5143580000000  0.5130570000000  0.5492840000000 1.0
C      1  0.5129580000000  0.5540340000000  0.5928030000000 1.0
C      1  0.4592980000000  0.4907250000000  0.4954700000000 1.0
C      1  0.4642600000000  0.5896370000000  0.4748270000000 1.0
C      1  0.4761620000000  0.4135520000000  0.4738200000000 1.0
C      1  0.4902780000000  0.5388880000000  0.6055850000000 1.0
C      1  0.4990710000000  0.5755600000000  0.5768740000000 1.0
C      1  0.4675050000000  0.5431310000000  0.4868320000000 1.0
C      1  0.5400460000000  0.4394180000000  0.5776330000000 1.0
END
