TITL C-951340-9809-692 -3.73249012329288e-06 125000 -581.2781785832 0 0 96 (C1) n - 1
REM
REM in /home/bkarasulu/work/CARBON/AIRSS/Generating-Clusters/EDIP-Nigel-Params/with-SteepDescent/Only-C1/SD-CG/HFTN-CG
REM
REM
REM
REM
REM
REM ./C.cell (11c1c37f851c82e70ff6c80c92926a4b)
REM
REM compiler GCC version 9.2.1 20190827 (Red Hat 9.2.1-1)
REM options -cpp -mtune=generic -march=x86-64 -g -O0 -fpre-include=/usr/include/finclude/math-vector-fortran.h
REM seed 1269991345 -1709848317 1685165714 731653861 755281036 1169931410 1580858965 177469005 1126679785 2101682200 1716468748 1574048621 -2094824803 411163385 -187660816 1239835700 669171092 -358159281 -118526615 1121019308 1845003402 324335159 139697980 683691015 -1439298224 289399874 -2093877856 -2010452387 1786182044 1516890503 194623740 -1176345405 -697069199
REM
CELL 1.54180   50.00000   50.00000   50.00000   90.00000   90.00000   90.00000
LATT -1
SFAC C  
C      1  0.4626400000000  0.4992170000000  0.5636270000000 1.0
C      1  0.4846070000000  0.4267510000000  0.5362830000000 1.0
C      1  0.5225630000000  0.5480630000000  0.4373890000000 1.0
C      1  0.4448580000000  0.5468840000000  0.4777490000000 1.0
C      1  0.4679530000000  0.5273610000000  0.4320630000000 1.0
C      1  0.4678630000000  0.5083180000000  0.4749340000000 1.0
C      1  0.5107480000000  0.5755180000000  0.4382530000000 1.0
C      1  0.5064120000000  0.5383350000000  0.4894820000000 1.0
C      1  0.5503260000000  0.4378000000000  0.5378000000000 1.0
C      1  0.5011990000000  0.5417450000000  0.5638820000000 1.0
C      1  0.4727040000000  0.4755980000000  0.5184980000000 1.0
C      1  0.4301320000000  0.4654130000000  0.5054890000000 1.0
C      1  0.4627940000000  0.5205280000000  0.5813220000000 1.0
C      1  0.5098760000000  0.5288340000000  0.4161710000000 1.0
C      1  0.4293000000000  0.5644130000000  0.5072460000000 1.0
C      1  0.5858570000000  0.5094590000000  0.4949730000000 1.0
C      1  0.4132870000000  0.5427500000000  0.5218250000000 1.0
C      1  0.4500230000000  0.4564320000000  0.5247830000000 1.0
C      1  0.4838030000000  0.4444190000000  0.4349020000000 1.0
C      1  0.5213160000000  0.4764520000000  0.4412220000000 1.0
C      1  0.5502950000000  0.4748010000000  0.4423570000000 1.0
C      1  0.5758750000000  0.5509040000000  0.5168400000000 1.0
C      1  0.5265740000000  0.4299060000000  0.4540900000000 1.0
C      1  0.5735940000000  0.4609870000000  0.4990910000000 1.0
C      1  0.5793170000000  0.4801330000000  0.5449970000000 1.0
C      1  0.4241560000000  0.5394340000000  0.5500300000000 1.0
C      1  0.5016940000000  0.5088160000000  0.5344920000000 1.0
C      1  0.4602970000000  0.4306310000000  0.4881310000000 1.0
C      1  0.4408800000000  0.4624400000000  0.5520850000000 1.0
C      1  0.5342030000000  0.4403070000000  0.5602870000000 1.0
C      1  0.4804490000000  0.4522790000000  0.4634490000000 1.0
C      1  0.4315330000000  0.5015230000000  0.4626060000000 1.0
C      1  0.5606280000000  0.5788560000000  0.4780600000000 1.0
C      1  0.4561270000000  0.5237720000000  0.5208990000000 1.0
C      1  0.5643910000000  0.4385440000000  0.4849500000000 1.0
C      1  0.5109440000000  0.4995160000000  0.4236070000000 1.0
C      1  0.5731430000000  0.4858430000000  0.4540850000000 1.0
C      1  0.4993490000000  0.5738460000000  0.5280560000000 1.0
C      1  0.5846800000000  0.5381110000000  0.4911590000000 1.0
C      1  0.5611620000000  0.4644090000000  0.5267780000000 1.0
C      1  0.5578210000000  0.5183110000000  0.4399810000000 1.0
C      1  0.5151220000000  0.5573110000000  0.5439170000000 1.0
C      1  0.5612510000000  0.5317000000000  0.5364790000000 1.0
C      1  0.4222800000000  0.5128130000000  0.5602930000000 1.0
C      1  0.5285270000000  0.4994920000000  0.5788860000000 1.0
C      1  0.5157290000000  0.4543280000000  0.4958320000000 1.0
C      1  0.4988230000000  0.4279870000000  0.4948130000000 1.0
C      1  0.5176980000000  0.4078590000000  0.5065900000000 1.0
C      1  0.5138440000000  0.4813220000000  0.5417560000000 1.0
C      1  0.5172080000000  0.5249340000000  0.5795910000000 1.0
C      1  0.5045140000000  0.5103700000000  0.5045110000000 1.0
C      1  0.5348560000000  0.5427310000000  0.5017390000000 1.0
C      1  0.5121870000000  0.5296320000000  0.4605800000000 1.0
C      1  0.4615370000000  0.4296460000000  0.5185360000000 1.0
C      1  0.5560580000000  0.4947430000000  0.5723870000000 1.0
C      1  0.4230770000000  0.4872100000000  0.5475330000000 1.0
C      1  0.5300130000000  0.5346840000000  0.5310300000000 1.0
C      1  0.5086670000000  0.5900680000000  0.4624650000000 1.0
C      1  0.4755590000000  0.5809530000000  0.5181330000000 1.0
C      1  0.4515890000000  0.5055530000000  0.4218130000000 1.0
C      1  0.5371360000000  0.4815300000000  0.5242010000000 1.0
C      1  0.5546000000000  0.5470910000000  0.4394930000000 1.0
C      1  0.4266640000000  0.5229630000000  0.4807770000000 1.0
C      1  0.4716400000000  0.5016250000000  0.5355280000000 1.0
C      1  0.4435370000000  0.4759360000000  0.4577890000000 1.0
C      1  0.5784980000000  0.4849000000000  0.4824680000000 1.0
C      1  0.4839350000000  0.5383790000000  0.4102900000000 1.0
C      1  0.5697080000000  0.5565070000000  0.4636600000000 1.0
C      1  0.5105580000000  0.4773460000000  0.5802410000000 1.0
C      1  0.4174850000000  0.4897360000000  0.5185360000000 1.0
C      1  0.4844820000000  0.4406740000000  0.5620030000000 1.0
C      1  0.5539530000000  0.5676720000000  0.5032770000000 1.0
C      1  0.4750560000000  0.4821320000000  0.4879130000000 1.0
C      1  0.4266190000000  0.5175750000000  0.5102060000000 1.0
C      1  0.4608970000000  0.4543550000000  0.5704520000000 1.0
C      1  0.5295850000000  0.4960240000000  0.5009780000000 1.0
C      1  0.5479630000000  0.5159430000000  0.4888810000000 1.0
C      1  0.4510190000000  0.4785330000000  0.4297220000000 1.0
C      1  0.4861160000000  0.5801330000000  0.4515980000000 1.0
C      1  0.5396690000000  0.4189230000000  0.5199200000000 1.0
C      1  0.4528450000000  0.5462450000000  0.5421740000000 1.0
C      1  0.5376410000000  0.5124590000000  0.4609520000000 1.0
C      1  0.4981660000000  0.4603720000000  0.5251020000000 1.0
C      1  0.5392280000000  0.4471410000000  0.4749770000000 1.0
C      1  0.4681500000000  0.5328860000000  0.4938490000000 1.0
C      1  0.5106410000000  0.4499310000000  0.5719430000000 1.0
C      1  0.4719670000000  0.5422490000000  0.5659100000000 1.0
C      1  0.4871020000000  0.5133550000000  0.4511610000000 1.0
C      1  0.5081240000000  0.4137220000000  0.4701380000000 1.0
C      1  0.4509600000000  0.5713500000000  0.5260460000000 1.0
C      1  0.4530300000000  0.5467120000000  0.4490020000000 1.0
C      1  0.4411620000000  0.4553250000000  0.4794700000000 1.0
C      1  0.5026100000000  0.4722390000000  0.4751490000000 1.0
C      1  0.5741500000000  0.5089850000000  0.5538380000000 1.0
C      1  0.5129430000000  0.4478980000000  0.4335530000000 1.0
C      1  0.4682500000000  0.4601570000000  0.4180000000000 1.0
END
