TITL C-951333-8791-237 5.2962554780458e-08 125000 -179.457546604544 0 0 31 (C1) n - 1
REM
REM in /home/bkarasulu/work/CARBON/AIRSS/Generating-Clusters/EDIP-Nigel-Params/with-SteepDescent/Only-C1/SD-CG/HFTN-CG
REM
REM
REM
REM
REM
REM ./C.cell (11c1c37f851c82e70ff6c80c92926a4b)
REM
REM compiler GCC version 9.2.1 20190827 (Red Hat 9.2.1-1)
REM options -cpp -mtune=generic -march=x86-64 -g -O0 -fpre-include=/usr/include/finclude/math-vector-fortran.h
REM seed -1368529892 2017292473 1688313325 445577792 -970502784 1636290482 -605739589 -229071667 28439139 -1721597045 -111154158 -1474541714 -420011629 1083335104 1573353416 385902176 1082454188 615385871 -865210 2028778245 547777457 613564858 1778575476 485864616 1740234168 180395336 1892781277 506335526 -179740188 1582844384 2043859015 1708163065 -829128643
REM
CELL 1.54180   50.00000   50.00000   50.00000   90.00000   90.00000   90.00000
LATT -1
SFAC C  
C      1  0.4705880000000  0.5144490000000  0.5003450000000 1.0
C      1  0.4587160000000  0.5082610000000  0.4441000000000 1.0
C      1  0.4903730000000  0.5443220000000  0.4598650000000 1.0
C      1  0.4909400000000  0.5506410000000  0.4877370000000 1.0
C      1  0.4704630000000  0.4676550000000  0.5039470000000 1.0
C      1  0.5090520000000  0.4557420000000  0.5395240000000 1.0
C      1  0.4423980000000  0.4972770000000  0.4624590000000 1.0
C      1  0.5253130000000  0.5150980000000  0.4780190000000 1.0
C      1  0.4822350000000  0.5158360000000  0.4578570000000 1.0
C      1  0.5380790000000  0.5333630000000  0.4587420000000 1.0
C      1  0.5153850000000  0.4756420000000  0.5575740000000 1.0
C      1  0.4619510000000  0.5248080000000  0.5367510000000 1.0
C      1  0.4450870000000  0.5252840000000  0.5137330000000 1.0
C      1  0.5439240000000  0.4996230000000  0.4965490000000 1.0
C      1  0.5509710000000  0.4726830000000  0.4953800000000 1.0
C      1  0.5040140000000  0.4713420000000  0.4602220000000 1.0
C      1  0.5384880000000  0.4498850000000  0.5021470000000 1.0
C      1  0.4956230000000  0.4469730000000  0.4677810000000 1.0
C      1  0.5445590000000  0.5142100000000  0.5221300000000 1.0
C      1  0.5405470000000  0.5028470000000  0.5484750000000 1.0
C      1  0.4754680000000  0.4998730000000  0.5421330000000 1.0
C      1  0.5165700000000  0.5475700000000  0.4488610000000 1.0
C      1  0.5053670000000  0.4988860000000  0.4623170000000 1.0
C      1  0.4982960000000  0.4992200000000  0.5614970000000 1.0
C      1  0.4900060000000  0.4480790000000  0.4953770000000 1.0
C      1  0.5242780000000  0.5350580000000  0.5225810000000 1.0
C      1  0.4828070000000  0.4909820000000  0.5154750000000 1.0
C      1  0.5105030000000  0.5327200000000  0.4975620000000 1.0
C      1  0.5181550000000  0.5201270000000  0.5570720000000 1.0
C      1  0.5131640000000  0.4466930000000  0.5135110000000 1.0
C      1  0.4466800000000  0.4948490000000  0.4902760000000 1.0
END
