TITL C-951336-9012-84 -8.97510301511575e-07 125000 -1217.98064901686 0 0 193 (C1) n - 1
REM
REM in /home/bkarasulu/work/CARBON/AIRSS/Generating-Clusters/EDIP-Nigel-Params/with-SteepDescent/Only-C1/SD-CG/HFTN-CG
REM
REM
REM
REM
REM
REM ./C.cell (11c1c37f851c82e70ff6c80c92926a4b)
REM
REM compiler GCC version 9.2.1 20190827 (Red Hat 9.2.1-1)
REM options -cpp -mtune=generic -march=x86-64 -g -O0 -fpre-include=/usr/include/finclude/math-vector-fortran.h
REM seed 1868335858 -2015454554 728559945 -1590468886 -1138455169 -797737982 -119351413 317391217 206683154 -2103467617 2011808749 1976185395 -367469240 -888301328 -446681484 1146438763 1903279268 804889146 1448252537 -741308724 856923624 -933235945 -997496358 -1858823439 -11030090 789828463 -1838209005 -1543412349 -688683441 1190553864 -464718377 -1097972890 525144464
REM
CELL 1.54180   50.00000   50.00000   50.00000   90.00000   90.00000   90.00000
LATT -1
SFAC C  
C      1  0.4595230000000  0.4162710000000  0.5410110000000 1.0
C      1  0.4453310000000  0.4994500000000  0.5191460000000 1.0
C      1  0.5482780000000  0.5840570000000  0.4473320000000 1.0
C      1  0.5386050000000  0.4879180000000  0.4390720000000 1.0
C      1  0.4857140000000  0.4510590000000  0.5474350000000 1.0
C      1  0.4988660000000  0.5014470000000  0.5264380000000 1.0
C      1  0.4937990000000  0.3932230000000  0.5124290000000 1.0
C      1  0.5918390000000  0.4397120000000  0.5191730000000 1.0
C      1  0.5032900000000  0.4458670000000  0.4585300000000 1.0
C      1  0.4866600000000  0.5587360000000  0.6089060000000 1.0
C      1  0.5726220000000  0.5127500000000  0.5746680000000 1.0
C      1  0.5513380000000  0.4795840000000  0.5154050000000 1.0
C      1  0.4826130000000  0.5770530000000  0.4191190000000 1.0
C      1  0.5149000000000  0.3864690000000  0.4555530000000 1.0
C      1  0.5458350000000  0.5462720000000  0.5853360000000 1.0
C      1  0.4000510000000  0.5565710000000  0.4985590000000 1.0
C      1  0.5233600000000  0.3919500000000  0.5099700000000 1.0
C      1  0.5557130000000  0.4685690000000  0.5672710000000 1.0
C      1  0.4781470000000  0.5373720000000  0.4584650000000 1.0
C      1  0.5322890000000  0.4872150000000  0.5699380000000 1.0
C      1  0.5541220000000  0.4158700000000  0.5390710000000 1.0
C      1  0.6053190000000  0.5235080000000  0.4706890000000 1.0
C      1  0.4232090000000  0.5773380000000  0.5431320000000 1.0
C      1  0.5480290000000  0.5077160000000  0.5263420000000 1.0
C      1  0.4102700000000  0.5768650000000  0.4574630000000 1.0
C      1  0.4709070000000  0.4394090000000  0.4206090000000 1.0
C      1  0.5088290000000  0.4936960000000  0.4972930000000 1.0
C      1  0.3758120000000  0.5090930000000  0.4810310000000 1.0
C      1  0.5115040000000  0.5830610000000  0.4184530000000 1.0
C      1  0.4762530000000  0.6049560000000  0.4613620000000 1.0
C      1  0.4128320000000  0.4814100000000  0.4164260000000 1.0
C      1  0.5025040000000  0.4789570000000  0.5565460000000 1.0
C      1  0.4394510000000  0.4125890000000  0.5199660000000 1.0
C      1  0.5276010000000  0.4345990000000  0.5894060000000 1.0
C      1  0.5838920000000  0.5412800000000  0.4600560000000 1.0
C      1  0.5663310000000  0.5216340000000  0.5077750000000 1.0
C      1  0.4876990000000  0.4938490000000  0.6097850000000 1.0
C      1  0.4831010000000  0.4878440000000  0.4805590000000 1.0
C      1  0.4105440000000  0.5127190000000  0.5712290000000 1.0
C      1  0.4691740000000  0.4879720000000  0.4078860000000 1.0
C      1  0.4416090000000  0.3912210000000  0.4736670000000 1.0
C      1  0.5355590000000  0.4399000000000  0.5342890000000 1.0
C      1  0.4900240000000  0.5701960000000  0.5627580000000 1.0
C      1  0.4710900000000  0.5173080000000  0.4791580000000 1.0
C      1  0.4610500000000  0.5376640000000  0.5008240000000 1.0
C      1  0.5447220000000  0.5591970000000  0.5168290000000 1.0
C      1  0.5107040000000  0.5147360000000  0.3896110000000 1.0
C      1  0.4665740000000  0.4791470000000  0.6220240000000 1.0
C      1  0.5533340000000  0.4807870000000  0.4135550000000 1.0
C      1  0.4553100000000  0.6081700000000  0.4823520000000 1.0
C      1  0.4682410000000  0.5021880000000  0.5382930000000 1.0
C      1  0.4217200000000  0.4327690000000  0.4665310000000 1.0
C      1  0.4456930000000  0.5576130000000  0.5852340000000 1.0
C      1  0.5470840000000  0.4338210000000  0.4113920000000 1.0
C      1  0.6052160000000  0.4944860000000  0.4655270000000 1.0
C      1  0.4658740000000  0.5843830000000  0.4429190000000 1.0
C      1  0.5190770000000  0.4433510000000  0.5086780000000 1.0
C      1  0.4146890000000  0.4280400000000  0.5163310000000 1.0
C      1  0.5413410000000  0.5133230000000  0.5561910000000 1.0
C      1  0.4534620000000  0.4459730000000  0.4710410000000 1.0
C      1  0.5051880000000  0.5305080000000  0.5292040000000 1.0
C      1  0.3868020000000  0.4943460000000  0.5273920000000 1.0
C      1  0.4856870000000  0.4007660000000  0.5397800000000 1.0
C      1  0.4359580000000  0.5113450000000  0.5845700000000 1.0
C      1  0.6148300000000  0.5559130000000  0.5076860000000 1.0
C      1  0.4266310000000  0.5936330000000  0.4793140000000 1.0
C      1  0.4829470000000  0.4418740000000  0.6042780000000 1.0
C      1  0.4730270000000  0.3916300000000  0.4299510000000 1.0
C      1  0.6002380000000  0.5645050000000  0.5308780000000 1.0
C      1  0.4451130000000  0.4693300000000  0.5175120000000 1.0
C      1  0.4499110000000  0.5098290000000  0.4035980000000 1.0
C      1  0.5225530000000  0.5425300000000  0.5069980000000 1.0
C      1  0.5657070000000  0.5070450000000  0.4810800000000 1.0
C      1  0.4173980000000  0.4675870000000  0.4398460000000 1.0
C      1  0.6080360000000  0.5736120000000  0.4861820000000 1.0
C      1  0.4913490000000  0.5939530000000  0.5436900000000 1.0
C      1  0.5269940000000  0.4707540000000  0.5006100000000 1.0
C      1  0.4041930000000  0.4916050000000  0.5515780000000 1.0
C      1  0.4824750000000  0.4241690000000  0.4654510000000 1.0
C      1  0.5109990000000  0.3983660000000  0.5556750000000 1.0
C      1  0.4633900000000  0.6144780000000  0.5085770000000 1.0
C      1  0.4551830000000  0.5598960000000  0.4582990000000 1.0
C      1  0.5231070000000  0.6169940000000  0.4855080000000 1.0
C      1  0.4546970000000  0.5364350000000  0.4129670000000 1.0
C      1  0.5272900000000  0.4323600000000  0.4456700000000 1.0
C      1  0.5094440000000  0.5921950000000  0.5193970000000 1.0
C      1  0.4447610000000  0.4666160000000  0.4497140000000 1.0
C      1  0.4367660000000  0.5253820000000  0.5107710000000 1.0
C      1  0.4673720000000  0.4673590000000  0.4311420000000 1.0
C      1  0.3915980000000  0.4837630000000  0.4819090000000 1.0
C      1  0.5285380000000  0.5185080000000  0.4860020000000 1.0
C      1  0.4666720000000  0.4619250000000  0.4958280000000 1.0
C      1  0.5721060000000  0.4773140000000  0.4914410000000 1.0
C      1  0.4156990000000  0.5279460000000  0.4632680000000 1.0
C      1  0.5806070000000  0.5637510000000  0.4805570000000 1.0
C      1  0.4215890000000  0.5056730000000  0.4067510000000 1.0
C      1  0.4161380000000  0.4570950000000  0.5231200000000 1.0
C      1  0.4132890000000  0.4627820000000  0.5530800000000 1.0
C      1  0.4914170000000  0.4735570000000  0.4516950000000 1.0
C      1  0.6062530000000  0.4368260000000  0.4702210000000 1.0
C      1  0.6094250000000  0.5277290000000  0.4995750000000 1.0
C      1  0.5057860000000  0.5645540000000  0.4958730000000 1.0
C      1  0.3818230000000  0.5176340000000  0.5095770000000 1.0
C      1  0.3941410000000  0.4731090000000  0.5090260000000 1.0
C      1  0.5672740000000  0.4428140000000  0.4347830000000 1.0
C      1  0.4623400000000  0.4527210000000  0.6200420000000 1.0
C      1  0.5731470000000  0.5234170000000  0.4145180000000 1.0
C      1  0.4860930000000  0.4925230000000  0.5780860000000 1.0
C      1  0.4649550000000  0.6019040000000  0.5337560000000 1.0
C      1  0.6128200000000  0.5018940000000  0.5142320000000 1.0
C      1  0.4518300000000  0.5648120000000  0.4888400000000 1.0
C      1  0.4887270000000  0.3958630000000  0.4533960000000 1.0
C      1  0.4796460000000  0.5429600000000  0.5237140000000 1.0
C      1  0.3850300000000  0.5305960000000  0.4602730000000 1.0
C      1  0.5058580000000  0.5364340000000  0.4100630000000 1.0
C      1  0.4807710000000  0.4154810000000  0.4966310000000 1.0
C      1  0.4679490000000  0.5540800000000  0.5469780000000 1.0
C      1  0.5481670000000  0.6032540000000  0.4931790000000 1.0
C      1  0.5241280000000  0.5348620000000  0.4583920000000 1.0
C      1  0.5572960000000  0.4600710000000  0.5377000000000 1.0
C      1  0.5598110000000  0.5050910000000  0.3981680000000 1.0
C      1  0.5884140000000  0.4279160000000  0.4490070000000 1.0
C      1  0.4875940000000  0.4422940000000  0.5134010000000 1.0
C      1  0.6013050000000  0.4997930000000  0.5410690000000 1.0
C      1  0.5741910000000  0.4169470000000  0.5162610000000 1.0
C      1  0.5772030000000  0.4693880000000  0.4267350000000 1.0
C      1  0.5491460000000  0.5597850000000  0.4320250000000 1.0
C      1  0.5528850000000  0.5111030000000  0.4512680000000 1.0
C      1  0.5342970000000  0.4954160000000  0.5987070000000 1.0
C      1  0.5223900000000  0.5672390000000  0.5735260000000 1.0
C      1  0.5142370000000  0.4805340000000  0.6146880000000 1.0
C      1  0.5844020000000  0.4890660000000  0.4464960000000 1.0
C      1  0.5546480000000  0.4428520000000  0.5826810000000 1.0
C      1  0.5793910000000  0.4838830000000  0.5764680000000 1.0
C      1  0.5442040000000  0.5831510000000  0.5567120000000 1.0
C      1  0.4597380000000  0.4672090000000  0.5459880000000 1.0
C      1  0.5397600000000  0.5867310000000  0.5257380000000 1.0
C      1  0.5044430000000  0.5222240000000  0.4378980000000 1.0
C      1  0.5189020000000  0.4208100000000  0.4175830000000 1.0
C      1  0.5919870000000  0.4456260000000  0.5483780000000 1.0
C      1  0.5026990000000  0.5542080000000  0.4685530000000 1.0
C      1  0.4217030000000  0.5755230000000  0.5044900000000 1.0
C      1  0.5378010000000  0.5128860000000  0.3831560000000 1.0
C      1  0.4395870000000  0.4570520000000  0.5661400000000 1.0
C      1  0.5852990000000  0.5494800000000  0.5495820000000 1.0
C      1  0.5075040000000  0.6195580000000  0.5083020000000 1.0
C      1  0.4962840000000  0.4889100000000  0.3955510000000 1.0
C      1  0.4123330000000  0.5296620000000  0.4949710000000 1.0
C      1  0.5707640000000  0.4257870000000  0.5639630000000 1.0
C      1  0.4792430000000  0.5504340000000  0.4076250000000 1.0
C      1  0.4777410000000  0.5312680000000  0.6047850000000 1.0
C      1  0.6083980000000  0.4508390000000  0.4963640000000 1.0
C      1  0.4030890000000  0.5391750000000  0.5663010000000 1.0
C      1  0.5694140000000  0.4462560000000  0.4768000000000 1.0
C      1  0.5713910000000  0.5511540000000  0.5085950000000 1.0
C      1  0.5317200000000  0.4159200000000  0.4923940000000 1.0
C      1  0.4518930000000  0.4082710000000  0.4943780000000 1.0
C      1  0.5610420000000  0.5861900000000  0.4732030000000 1.0
C      1  0.4079080000000  0.5300330000000  0.4102560000000 1.0
C      1  0.5067280000000  0.6069500000000  0.4631850000000 1.0
C      1  0.4474700000000  0.5327270000000  0.6005940000000 1.0
C      1  0.4784840000000  0.4300100000000  0.5785070000000 1.0
C      1  0.4352060000000  0.4099670000000  0.4532960000000 1.0
C      1  0.4726710000000  0.5718460000000  0.5879290000000 1.0
C      1  0.5178070000000  0.4098450000000  0.5805110000000 1.0
C      1  0.4968190000000  0.4372120000000  0.4053070000000 1.0
C      1  0.5604230000000  0.4220720000000  0.4922650000000 1.0
C      1  0.5100520000000  0.4925420000000  0.4374710000000 1.0
C      1  0.5297600000000  0.4088730000000  0.4632060000000 1.0
C      1  0.5103920000000  0.4626920000000  0.3982490000000 1.0
C      1  0.5987320000000  0.4749120000000  0.5565730000000 1.0
C      1  0.5231980000000  0.5972530000000  0.4413750000000 1.0
C      1  0.4269640000000  0.5527410000000  0.4486720000000 1.0
C      1  0.5103820000000  0.4515570000000  0.6059780000000 1.0
C      1  0.5655940000000  0.5624530000000  0.5670390000000 1.0
C      1  0.5276340000000  0.5587300000000  0.4115030000000 1.0
C      1  0.5137500000000  0.5327060000000  0.5585430000000 1.0
C      1  0.4871180000000  0.5219900000000  0.5757880000000 1.0
C      1  0.4283290000000  0.5478450000000  0.4189480000000 1.0
C      1  0.4069760000000  0.4255660000000  0.4895510000000 1.0
C      1  0.4508290000000  0.5768080000000  0.5365150000000 1.0
C      1  0.4522310000000  0.4287460000000  0.5666140000000 1.0
C      1  0.5735230000000  0.5445730000000  0.4325610000000 1.0
C      1  0.4223430000000  0.5595910000000  0.5659120000000 1.0
C      1  0.6038050000000  0.4810720000000  0.4932670000000 1.0
C      1  0.5394010000000  0.4595370000000  0.3980080000000 1.0
C      1  0.3973090000000  0.4688030000000  0.4590850000000 1.0
C      1  0.5403730000000  0.5231700000000  0.6015240000000 1.0
C      1  0.5341350000000  0.3926530000000  0.5380330000000 1.0
C      1  0.3877710000000  0.5611060000000  0.4713290000000 1.0
C      1  0.5934730000000  0.5230770000000  0.5575590000000 1.0
C      1  0.4560850000000  0.4148280000000  0.4312030000000 1.0
C      1  0.4617840000000  0.5248340000000  0.5598250000000 1.0
END
