TITL C-950531-5884-493 1.21747838318794e-06 125000 -656.834632013256 0 0 106 (C1) n - 1
REM
REM in /home/bkarasulu/work/CARBON/AIRSS/Generating-Clusters/EDIP-Nigel-Params/with-SteepDescent/Only-C1/SD-CG/HFTN-CG
REM
REM
REM
REM
REM
REM ./C.cell (11c1c37f851c82e70ff6c80c92926a4b)
REM
REM compiler GCC version 9.2.1 20190827 (Red Hat 9.2.1-1)
REM options -cpp -mtune=generic -march=x86-64 -g -O0 -fpre-include=/usr/include/finclude/math-vector-fortran.h
REM seed 1041899834 939565884 -84622465 401139851 1812220392 11594032 -2133179571 175948377 -1253728435 -1711510648 538740210 -585627440 -1185229227 1273358613 1542554626 -385775535 -1434614614 1419544152 1106358706 -38261567 -1186271555 -1376225778 -1441194920 1281482354 1139246524 1300950670 786612836 118104998 644164464 -968114009 -1888320949 1684372182 -1779936181
REM
CELL 1.54180   50.00000   50.00000   50.00000   90.00000   90.00000   90.00000
LATT -1
SFAC C  
C      1  0.5288660000000  0.5249440000000  0.5899400000000 1.0
C      1  0.5387890000000  0.5554850000000  0.5118780000000 1.0
C      1  0.5494990000000  0.5427340000000  0.4646120000000 1.0
C      1  0.4900070000000  0.5951640000000  0.4775320000000 1.0
C      1  0.4474060000000  0.4773340000000  0.5705070000000 1.0
C      1  0.5403800000000  0.5462920000000  0.4361930000000 1.0
C      1  0.4291790000000  0.5536260000000  0.4651560000000 1.0
C      1  0.5193280000000  0.4713890000000  0.4701220000000 1.0
C      1  0.5492390000000  0.5192020000000  0.4261490000000 1.0
C      1  0.4531830000000  0.4857920000000  0.5089900000000 1.0
C      1  0.5324730000000  0.4228590000000  0.4624640000000 1.0
C      1  0.4425790000000  0.4535440000000  0.4721470000000 1.0
C      1  0.4881550000000  0.4969010000000  0.5893920000000 1.0
C      1  0.5864860000000  0.4487670000000  0.4874520000000 1.0
C      1  0.4827780000000  0.4284540000000  0.4610290000000 1.0
C      1  0.4883420000000  0.4732300000000  0.5365550000000 1.0
C      1  0.4822010000000  0.5223910000000  0.5066090000000 1.0
C      1  0.5766310000000  0.4488690000000  0.5179180000000 1.0
C      1  0.4724700000000  0.4762750000000  0.4820940000000 1.0
C      1  0.4726370000000  0.5201760000000  0.4795360000000 1.0
C      1  0.4845070000000  0.5022280000000  0.5467210000000 1.0
C      1  0.5327200000000  0.4257350000000  0.4916920000000 1.0
C      1  0.4221370000000  0.4761490000000  0.4737350000000 1.0
C      1  0.4224570000000  0.4840330000000  0.5172940000000 1.0
C      1  0.5668890000000  0.4558460000000  0.4654700000000 1.0
C      1  0.4148900000000  0.5115130000000  0.5265110000000 1.0
C      1  0.4452050000000  0.4163530000000  0.5192750000000 1.0
C      1  0.4534380000000  0.5616650000000  0.4849540000000 1.0
C      1  0.5984990000000  0.4928200000000  0.4636380000000 1.0
C      1  0.5093430000000  0.4739830000000  0.5169530000000 1.0
C      1  0.4647620000000  0.5891330000000  0.4921300000000 1.0
C      1  0.5439420000000  0.4613150000000  0.4833600000000 1.0
C      1  0.4378300000000  0.4626620000000  0.5457390000000 1.0
C      1  0.5399380000000  0.5375930000000  0.5675560000000 1.0
C      1  0.6022780000000  0.4740120000000  0.4856120000000 1.0
C      1  0.5155590000000  0.4985650000000  0.4577770000000 1.0
C      1  0.4800570000000  0.5006730000000  0.4010120000000 1.0
C      1  0.4613060000000  0.4624960000000  0.5250480000000 1.0
C      1  0.4059670000000  0.4735320000000  0.4962680000000 1.0
C      1  0.5147620000000  0.5680280000000  0.4531540000000 1.0
C      1  0.4636580000000  0.5092140000000  0.5254640000000 1.0
C      1  0.4823740000000  0.4310190000000  0.5482810000000 1.0
C      1  0.5744670000000  0.5118920000000  0.4399490000000 1.0
C      1  0.5173430000000  0.4992480000000  0.5887940000000 1.0
C      1  0.4739180000000  0.4737030000000  0.4045970000000 1.0
C      1  0.4970130000000  0.5627740000000  0.5523210000000 1.0
C      1  0.4837670000000  0.4289170000000  0.4907960000000 1.0
C      1  0.5744820000000  0.4847110000000  0.5536060000000 1.0
C      1  0.4646830000000  0.4585630000000  0.4249760000000 1.0
C      1  0.4904010000000  0.4472750000000  0.5721890000000 1.0
C      1  0.5074240000000  0.4224870000000  0.4494330000000 1.0
C      1  0.5547160000000  0.4357310000000  0.4474950000000 1.0
C      1  0.4701360000000  0.5195420000000  0.5786910000000 1.0
C      1  0.5455560000000  0.5673990000000  0.4838760000000 1.0
C      1  0.4561820000000  0.4175030000000  0.5462910000000 1.0
C      1  0.4755240000000  0.4725450000000  0.5786940000000 1.0
C      1  0.5054850000000  0.5497090000000  0.4778950000000 1.0
C      1  0.5390050000000  0.5765030000000  0.5344270000000 1.0
C      1  0.4904500000000  0.5706350000000  0.4329290000000 1.0
C      1  0.5171150000000  0.5931900000000  0.5206620000000 1.0
C      1  0.5286650000000  0.5216000000000  0.4751000000000 1.0
C      1  0.4504020000000  0.5472080000000  0.5420870000000 1.0
C      1  0.5265770000000  0.5634330000000  0.5592400000000 1.0
C      1  0.5939340000000  0.5171080000000  0.4790520000000 1.0
C      1  0.4718870000000  0.5466380000000  0.4378930000000 1.0
C      1  0.5296760000000  0.4338430000000  0.5465760000000 1.0
C      1  0.5539930000000  0.4842680000000  0.5022850000000 1.0
C      1  0.5772680000000  0.5314000000000  0.4609390000000 1.0
C      1  0.4326270000000  0.4341890000000  0.5510990000000 1.0
C      1  0.5390470000000  0.4712870000000  0.5255340000000 1.0
C      1  0.5458980000000  0.4478500000000  0.4236680000000 1.0
C      1  0.4387130000000  0.5126430000000  0.4413440000000 1.0
C      1  0.4154570000000  0.5292190000000  0.4779950000000 1.0
C      1  0.4576330000000  0.4384750000000  0.5042830000000 1.0
C      1  0.5284530000000  0.4978870000000  0.4296500000000 1.0
C      1  0.5074740000000  0.5234720000000  0.5365540000000 1.0
C      1  0.4990560000000  0.4645440000000  0.4906050000000 1.0
C      1  0.4343430000000  0.5217360000000  0.5478890000000 1.0
C      1  0.4200960000000  0.5335950000000  0.5070080000000 1.0
C      1  0.5873340000000  0.4737130000000  0.5313770000000 1.0
C      1  0.4407680000000  0.5429010000000  0.4394320000000 1.0
C      1  0.5407860000000  0.5104230000000  0.4994650000000 1.0
C      1  0.5463560000000  0.4884010000000  0.5502040000000 1.0
C      1  0.5362650000000  0.4727570000000  0.4197650000000 1.0
C      1  0.4819790000000  0.5213190000000  0.4223060000000 1.0
C      1  0.4814990000000  0.4984720000000  0.4630890000000 1.0
C      1  0.5066030000000  0.4200580000000  0.5349850000000 1.0
C      1  0.5500440000000  0.5290820000000  0.5191330000000 1.0
C      1  0.5175750000000  0.5899790000000  0.4906430000000 1.0
C      1  0.4459670000000  0.5472150000000  0.5118530000000 1.0
C      1  0.5374650000000  0.5190130000000  0.5442410000000 1.0
C      1  0.4278640000000  0.5044870000000  0.4668960000000 1.0
C      1  0.5079130000000  0.4181810000000  0.5052650000000 1.0
C      1  0.4434070000000  0.5068120000000  0.5723020000000 1.0
C      1  0.4629220000000  0.4472840000000  0.4505380000000 1.0
C      1  0.5200230000000  0.4507890000000  0.5696500000000 1.0
C      1  0.4863880000000  0.5945390000000  0.4486510000000 1.0
C      1  0.4921270000000  0.5846730000000  0.5332930000000 1.0
C      1  0.4685640000000  0.5913710000000  0.5197210000000 1.0
C      1  0.5317420000000  0.4779800000000  0.5740700000000 1.0
C      1  0.5534450000000  0.4354060000000  0.5297050000000 1.0
C      1  0.4752130000000  0.5436720000000  0.5584080000000 1.0
C      1  0.4760770000000  0.5459320000000  0.4692690000000 1.0
C      1  0.4654940000000  0.5003400000000  0.4372660000000 1.0
C      1  0.5862790000000  0.4902950000000  0.5060690000000 1.0
C      1  0.5078890000000  0.5501870000000  0.5120650000000 1.0
END
