TITL C-951339-9237-634 2.36293736880388e-07 125000 -465.988865105117 0 0 77 (C1) n - 1
REM
REM in /home/bkarasulu/work/CARBON/AIRSS/Generating-Clusters/EDIP-Nigel-Params/with-SteepDescent/Only-C1/SD-CG/HFTN-CG
REM
REM
REM
REM
REM
REM ./C.cell (11c1c37f851c82e70ff6c80c92926a4b)
REM
REM compiler GCC version 9.2.1 20190827 (Red Hat 9.2.1-1)
REM options -cpp -mtune=generic -march=x86-64 -g -O0 -fpre-include=/usr/include/finclude/math-vector-fortran.h
REM seed 1079358052 783958450 586353745 1330819964 1675687004 -310932849 1742310925 1114487537 437130135 1243857922 -1797741634 112319919 1577341047 -1244501252 2146255526 1073795402 47588539 1341609455 -2088918417 945210006 -1764920179 -983821685 -338532322 2016580594 -871491343 1916252420 -774843449 1225856382 66214035 -410468344 873857404 311139387 1624022411
REM
CELL 1.54180   50.00000   50.00000   50.00000   90.00000   90.00000   90.00000
LATT -1
SFAC C  
C      1  0.4456340000000  0.5382530000000  0.4891810000000 1.0
C      1  0.5432670000000  0.4574950000000  0.4703640000000 1.0
C      1  0.5202810000000  0.5752680000000  0.4756440000000 1.0
C      1  0.4723540000000  0.4508610000000  0.4452900000000 1.0
C      1  0.4574110000000  0.4305170000000  0.5089210000000 1.0
C      1  0.5099350000000  0.5685540000000  0.5214660000000 1.0
C      1  0.4505430000000  0.4709440000000  0.4518140000000 1.0
C      1  0.4794910000000  0.5473840000000  0.4616270000000 1.0
C      1  0.4670950000000  0.5531220000000  0.5056550000000 1.0
C      1  0.4437800000000  0.5136360000000  0.4720850000000 1.0
C      1  0.4587780000000  0.4945200000000  0.5153910000000 1.0
C      1  0.5244290000000  0.5367100000000  0.4429730000000 1.0
C      1  0.5644900000000  0.4768370000000  0.4773290000000 1.0
C      1  0.4583720000000  0.4712170000000  0.4950740000000 1.0
C      1  0.4868670000000  0.4946130000000  0.5295350000000 1.0
C      1  0.5231850000000  0.4171830000000  0.4846210000000 1.0
C      1  0.4896980000000  0.4605100000000  0.5662690000000 1.0
C      1  0.5014390000000  0.4592190000000  0.4970260000000 1.0
C      1  0.4765470000000  0.5403720000000  0.4341810000000 1.0
C      1  0.5604290000000  0.5470390000000  0.4748700000000 1.0
C      1  0.5439720000000  0.4459710000000  0.5207060000000 1.0
C      1  0.5540430000000  0.5033590000000  0.4713800000000 1.0
C      1  0.4405730000000  0.4930680000000  0.5408790000000 1.0
C      1  0.5237300000000  0.4557990000000  0.4464310000000 1.0
C      1  0.4221180000000  0.5076280000000  0.5104160000000 1.0
C      1  0.5052420000000  0.5065700000000  0.4839130000000 1.0
C      1  0.4822060000000  0.4323710000000  0.4928780000000 1.0
C      1  0.5550190000000  0.5701550000000  0.5117970000000 1.0
C      1  0.4591500000000  0.4989440000000  0.4523770000000 1.0
C      1  0.5732310000000  0.4757170000000  0.5056830000000 1.0
C      1  0.5250890000000  0.4886090000000  0.4260380000000 1.0
C      1  0.5736230000000  0.5235650000000  0.4662590000000 1.0
C      1  0.4852590000000  0.4397630000000  0.5480750000000 1.0
C      1  0.5068100000000  0.4257210000000  0.5336980000000 1.0
C      1  0.4327870000000  0.4391390000000  0.4967970000000 1.0
C      1  0.4237490000000  0.4958160000000  0.4828060000000 1.0
C      1  0.4674220000000  0.5813840000000  0.5437320000000 1.0
C      1  0.5534570000000  0.5520760000000  0.5343450000000 1.0
C      1  0.4729680000000  0.5822080000000  0.4964650000000 1.0
C      1  0.4868850000000  0.4893250000000  0.5615520000000 1.0
C      1  0.5364130000000  0.4860940000000  0.5638550000000 1.0
C      1  0.4950260000000  0.4695610000000  0.4499690000000 1.0
C      1  0.5237590000000  0.4596550000000  0.5396800000000 1.0
C      1  0.4970580000000  0.5429740000000  0.5073410000000 1.0
C      1  0.5260760000000  0.5546210000000  0.5451320000000 1.0
C      1  0.5076350000000  0.4755420000000  0.5205390000000 1.0
C      1  0.4587990000000  0.5070700000000  0.5618830000000 1.0
C      1  0.4627960000000  0.4472240000000  0.5317170000000 1.0
C      1  0.5301340000000  0.4453630000000  0.4935730000000 1.0
C      1  0.4586200000000  0.5557770000000  0.5352490000000 1.0
C      1  0.4780910000000  0.5118420000000  0.4350990000000 1.0
C      1  0.5712260000000  0.4519790000000  0.5202050000000 1.0
C      1  0.4245330000000  0.4601870000000  0.5139020000000 1.0
C      1  0.5398050000000  0.5591760000000  0.4567800000000 1.0
C      1  0.5566860000000  0.5217120000000  0.5286030000000 1.0
C      1  0.5338770000000  0.5095390000000  0.4930110000000 1.0
C      1  0.4970410000000  0.4947500000000  0.4209750000000 1.0
C      1  0.5017880000000  0.4136040000000  0.5066600000000 1.0
C      1  0.4864350000000  0.5886050000000  0.5240660000000 1.0
C      1  0.5174830000000  0.5257760000000  0.5481150000000 1.0
C      1  0.4934030000000  0.5244690000000  0.5320420000000 1.0
C      1  0.5370330000000  0.5396560000000  0.4956740000000 1.0
C      1  0.5059700000000  0.5339990000000  0.4686980000000 1.0
C      1  0.4894140000000  0.5748160000000  0.4717220000000 1.0
C      1  0.4387800000000  0.4628790000000  0.5390110000000 1.0
C      1  0.4812870000000  0.4273390000000  0.4620630000000 1.0
C      1  0.5827030000000  0.4982670000000  0.5464240000000 1.0
C      1  0.5854490000000  0.4982970000000  0.5182430000000 1.0
C      1  0.4711230000000  0.5334440000000  0.5504780000000 1.0
C      1  0.5112160000000  0.4253930000000  0.4571510000000 1.0
C      1  0.5297580000000  0.5819360000000  0.5034510000000 1.0
C      1  0.4238030000000  0.5360440000000  0.5074420000000 1.0
C      1  0.5136150000000  0.5034030000000  0.5679680000000 1.0
C      1  0.5564550000000  0.5057680000000  0.5561570000000 1.0
C      1  0.4283480000000  0.4682210000000  0.4712550000000 1.0
C      1  0.4901090000000  0.4801830000000  0.4782070000000 1.0
C      1  0.5368950000000  0.5133880000000  0.4321210000000 1.0
END
