TITL C-951348-1603-569 -4.1924018727782e-06 125000 -329.046162941111 0 0 55 (C1) n - 1
REM
REM in /home/bkarasulu/work/CARBON/AIRSS/Generating-Clusters/EDIP-Nigel-Params/with-SteepDescent/Only-C1/SD-CG/HFTN-CG
REM
REM
REM
REM
REM
REM ./C.cell (11c1c37f851c82e70ff6c80c92926a4b)
REM
REM compiler GCC version 9.2.1 20190827 (Red Hat 9.2.1-1)
REM options -cpp -mtune=generic -march=x86-64 -g -O0 -fpre-include=/usr/include/finclude/math-vector-fortran.h
REM seed -1327780374 -1208951103 -293151254 2146434133 15967414 -1286276242 -858571092 -753849390 -548874172 -281946668 -1396343488 -214465611 1431890150 -1154645695 1495674216 -1121796669 1653145797 891675887 147967012 -1008064498 -1016371637 -559438270 -71016995 -1960433746 -2019525536 -1003355111 517055926 -1864429167 -2015070604 707041876 -369640428 1175557166 198576052
REM
CELL 1.54180   50.00000   50.00000   50.00000   90.00000   90.00000   90.00000
LATT -1
SFAC C  
C      1  0.5549000000000  0.5441380000000  0.4811140000000 1.0
C      1  0.5099380000000  0.4999390000000  0.4390680000000 1.0
C      1  0.5061350000000  0.4549290000000  0.5511740000000 1.0
C      1  0.4858480000000  0.4276240000000  0.4905170000000 1.0
C      1  0.5250640000000  0.5661390000000  0.5399730000000 1.0
C      1  0.4752140000000  0.4641060000000  0.4672780000000 1.0
C      1  0.4680120000000  0.5283200000000  0.4353130000000 1.0
C      1  0.4300130000000  0.5093150000000  0.5115310000000 1.0
C      1  0.5529420000000  0.4758700000000  0.4992290000000 1.0
C      1  0.5024190000000  0.4752870000000  0.4674900000000 1.0
C      1  0.5113940000000  0.4167470000000  0.4986640000000 1.0
C      1  0.5531480000000  0.4442500000000  0.4637460000000 1.0
C      1  0.5379820000000  0.4897750000000  0.4462250000000 1.0
C      1  0.4796320000000  0.4358100000000  0.4636640000000 1.0
C      1  0.5643120000000  0.5221680000000  0.4973300000000 1.0
C      1  0.5267150000000  0.4431550000000  0.5353110000000 1.0
C      1  0.5022370000000  0.4810600000000  0.4981770000000 1.0
C      1  0.5368350000000  0.4902980000000  0.5659040000000 1.0
C      1  0.5432500000000  0.4510140000000  0.4898280000000 1.0
C      1  0.4695120000000  0.5482340000000  0.5102870000000 1.0
C      1  0.5340840000000  0.5368630000000  0.4602150000000 1.0
C      1  0.5265960000000  0.5103720000000  0.4776870000000 1.0
C      1  0.4705450000000  0.5445620000000  0.4580570000000 1.0
C      1  0.4350200000000  0.4611750000000  0.5253250000000 1.0
C      1  0.5347710000000  0.4898770000000  0.5172690000000 1.0
C      1  0.5332040000000  0.4319280000000  0.5098050000000 1.0
C      1  0.4577560000000  0.5384540000000  0.4836830000000 1.0
C      1  0.4283090000000  0.4874750000000  0.5298110000000 1.0
C      1  0.4875490000000  0.5245020000000  0.5179340000000 1.0
C      1  0.4901310000000  0.5002830000000  0.5622220000000 1.0
C      1  0.5169180000000  0.5614900000000  0.4662450000000 1.0
C      1  0.4620490000000  0.4838840000000  0.4514360000000 1.0
C      1  0.5231930000000  0.5584050000000  0.4964320000000 1.0
C      1  0.5153350000000  0.4496600000000  0.4558680000000 1.0
C      1  0.5119020000000  0.5771080000000  0.5171510000000 1.0
C      1  0.5104400000000  0.4813940000000  0.5632520000000 1.0
C      1  0.5559490000000  0.4980010000000  0.4801130000000 1.0
C      1  0.5512440000000  0.4939530000000  0.5423480000000 1.0
C      1  0.4257220000000  0.5343340000000  0.5231390000000 1.0
C      1  0.4943360000000  0.4514040000000  0.5090940000000 1.0
C      1  0.5407060000000  0.4601940000000  0.4425110000000 1.0
C      1  0.4512680000000  0.5092920000000  0.4901090000000 1.0
C      1  0.4807490000000  0.5043510000000  0.4422560000000 1.0
C      1  0.4846380000000  0.5728670000000  0.5125040000000 1.0
C      1  0.5551670000000  0.5214590000000  0.5282510000000 1.0
C      1  0.4820580000000  0.5222810000000  0.5474670000000 1.0
C      1  0.5307860000000  0.5385580000000  0.5352110000000 1.0
C      1  0.4784890000000  0.5000640000000  0.5035760000000 1.0
C      1  0.4601130000000  0.5375540000000  0.5555420000000 1.0
C      1  0.4413210000000  0.4952080000000  0.4661560000000 1.0
C      1  0.5170160000000  0.5292530000000  0.5090570000000 1.0
C      1  0.4907050000000  0.5631550000000  0.4577210000000 1.0
C      1  0.4811090000000  0.4509440000000  0.5363850000000 1.0
C      1  0.4564640000000  0.4641900000000  0.5425700000000 1.0
C      1  0.4488520000000  0.5473300000000  0.5317750000000 1.0
END
