TITL C-950523-3027-217 -1.45057039441698e-06 125000 -350.053970040501 0 0 57 (C1) n - 1
REM
REM in /home/bkarasulu/work/CARBON/AIRSS/Generating-Clusters/EDIP-Nigel-Params/with-SteepDescent/Only-C1/SD-CG/HFTN-CG
REM
REM
REM
REM
REM
REM ./C.cell (11c1c37f851c82e70ff6c80c92926a4b)
REM
REM compiler GCC version 9.2.1 20190827 (Red Hat 9.2.1-1)
REM options -cpp -mtune=generic -march=x86-64 -g -O0 -fpre-include=/usr/include/finclude/math-vector-fortran.h
REM seed -690679535 1125013513 2021903278 -2076608976 1899841902 252241467 -336560982 -1239695430 46366288 1779717504 -797003157 -110695818 73491827 552011088 206929822 -1712512371 -1180187014 2062437258 2052646970 -197762221 -1401575802 -1249506116 917684881 -1314077927 -164861629 -2113868339 1464441794 1411381940 -983782696 -830063869 -1464434255 -1092451637 -935729168
REM
CELL 1.54180   50.00000   50.00000   50.00000   90.00000   90.00000   90.00000
LATT -1
SFAC C  
C      1  0.4458170000000  0.5120690000000  0.4452730000000 1.0
C      1  0.4686880000000  0.4669060000000  0.4560440000000 1.0
C      1  0.5601760000000  0.5003230000000  0.5386080000000 1.0
C      1  0.5228890000000  0.5056720000000  0.5269850000000 1.0
C      1  0.5655060000000  0.4899130000000  0.5113070000000 1.0
C      1  0.4469290000000  0.5071380000000  0.4953600000000 1.0
C      1  0.5121080000000  0.5568930000000  0.4772420000000 1.0
C      1  0.4382230000000  0.5276580000000  0.5488820000000 1.0
C      1  0.4498620000000  0.4627870000000  0.4987290000000 1.0
C      1  0.4547010000000  0.5424330000000  0.5312280000000 1.0
C      1  0.5009350000000  0.5268850000000  0.5161690000000 1.0
C      1  0.5283110000000  0.4436670000000  0.4683050000000 1.0
C      1  0.5097400000000  0.4733370000000  0.4317460000000 1.0
C      1  0.5420230000000  0.5113560000000  0.4361810000000 1.0
C      1  0.5002290000000  0.4929720000000  0.5710550000000 1.0
C      1  0.4841590000000  0.5400360000000  0.4381610000000 1.0
C      1  0.5270190000000  0.5249310000000  0.4158340000000 1.0
C      1  0.5290400000000  0.4914540000000  0.4824140000000 1.0
C      1  0.4550170000000  0.5062670000000  0.5567350000000 1.0
C      1  0.5160760000000  0.4822100000000  0.5079190000000 1.0
C      1  0.5077630000000  0.4483610000000  0.4477500000000 1.0
C      1  0.4414710000000  0.4852950000000  0.5151430000000 1.0
C      1  0.4887510000000  0.4346990000000  0.4951900000000 1.0
C      1  0.4361770000000  0.4995820000000  0.4683530000000 1.0
C      1  0.4833430000000  0.4825290000000  0.5014800000000 1.0
C      1  0.5442800000000  0.4829570000000  0.5580400000000 1.0
C      1  0.5584280000000  0.4626840000000  0.5092740000000 1.0
C      1  0.4583870000000  0.4849540000000  0.5377200000000 1.0
C      1  0.5275030000000  0.4595460000000  0.5473750000000 1.0
C      1  0.5420950000000  0.4700900000000  0.4656580000000 1.0
C      1  0.4491000000000  0.5364350000000  0.5026570000000 1.0
C      1  0.5181340000000  0.5491400000000  0.5044180000000 1.0
C      1  0.4854060000000  0.5133440000000  0.4924900000000 1.0
C      1  0.4830490000000  0.5363180000000  0.5401770000000 1.0
C      1  0.4860960000000  0.5492870000000  0.4667940000000 1.0
C      1  0.5512250000000  0.5088170000000  0.4934690000000 1.0
C      1  0.5443180000000  0.5336790000000  0.5102710000000 1.0
C      1  0.4433570000000  0.4706430000000  0.4700560000000 1.0
C      1  0.5320210000000  0.5316250000000  0.5612620000000 1.0
C      1  0.5189070000000  0.5553490000000  0.5689180000000 1.0
C      1  0.5271720000000  0.5036220000000  0.5709380000000 1.0
C      1  0.4999240000000  0.4669650000000  0.5564970000000 1.0
C      1  0.4642130000000  0.5504320000000  0.4839800000000 1.0
C      1  0.5382000000000  0.4813880000000  0.4376660000000 1.0
C      1  0.5194490000000  0.4355740000000  0.4970430000000 1.0
C      1  0.5050300000000  0.5058790000000  0.4683780000000 1.0
C      1  0.5533520000000  0.5303210000000  0.5402740000000 1.0
C      1  0.4765350000000  0.4621990000000  0.5394960000000 1.0
C      1  0.4885480000000  0.4911980000000  0.4456180000000 1.0
C      1  0.4964220000000  0.5574040000000  0.5542350000000 1.0
C      1  0.4791800000000  0.5125050000000  0.5700330000000 1.0
C      1  0.5071720000000  0.5433250000000  0.4216380000000 1.0
C      1  0.4743750000000  0.4407340000000  0.5197750000000 1.0
C      1  0.4886830000000  0.4603750000000  0.4782210000000 1.0
C      1  0.5307630000000  0.4572350000000  0.5164020000000 1.0
C      1  0.4710380000000  0.5135630000000  0.4333790000000 1.0
C      1  0.5226830000000  0.5270370000000  0.4557530000000 1.0
END
