TITL C-951345-2650-610 0.0663610839479293 125000 -91.0572111807161 0 0 18 (C1) n - 1
REM
REM in /home/bkarasulu/work/CARBON/AIRSS/Generating-Clusters/EDIP-Nigel-Params/with-SteepDescent/Only-C1/SD-CG/HFTN-CG
REM
REM
REM
REM
REM
REM ./C.cell (11c1c37f851c82e70ff6c80c92926a4b)
REM
REM compiler GCC version 9.2.1 20190827 (Red Hat 9.2.1-1)
REM options -cpp -mtune=generic -march=x86-64 -g -O0 -fpre-include=/usr/include/finclude/math-vector-fortran.h
REM seed -511153053 658182332 1416161750 -765519755 427551422 1014405567 -1539007553 -923964717 -800820779 251506213 1099117667 1070152381 1472084154 1774184016 -604747303 524047104 -2134304665 -275442649 629836154 1090076691 -1575179256 1347336861 -163824487 1449275293 159473914 -427612474 2093805299 -225632976 465257822 -1848961757 243950518 -2141929701 -1098611243
REM
CELL 1.54180   50.00000   50.00000   50.00000   90.00000   90.00000   90.00000
LATT -1
SFAC C  
C      1  0.4711010000000  0.5283920000000  0.5160690000000 1.0
C      1  0.4785370000000  0.4859750000000  0.4500410000000 1.0
C      1  0.4703420000000  0.5052000000000  0.5480620000000 1.0
C      1  0.4536950000000  0.4138920000000  0.4712170000000 1.0
C      1  0.4555920000000  0.5225360000000  0.4917420000000 1.0
C      1  0.5425650000000  0.5097180000000  0.5314030000000 1.0
C      1  0.5693350000000  0.5131180000000  0.5353120000000 1.0
C      1  0.5884090000000  0.5136910000000  0.4814980000000 1.0
C      1  0.4319800000000  0.5342980000000  0.4898990000000 1.0
C      1  0.5161790000000  0.5090950000000  0.5299220000000 1.0
C      1  0.4617470000000  0.4372000000000  0.4644540000000 1.0
C      1  0.4700580000000  0.5187270000000  0.4675450000000 1.0
C      1  0.5882660000000  0.4954900000000  0.5253160000000 1.0
C      1  0.4894400000000  0.5049980000000  0.5254420000000 1.0
C      1  0.4932090000000  0.5035410000000  0.4656920000000 1.0
C      1  0.5947820000000  0.5152690000000  0.5070060000000 1.0
C      1  0.4704940000000  0.4615050000000  0.4589840000000 1.0
C      1  0.4542690000000  0.5273550000000  0.5403960000000 1.0
END
