TITL C-950523-3027-624 -6.92882014476574e-06 125000 -1016.82884002192 0 0 164 (C1) n - 1
REM
REM in /home/bkarasulu/work/CARBON/AIRSS/Generating-Clusters/EDIP-Nigel-Params/with-SteepDescent/Only-C1/SD-CG/HFTN-CG
REM
REM
REM
REM
REM
REM ./C.cell (11c1c37f851c82e70ff6c80c92926a4b)
REM
REM compiler GCC version 9.2.1 20190827 (Red Hat 9.2.1-1)
REM options -cpp -mtune=generic -march=x86-64 -g -O0 -fpre-include=/usr/include/finclude/math-vector-fortran.h
REM seed 1049218843 -1945001227 -482343284 2018386687 -1780636207 1966718911 -690382072 -239394377 -1755433061 439804895 1643803456 -968455720 1358883423 -674635128 282500974 791367473 1974524258 1386709030 2089034079 1542897601 -1434576963 -1444345618 -1830200879 1434403149 -1358784956 1664571530 -366618774 -161996824 -695134540 -60959522 1922874641 -509807609 -618769793
REM
CELL 1.54180   50.00000   50.00000   50.00000   90.00000   90.00000   90.00000
LATT -1
SFAC C  
C      1  0.5333070000000  0.4713160000000  0.6040570000000 1.0
C      1  0.5278130000000  0.4994190000000  0.4189780000000 1.0
C      1  0.4493960000000  0.5398110000000  0.4937410000000 1.0
C      1  0.4440760000000  0.6008600000000  0.4923450000000 1.0
C      1  0.4278030000000  0.4222330000000  0.4900590000000 1.0
C      1  0.4507180000000  0.4060310000000  0.5321640000000 1.0
C      1  0.4810040000000  0.5790090000000  0.5760020000000 1.0
C      1  0.5232730000000  0.4901600000000  0.5479350000000 1.0
C      1  0.4352950000000  0.5860410000000  0.5146050000000 1.0
C      1  0.4943500000000  0.4046620000000  0.5609770000000 1.0
C      1  0.4994510000000  0.4374420000000  0.5961270000000 1.0
C      1  0.5076220000000  0.4709430000000  0.5644590000000 1.0
C      1  0.4423320000000  0.4307150000000  0.5463590000000 1.0
C      1  0.3937230000000  0.5419470000000  0.5021900000000 1.0
C      1  0.4938460000000  0.6140320000000  0.5310610000000 1.0
C      1  0.5708150000000  0.5235380000000  0.5072020000000 1.0
C      1  0.4237680000000  0.4504740000000  0.4505850000000 1.0
C      1  0.4484110000000  0.5435010000000  0.4068980000000 1.0
C      1  0.4004700000000  0.5200640000000  0.5422750000000 1.0
C      1  0.4811410000000  0.4586840000000  0.3889090000000 1.0
C      1  0.5046680000000  0.4001780000000  0.4545000000000 1.0
C      1  0.4862300000000  0.5526530000000  0.4668870000000 1.0
C      1  0.4503490000000  0.4917740000000  0.4702530000000 1.0
C      1  0.5725360000000  0.4642120000000  0.4281510000000 1.0
C      1  0.5392080000000  0.4318000000000  0.5706300000000 1.0
C      1  0.4785840000000  0.5054760000000  0.4776820000000 1.0
C      1  0.4375420000000  0.5739370000000  0.4578990000000 1.0
C      1  0.5789540000000  0.5543270000000  0.4576160000000 1.0
C      1  0.4548320000000  0.4654200000000  0.4889110000000 1.0
C      1  0.4809890000000  0.4566900000000  0.5323500000000 1.0
C      1  0.5106550000000  0.6140750000000  0.5563290000000 1.0
C      1  0.5758150000000  0.4647110000000  0.5552360000000 1.0
C      1  0.5037730000000  0.4532820000000  0.4515920000000 1.0
C      1  0.4947130000000  0.4305720000000  0.4942690000000 1.0
C      1  0.5852710000000  0.4629640000000  0.4965560000000 1.0
C      1  0.5044480000000  0.4470900000000  0.5159230000000 1.0
C      1  0.5163150000000  0.4728490000000  0.5017240000000 1.0
C      1  0.4004490000000  0.4926240000000  0.5353340000000 1.0
C      1  0.4252010000000  0.5371320000000  0.4234390000000 1.0
C      1  0.5770490000000  0.5712730000000  0.5038130000000 1.0
C      1  0.4562060000000  0.4888470000000  0.4389820000000 1.0
C      1  0.4582890000000  0.4191150000000  0.4504620000000 1.0
C      1  0.5628460000000  0.4992570000000  0.5798400000000 1.0
C      1  0.4319430000000  0.5479020000000  0.4707540000000 1.0
C      1  0.5210900000000  0.5204350000000  0.4511590000000 1.0
C      1  0.4711270000000  0.5454930000000  0.4267450000000 1.0
C      1  0.4257230000000  0.5653120000000  0.5313870000000 1.0
C      1  0.5167570000000  0.5974140000000  0.4610950000000 1.0
C      1  0.4822910000000  0.5155840000000  0.4279530000000 1.0
C      1  0.4748810000000  0.5627920000000  0.5974590000000 1.0
C      1  0.4781610000000  0.4449490000000  0.4724610000000 1.0
C      1  0.4665460000000  0.4441520000000  0.5574960000000 1.0
C      1  0.5196730000000  0.5457630000000  0.5508550000000 1.0
C      1  0.5251490000000  0.5468520000000  0.5812280000000 1.0
C      1  0.5600930000000  0.5346710000000  0.4188490000000 1.0
C      1  0.4823480000000  0.4260130000000  0.5764070000000 1.0
C      1  0.5604290000000  0.4400360000000  0.5510820000000 1.0
C      1  0.5458400000000  0.4521220000000  0.4246930000000 1.0
C      1  0.5230110000000  0.4110280000000  0.5556540000000 1.0
C      1  0.4020360000000  0.4656950000000  0.4629910000000 1.0
C      1  0.5060840000000  0.6222830000000  0.5067130000000 1.0
C      1  0.5244840000000  0.4257350000000  0.5294050000000 1.0
C      1  0.4435130000000  0.4602120000000  0.4300600000000 1.0
C      1  0.5989070000000  0.5136490000000  0.4941890000000 1.0
C      1  0.5425490000000  0.4262050000000  0.4377430000000 1.0
C      1  0.5453820000000  0.5860240000000  0.5745620000000 1.0
C      1  0.4313210000000  0.4245240000000  0.4612970000000 1.0
C      1  0.4444970000000  0.5157390000000  0.3975670000000 1.0
C      1  0.5710400000000  0.4864400000000  0.5347340000000 1.0
C      1  0.5212290000000  0.4526980000000  0.5844610000000 1.0
C      1  0.4767410000000  0.5337640000000  0.4876380000000 1.0
C      1  0.5362220000000  0.5242480000000  0.5366980000000 1.0
C      1  0.4336720000000  0.4798100000000  0.5726750000000 1.0
C      1  0.5624920000000  0.4286420000000  0.5224700000000 1.0
C      1  0.4344920000000  0.5262020000000  0.4485250000000 1.0
C      1  0.4027220000000  0.5375860000000  0.4765720000000 1.0
C      1  0.4220860000000  0.4761730000000  0.5456010000000 1.0
C      1  0.4452830000000  0.5592650000000  0.5513840000000 1.0
C      1  0.5950250000000  0.5099490000000  0.4402500000000 1.0
C      1  0.4712400000000  0.5998220000000  0.4810260000000 1.0
C      1  0.5513450000000  0.4801270000000  0.4580370000000 1.0
C      1  0.5251730000000  0.3848290000000  0.4681650000000 1.0
C      1  0.5884080000000  0.5500690000000  0.4847660000000 1.0
C      1  0.5382310000000  0.4981240000000  0.5951850000000 1.0
C      1  0.4726570000000  0.5194090000000  0.5517890000000 1.0
C      1  0.5685780000000  0.5508350000000  0.5235970000000 1.0
C      1  0.4896860000000  0.5417300000000  0.5410820000000 1.0
C      1  0.5465230000000  0.5123660000000  0.4935480000000 1.0
C      1  0.4687940000000  0.4786000000000  0.5148220000000 1.0
C      1  0.5905490000000  0.5272050000000  0.5536920000000 1.0
C      1  0.5788680000000  0.4922870000000  0.4194350000000 1.0
C      1  0.5441650000000  0.4437380000000  0.4824280000000 1.0
C      1  0.4673110000000  0.5731670000000  0.4537590000000 1.0
C      1  0.3924940000000  0.4841820000000  0.5096710000000 1.0
C      1  0.5392920000000  0.4817820000000  0.5238350000000 1.0
C      1  0.5079820000000  0.4592360000000  0.3957150000000 1.0
C      1  0.5205920000000  0.4683240000000  0.4208290000000 1.0
C      1  0.5059080000000  0.5178890000000  0.4096260000000 1.0
C      1  0.4145940000000  0.5075500000000  0.4665620000000 1.0
C      1  0.5164370000000  0.5504150000000  0.4612360000000 1.0
C      1  0.5197200000000  0.5220160000000  0.5975700000000 1.0
C      1  0.4518210000000  0.5028630000000  0.5308310000000 1.0
C      1  0.4271410000000  0.4501060000000  0.5013600000000 1.0
C      1  0.4308520000000  0.5014370000000  0.5902830000000 1.0
C      1  0.5285040000000  0.5523730000000  0.4895570000000 1.0
C      1  0.5995840000000  0.4382470000000  0.4871150000000 1.0
C      1  0.4268940000000  0.5969300000000  0.4705250000000 1.0
C      1  0.5136570000000  0.4250720000000  0.4409370000000 1.0
C      1  0.5272620000000  0.4644870000000  0.4716850000000 1.0
C      1  0.4917030000000  0.5846090000000  0.5290810000000 1.0
C      1  0.4793290000000  0.4369100000000  0.4060690000000 1.0
C      1  0.4773130000000  0.4017170000000  0.4655500000000 1.0
C      1  0.4665650000000  0.4412260000000  0.4314200000000 1.0
C      1  0.4029870000000  0.4646660000000  0.4921860000000 1.0
C      1  0.5813810000000  0.4752070000000  0.4698380000000 1.0
C      1  0.4366800000000  0.4958370000000  0.4167830000000 1.0
C      1  0.4918420000000  0.4910990000000  0.5008270000000 1.0
C      1  0.4840300000000  0.4815960000000  0.5794670000000 1.0
C      1  0.4784830000000  0.3975960000000  0.5363980000000 1.0
C      1  0.5459200000000  0.5638040000000  0.5896300000000 1.0
C      1  0.5550340000000  0.5075160000000  0.4089520000000 1.0
C      1  0.4258890000000  0.4502960000000  0.5317130000000 1.0
C      1  0.4892720000000  0.3845490000000  0.5117150000000 1.0
C      1  0.5376200000000  0.5526340000000  0.4277030000000 1.0
C      1  0.5562010000000  0.4231610000000  0.4649420000000 1.0
C      1  0.4993350000000  0.6062510000000  0.4840200000000 1.0
C      1  0.5765230000000  0.4747630000000  0.5813790000000 1.0
C      1  0.5930810000000  0.4536690000000  0.4509210000000 1.0
C      1  0.5733480000000  0.5291000000000  0.4443130000000 1.0
C      1  0.5275130000000  0.5781750000000  0.5037430000000 1.0
C      1  0.4741860000000  0.5689530000000  0.5488710000000 1.0
C      1  0.4593460000000  0.4666310000000  0.5749890000000 1.0
C      1  0.5090690000000  0.4028220000000  0.4980870000000 1.0
C      1  0.5210680000000  0.5757480000000  0.5341420000000 1.0
C      1  0.5063470000000  0.5843810000000  0.4373990000000 1.0
C      1  0.5535220000000  0.5915340000000  0.4958120000000 1.0
C      1  0.5586600000000  0.4530720000000  0.5058440000000 1.0
C      1  0.4447480000000  0.4020730000000  0.5037030000000 1.0
C      1  0.5663130000000  0.5115820000000  0.5522660000000 1.0
C      1  0.4363900000000  0.5215810000000  0.5117610000000 1.0
C      1  0.3961180000000  0.4909060000000  0.4516270000000 1.0
C      1  0.5459720000000  0.5928340000000  0.4658200000000 1.0
C      1  0.5989550000000  0.4983900000000  0.4674140000000 1.0
C      1  0.5141050000000  0.5469360000000  0.4092200000000 1.0
C      1  0.5341730000000  0.5965920000000  0.5512830000000 1.0
C      1  0.5467560000000  0.5094060000000  0.4640240000000 1.0
C      1  0.4131500000000  0.5374620000000  0.5226640000000 1.0
C      1  0.4431380000000  0.5261540000000  0.5877910000000 1.0
C      1  0.4678190000000  0.3877640000000  0.4902890000000 1.0
C      1  0.4825620000000  0.5104530000000  0.5784530000000 1.0
C      1  0.5543800000000  0.5690380000000  0.4505490000000 1.0
C      1  0.4938430000000  0.5651790000000  0.4193000000000 1.0
C      1  0.4944090000000  0.5340180000000  0.5118910000000 1.0
C      1  0.4686380000000  0.5358610000000  0.6041490000000 1.0
C      1  0.5864220000000  0.4269580000000  0.4634950000000 1.0
C      1  0.5467200000000  0.4020550000000  0.5088410000000 1.0
C      1  0.5238980000000  0.5278880000000  0.5065760000000 1.0
C      1  0.5485690000000  0.3977970000000  0.4791440000000 1.0
C      1  0.4961390000000  0.6024040000000  0.5777900000000 1.0
C      1  0.4950500000000  0.5055560000000  0.4532840000000 1.0
C      1  0.5835420000000  0.5521580000000  0.5470650000000 1.0
C      1  0.4451920000000  0.5305580000000  0.5584680000000 1.0
C      1  0.5937910000000  0.4877500000000  0.5135070000000 1.0
C      1  0.4943220000000  0.5214090000000  0.6130480000000 1.0
END
