TITL C-950527-2551-445 -1.43939662128302e-06 125000 -265.092125807487 0 0 44 (C1) n - 1
REM
REM in /home/bkarasulu/work/CARBON/AIRSS/Generating-Clusters/EDIP-Nigel-Params/with-SteepDescent/Only-C1/SD-CG/HFTN-CG
REM
REM
REM
REM
REM
REM ./C.cell (11c1c37f851c82e70ff6c80c92926a4b)
REM
REM compiler GCC version 9.2.1 20190827 (Red Hat 9.2.1-1)
REM options -cpp -mtune=generic -march=x86-64 -g -O0 -fpre-include=/usr/include/finclude/math-vector-fortran.h
REM seed 1958971408 2104797654 1541833790 1570259516 -671809318 -177605018 1987825000 454221354 -711526745 -2042406356 809226726 218700543 1844881141 162137965 52771977 454987290 -2028539842 1700584946 38171328 339247983 -1819120900 -2051200542 -14715929 -950555677 -2113712704 -1602818090 541304788 -332572734 1329824110 944533572 -103573744 1182288811 -1183307501
REM
CELL 1.54180   50.00000   50.00000   50.00000   90.00000   90.00000   90.00000
LATT -1
SFAC C  
C      1  0.4793860000000  0.4485190000000  0.5059240000000 1.0
C      1  0.5563340000000  0.5145780000000  0.5232440000000 1.0
C      1  0.4908920000000  0.4957650000000  0.4400740000000 1.0
C      1  0.5097270000000  0.5351870000000  0.4837740000000 1.0
C      1  0.5507270000000  0.5216170000000  0.5503200000000 1.0
C      1  0.4840700000000  0.4889980000000  0.5700260000000 1.0
C      1  0.4451950000000  0.4949640000000  0.4598860000000 1.0
C      1  0.5501110000000  0.5349190000000  0.4537810000000 1.0
C      1  0.5152510000000  0.4859230000000  0.5014930000000 1.0
C      1  0.5336560000000  0.5539840000000  0.5215580000000 1.0
C      1  0.5438520000000  0.4882840000000  0.5139200000000 1.0
C      1  0.4805030000000  0.5171540000000  0.5648280000000 1.0
C      1  0.4969690000000  0.5091760000000  0.4932530000000 1.0
C      1  0.4478450000000  0.5320850000000  0.4995570000000 1.0
C      1  0.5183180000000  0.4599890000000  0.4560190000000 1.0
C      1  0.4873370000000  0.5449680000000  0.5260500000000 1.0
C      1  0.5044580000000  0.4435550000000  0.5462000000000 1.0
C      1  0.5525100000000  0.5372900000000  0.5044240000000 1.0
C      1  0.5174980000000  0.4585100000000  0.4852410000000 1.0
C      1  0.4451330000000  0.4836180000000  0.4857730000000 1.0
C      1  0.4818110000000  0.4543620000000  0.5342210000000 1.0
C      1  0.4514690000000  0.4972320000000  0.5376480000000 1.0
C      1  0.5613600000000  0.4693640000000  0.4987370000000 1.0
C      1  0.4944260000000  0.5437740000000  0.4603630000000 1.0
C      1  0.4630750000000  0.4610130000000  0.4853980000000 1.0
C      1  0.4679060000000  0.5365070000000  0.4533010000000 1.0
C      1  0.5458340000000  0.4523020000000  0.4822660000000 1.0
C      1  0.5006980000000  0.5301020000000  0.5470200000000 1.0
C      1  0.4749800000000  0.5218370000000  0.5116410000000 1.0
C      1  0.5493200000000  0.4671260000000  0.5345410000000 1.0
C      1  0.5123480000000  0.5098470000000  0.4293460000000 1.0
C      1  0.5388890000000  0.5302540000000  0.4788870000000 1.0
C      1  0.5303930000000  0.4496910000000  0.5441120000000 1.0
C      1  0.4930180000000  0.4672650000000  0.4449560000000 1.0
C      1  0.4411390000000  0.5028110000000  0.5087070000000 1.0
C      1  0.4538610000000  0.5202470000000  0.5545040000000 1.0
C      1  0.5289990000000  0.5395030000000  0.5475620000000 1.0
C      1  0.4713530000000  0.4779610000000  0.5468540000000 1.0
C      1  0.4486580000000  0.5407570000000  0.4730430000000 1.0
C      1  0.5017910000000  0.4352330000000  0.4951890000000 1.0
C      1  0.4652560000000  0.5086500000000  0.4451090000000 1.0
C      1  0.4717310000000  0.4557180000000  0.4593170000000 1.0
C      1  0.5075670000000  0.5553550000000  0.5068990000000 1.0
C      1  0.5343460000000  0.5240080000000  0.4350360000000 1.0
END
