TITL C-950523-3027-629 -5.35963984157974e-07 125000 -1121.02357381304 0 0 178 (C1) n - 1
REM
REM in /home/bkarasulu/work/CARBON/AIRSS/Generating-Clusters/EDIP-Nigel-Params/with-SteepDescent/Only-C1/SD-CG/HFTN-CG
REM
REM
REM
REM
REM
REM ./C.cell (11c1c37f851c82e70ff6c80c92926a4b)
REM
REM compiler GCC version 9.2.1 20190827 (Red Hat 9.2.1-1)
REM options -cpp -mtune=generic -march=x86-64 -g -O0 -fpre-include=/usr/include/finclude/math-vector-fortran.h
REM seed -386864365 -10361716 -1616458687 990068774 1282059986 -1816583074 1869967859 -1275194242 781403949 -1911410181 -1314281773 1867867645 -482233457 -615289411 -434607684 1299344100 118334736 -370882357 -929693266 -2049269986 2008130432 731014235 131501249 1002676228 -1638514896 1001655867 -386762875 -105562777 1137825545 74127829 1641121833 1043082476 -285476152
REM
CELL 1.54180   50.00000   50.00000   50.00000   90.00000   90.00000   90.00000
LATT -1
SFAC C  
C      1  0.4376740000000  0.4290770000000  0.5622390000000 1.0
C      1  0.5159580000000  0.4015650000000  0.4926630000000 1.0
C      1  0.4348700000000  0.5004790000000  0.4677270000000 1.0
C      1  0.3970200000000  0.5449440000000  0.5113180000000 1.0
C      1  0.5890100000000  0.4473690000000  0.5597330000000 1.0
C      1  0.4283610000000  0.5687170000000  0.4404420000000 1.0
C      1  0.5321870000000  0.4924390000000  0.3938610000000 1.0
C      1  0.4874780000000  0.5669330000000  0.5490110000000 1.0
C      1  0.4917910000000  0.5233960000000  0.6014330000000 1.0
C      1  0.4949550000000  0.3986090000000  0.5398460000000 1.0
C      1  0.5378400000000  0.5220510000000  0.3985010000000 1.0
C      1  0.4826550000000  0.5501950000000  0.5919130000000 1.0
C      1  0.5319380000000  0.5701180000000  0.4350230000000 1.0
C      1  0.3947710000000  0.4468550000000  0.5417690000000 1.0
C      1  0.5111160000000  0.4615770000000  0.4211300000000 1.0
C      1  0.5746280000000  0.4379640000000  0.5117490000000 1.0
C      1  0.5336140000000  0.5451520000000  0.4925550000000 1.0
C      1  0.5944750000000  0.4480180000000  0.5322300000000 1.0
C      1  0.4123450000000  0.4869040000000  0.5116990000000 1.0
C      1  0.4757530000000  0.4996870000000  0.5942130000000 1.0
C      1  0.4035740000000  0.5109990000000  0.4643480000000 1.0
C      1  0.3799940000000  0.4983700000000  0.5294010000000 1.0
C      1  0.4471670000000  0.5696460000000  0.4838040000000 1.0
C      1  0.5026430000000  0.5662660000000  0.5745320000000 1.0
C      1  0.3897250000000  0.4759010000000  0.5477220000000 1.0
C      1  0.4395010000000  0.4093080000000  0.4898160000000 1.0
C      1  0.4820690000000  0.5336550000000  0.4784790000000 1.0
C      1  0.5025830000000  0.4816410000000  0.3824450000000 1.0
C      1  0.4597120000000  0.4838870000000  0.4074550000000 1.0
C      1  0.4583440000000  0.5939450000000  0.5190950000000 1.0
C      1  0.4365870000000  0.5439360000000  0.4761310000000 1.0
C      1  0.4339720000000  0.4259270000000  0.4391710000000 1.0
C      1  0.5381870000000  0.5418560000000  0.5970190000000 1.0
C      1  0.4314460000000  0.5848150000000  0.5050390000000 1.0
C      1  0.5603450000000  0.5313830000000  0.4159700000000 1.0
C      1  0.4672440000000  0.4013990000000  0.4961770000000 1.0
C      1  0.4650020000000  0.4544320000000  0.4101170000000 1.0
C      1  0.5727690000000  0.5568460000000  0.5556950000000 1.0
C      1  0.4669440000000  0.4627940000000  0.5389720000000 1.0
C      1  0.4149950000000  0.4453980000000  0.4303900000000 1.0
C      1  0.5610380000000  0.4104020000000  0.5109570000000 1.0
C      1  0.5744300000000  0.4909120000000  0.5373650000000 1.0
C      1  0.6057880000000  0.5179780000000  0.5121710000000 1.0
C      1  0.4735780000000  0.5563280000000  0.5005840000000 1.0
C      1  0.5228200000000  0.5976860000000  0.4680240000000 1.0
C      1  0.6212430000000  0.5191870000000  0.5367810000000 1.0
C      1  0.5179830000000  0.5139360000000  0.5614530000000 1.0
C      1  0.5511890000000  0.4704420000000  0.5475900000000 1.0
C      1  0.5246890000000  0.5178920000000  0.4576710000000 1.0
C      1  0.4471430000000  0.5001300000000  0.5873490000000 1.0
C      1  0.5335160000000  0.4950860000000  0.6049670000000 1.0
C      1  0.4621800000000  0.4359220000000  0.4375060000000 1.0
C      1  0.4210550000000  0.5433530000000  0.4292940000000 1.0
C      1  0.5586080000000  0.5127700000000  0.5227740000000 1.0
C      1  0.4104080000000  0.4391820000000  0.5177020000000 1.0
C      1  0.4737560000000  0.5405530000000  0.5497240000000 1.0
C      1  0.4224690000000  0.4614150000000  0.5019490000000 1.0
C      1  0.4094450000000  0.4665850000000  0.5782290000000 1.0
C      1  0.5362930000000  0.4468770000000  0.4146510000000 1.0
C      1  0.4244290000000  0.4131480000000  0.5157060000000 1.0
C      1  0.5069570000000  0.4203680000000  0.5556740000000 1.0
C      1  0.5857040000000  0.5565640000000  0.5300420000000 1.0
C      1  0.5104680000000  0.4689420000000  0.5049790000000 1.0
C      1  0.5233540000000  0.5480920000000  0.5203310000000 1.0
C      1  0.4995020000000  0.4294180000000  0.5827860000000 1.0
C      1  0.5249670000000  0.5166180000000  0.4863750000000 1.0
C      1  0.4008500000000  0.4701960000000  0.4341440000000 1.0
C      1  0.5878260000000  0.5193010000000  0.4272130000000 1.0
C      1  0.4554030000000  0.4536610000000  0.5666860000000 1.0
C      1  0.4688440000000  0.5398810000000  0.4181760000000 1.0
C      1  0.5568300000000  0.5598950000000  0.4247480000000 1.0
C      1  0.5790350000000  0.5666560000000  0.4420900000000 1.0
C      1  0.5157110000000  0.4923240000000  0.4227990000000 1.0
C      1  0.3943790000000  0.5250990000000  0.5345370000000 1.0
C      1  0.5256710000000  0.4862540000000  0.5510380000000 1.0
C      1  0.5444270000000  0.3989510000000  0.5336700000000 1.0
C      1  0.5199270000000  0.5183110000000  0.5929350000000 1.0
C      1  0.4835100000000  0.4120840000000  0.4481970000000 1.0
C      1  0.4321860000000  0.5061010000000  0.4993950000000 1.0
C      1  0.5733290000000  0.5303990000000  0.5687800000000 1.0
C      1  0.4087230000000  0.4383720000000  0.5668630000000 1.0
C      1  0.6180340000000  0.5182300000000  0.4847430000000 1.0
C      1  0.5447840000000  0.5963680000000  0.5376630000000 1.0
C      1  0.5098360000000  0.5611220000000  0.4199220000000 1.0
C      1  0.5839880000000  0.5798870000000  0.5125130000000 1.0
C      1  0.5131730000000  0.5371120000000  0.4037860000000 1.0
C      1  0.4930500000000  0.5929870000000  0.4724070000000 1.0
C      1  0.4644260000000  0.5864640000000  0.5480260000000 1.0
C      1  0.4922510000000  0.4551420000000  0.3980240000000 1.0
C      1  0.4368890000000  0.4749930000000  0.5768140000000 1.0
C      1  0.5424080000000  0.4428320000000  0.4762730000000 1.0
C      1  0.4532240000000  0.4684930000000  0.5030840000000 1.0
C      1  0.5611790000000  0.5000780000000  0.6058830000000 1.0
C      1  0.4779000000000  0.4497510000000  0.5863320000000 1.0
C      1  0.4711270000000  0.4096110000000  0.5252070000000 1.0
C      1  0.5363050000000  0.4227220000000  0.5510370000000 1.0
C      1  0.5409100000000  0.4449530000000  0.5298480000000 1.0
C      1  0.5936930000000  0.4920410000000  0.4432280000000 1.0
C      1  0.5313800000000  0.5568900000000  0.5716010000000 1.0
C      1  0.5188260000000  0.6086360000000  0.5361970000000 1.0
C      1  0.5368100000000  0.5339260000000  0.5441080000000 1.0
C      1  0.4342710000000  0.4713360000000  0.4577010000000 1.0
C      1  0.4895570000000  0.4091530000000  0.4783660000000 1.0
C      1  0.4832700000000  0.5035350000000  0.4384580000000 1.0
C      1  0.3845440000000  0.4901090000000  0.4979000000000 1.0
C      1  0.5368970000000  0.4686820000000  0.4938990000000 1.0
C      1  0.5644140000000  0.5007130000000  0.4676110000000 1.0
C      1  0.5543690000000  0.4707150000000  0.4173170000000 1.0
C      1  0.5796440000000  0.5329070000000  0.5132900000000 1.0
C      1  0.4986720000000  0.5308460000000  0.4498120000000 1.0
C      1  0.5957780000000  0.4759120000000  0.5210830000000 1.0
C      1  0.4879460000000  0.5149020000000  0.5545300000000 1.0
C      1  0.4345870000000  0.5254670000000  0.5787670000000 1.0
C      1  0.4182890000000  0.5285570000000  0.5529120000000 1.0
C      1  0.4789800000000  0.4936910000000  0.5338230000000 1.0
C      1  0.4433700000000  0.4102710000000  0.5387350000000 1.0
C      1  0.5901630000000  0.5078140000000  0.5584130000000 1.0
C      1  0.5173730000000  0.3902140000000  0.5211240000000 1.0
C      1  0.5635730000000  0.5268340000000  0.5958670000000 1.0
C      1  0.4655020000000  0.4449670000000  0.4888000000000 1.0
C      1  0.4863280000000  0.4835730000000  0.4889710000000 1.0
C      1  0.4612320000000  0.4569960000000  0.4604080000000 1.0
C      1  0.4099970000000  0.4957660000000  0.4225250000000 1.0
C      1  0.5479390000000  0.4332080000000  0.5778500000000 1.0
C      1  0.4132390000000  0.4590980000000  0.4746130000000 1.0
C      1  0.5474790000000  0.4972420000000  0.4942940000000 1.0
C      1  0.4798290000000  0.4387260000000  0.5207280000000 1.0
C      1  0.6068490000000  0.4932060000000  0.4717110000000 1.0
C      1  0.5163230000000  0.5596490000000  0.4682340000000 1.0
C      1  0.5180940000000  0.4708020000000  0.5992060000000 1.0
C      1  0.4583040000000  0.5393190000000  0.5235190000000 1.0
C      1  0.4465580000000  0.5827560000000  0.4572260000000 1.0
C      1  0.5078700000000  0.4083280000000  0.4320440000000 1.0
C      1  0.5085120000000  0.4870290000000  0.5272990000000 1.0
C      1  0.4137450000000  0.5674280000000  0.5223570000000 1.0
C      1  0.4008550000000  0.5211300000000  0.4359970000000 1.0
C      1  0.5854270000000  0.4494960000000  0.4852830000000 1.0
C      1  0.5657160000000  0.5465500000000  0.4895410000000 1.0
C      1  0.5688910000000  0.4476370000000  0.4611320000000 1.0
C      1  0.5423410000000  0.4147020000000  0.4890010000000 1.0
C      1  0.4819870000000  0.5648730000000  0.4279140000000 1.0
C      1  0.4294790000000  0.4120500000000  0.4632820000000 1.0
C      1  0.5737100000000  0.4687500000000  0.4398680000000 1.0
C      1  0.5094460000000  0.4435840000000  0.5180250000000 1.0
C      1  0.4998560000000  0.5661000000000  0.5214580000000 1.0
C      1  0.5913660000000  0.5403790000000  0.4496410000000 1.0
C      1  0.3888110000000  0.4759550000000  0.4708890000000 1.0
C      1  0.5073590000000  0.5939440000000  0.5144580000000 1.0
C      1  0.5243680000000  0.4417850000000  0.5946610000000 1.0
C      1  0.4822600000000  0.6012440000000  0.5006710000000 1.0
C      1  0.4097260000000  0.5346700000000  0.4849120000000 1.0
C      1  0.6188500000000  0.5086080000000  0.5618160000000 1.0
C      1  0.6127230000000  0.5432200000000  0.4700770000000 1.0
C      1  0.4527410000000  0.5498350000000  0.5810560000000 1.0
C      1  0.5485820000000  0.5919360000000  0.4815920000000 1.0
C      1  0.5520580000000  0.5781160000000  0.5612040000000 1.0
C      1  0.5399210000000  0.4964580000000  0.4436370000000 1.0
C      1  0.5046390000000  0.4587850000000  0.4492300000000 1.0
C      1  0.5728280000000  0.5831700000000  0.4663070000000 1.0
C      1  0.4422550000000  0.5294250000000  0.4163700000000 1.0
C      1  0.5184650000000  0.4353520000000  0.4582430000000 1.0
C      1  0.4578500000000  0.5103270000000  0.5156480000000 1.0
C      1  0.4319770000000  0.5523190000000  0.5400660000000 1.0
C      1  0.4870410000000  0.5258540000000  0.4010720000000 1.0
C      1  0.4817500000000  0.4981200000000  0.3950470000000 1.0
C      1  0.4745020000000  0.5839510000000  0.4496920000000 1.0
C      1  0.4430610000000  0.5708940000000  0.5611360000000 1.0
C      1  0.5932920000000  0.5729320000000  0.4847900000000 1.0
C      1  0.4566310000000  0.5230600000000  0.4573330000000 1.0
C      1  0.5331340000000  0.4236040000000  0.4333150000000 1.0
C      1  0.4956780000000  0.5119390000000  0.4931980000000 1.0
C      1  0.4377480000000  0.5009890000000  0.4158510000000 1.0
C      1  0.5647710000000  0.4559840000000  0.5707890000000 1.0
C      1  0.5571430000000  0.5910080000000  0.5108940000000 1.0
C      1  0.5701190000000  0.5299310000000  0.4665350000000 1.0
C      1  0.4841270000000  0.4771940000000  0.4587970000000 1.0
C      1  0.4893340000000  0.4740040000000  0.5972620000000 1.0
C      1  0.5925800000000  0.4764260000000  0.4914800000000 1.0
END
