TITL C-950527-2551-365 -1.32314444989819e-06 125000 -488.531038646063 0 0 81 (C1) n - 1
REM
REM in /home/bkarasulu/work/CARBON/AIRSS/Generating-Clusters/EDIP-Nigel-Params/with-SteepDescent/Only-C1/SD-CG/HFTN-CG
REM
REM
REM
REM
REM
REM ./C.cell (11c1c37f851c82e70ff6c80c92926a4b)
REM
REM compiler GCC version 9.2.1 20190827 (Red Hat 9.2.1-1)
REM options -cpp -mtune=generic -march=x86-64 -g -O0 -fpre-include=/usr/include/finclude/math-vector-fortran.h
REM seed -671632165 996628183 -938207895 -1643336277 -978342901 -1474969690 -232767490 1129020120 2101275554 -1426474653 -1531249529 784532781 -1561067795 -354240082 -221486319 1821868943 365280244 -2084043301 299519946 -341518838 -2129223524 1831461080 -153589202 1879631483 1327475800 -811760623 1150461985 1114103134 1280180905 641637535 -2087670785 -1511773922 -1882799033
REM
CELL 1.54180   50.00000   50.00000   50.00000   90.00000   90.00000   90.00000
LATT -1
SFAC C  
C      1  0.4321420000000  0.5445340000000  0.4832030000000 1.0
C      1  0.4200930000000  0.4930420000000  0.4862030000000 1.0
C      1  0.4550050000000  0.5204080000000  0.5653710000000 1.0
C      1  0.5208240000000  0.4272700000000  0.5193080000000 1.0
C      1  0.4936990000000  0.5511410000000  0.4471710000000 1.0
C      1  0.4562570000000  0.5828740000000  0.5066090000000 1.0
C      1  0.4631900000000  0.4579640000000  0.4304990000000 1.0
C      1  0.4890330000000  0.4686120000000  0.4434000000000 1.0
C      1  0.5318740000000  0.5239950000000  0.5211310000000 1.0
C      1  0.5050710000000  0.4109590000000  0.5391300000000 1.0
C      1  0.4591850000000  0.5382030000000  0.5442940000000 1.0
C      1  0.5708210000000  0.5053960000000  0.4461150000000 1.0
C      1  0.5089470000000  0.4738810000000  0.4223990000000 1.0
C      1  0.5314910000000  0.4393750000000  0.4457590000000 1.0
C      1  0.4956410000000  0.5422270000000  0.5692000000000 1.0
C      1  0.5138920000000  0.5192950000000  0.5741840000000 1.0
C      1  0.4927360000000  0.4744240000000  0.4738710000000 1.0
C      1  0.4532040000000  0.5335650000000  0.4406870000000 1.0
C      1  0.4160820000000  0.4896100000000  0.5137730000000 1.0
C      1  0.4538970000000  0.4380250000000  0.4931170000000 1.0
C      1  0.4304850000000  0.4711780000000  0.5297660000000 1.0
C      1  0.5378040000000  0.5377890000000  0.4636420000000 1.0
C      1  0.5698180000000  0.4437680000000  0.5155250000000 1.0
C      1  0.4688430000000  0.5127330000000  0.4286730000000 1.0
C      1  0.5611710000000  0.4348470000000  0.4707530000000 1.0
C      1  0.5153670000000  0.4175170000000  0.4902950000000 1.0
C      1  0.4501730000000  0.4376080000000  0.4444060000000 1.0
C      1  0.4767420000000  0.4178070000000  0.4968870000000 1.0
C      1  0.4609950000000  0.5258840000000  0.5172540000000 1.0
C      1  0.5419800000000  0.5304860000000  0.5753630000000 1.0
C      1  0.5487940000000  0.4302230000000  0.5252370000000 1.0
C      1  0.5772120000000  0.4494790000000  0.4893330000000 1.0
C      1  0.4466200000000  0.4495630000000  0.5188100000000 1.0
C      1  0.4786760000000  0.5778660000000  0.5233760000000 1.0
C      1  0.5319200000000  0.4663500000000  0.4363390000000 1.0
C      1  0.5630450000000  0.5203080000000  0.5599160000000 1.0
C      1  0.5162960000000  0.5811850000000  0.4739100000000 1.0
C      1  0.5081220000000  0.4217950000000  0.5652720000000 1.0
C      1  0.5200040000000  0.4702070000000  0.5730960000000 1.0
C      1  0.5143740000000  0.5452740000000  0.5290890000000 1.0
C      1  0.4771580000000  0.5003970000000  0.5168850000000 1.0
C      1  0.4822480000000  0.4872980000000  0.5452680000000 1.0
C      1  0.5567540000000  0.5651330000000  0.5001970000000 1.0
C      1  0.5744970000000  0.5230380000000  0.4932280000000 1.0
C      1  0.4570780000000  0.5629260000000  0.4853170000000 1.0
C      1  0.4355960000000  0.4782780000000  0.5561970000000 1.0
C      1  0.4584180000000  0.4928780000000  0.5627560000000 1.0
C      1  0.5083730000000  0.4932650000000  0.5615030000000 1.0
C      1  0.5412280000000  0.5148260000000  0.4450060000000 1.0
C      1  0.5313560000000  0.5799910000000  0.4984550000000 1.0
C      1  0.5747360000000  0.5259590000000  0.5343170000000 1.0
C      1  0.4763000000000  0.5421700000000  0.4954580000000 1.0
C      1  0.4550620000000  0.4864990000000  0.4375030000000 1.0
C      1  0.4957770000000  0.5241290000000  0.4342830000000 1.0
C      1  0.4771600000000  0.4129710000000  0.5271060000000 1.0
C      1  0.5854130000000  0.4750990000000  0.4817510000000 1.0
C      1  0.4647800000000  0.4380420000000  0.5382800000000 1.0
C      1  0.4735090000000  0.5212390000000  0.4714550000000 1.0
C      1  0.4372910000000  0.5257360000000  0.4621390000000 1.0
C      1  0.5395320000000  0.5582280000000  0.5710700000000 1.0
C      1  0.4956790000000  0.4513340000000  0.4915630000000 1.0
C      1  0.5327250000000  0.4351250000000  0.4736180000000 1.0
C      1  0.5196920000000  0.5587820000000  0.4564460000000 1.0
C      1  0.5150590000000  0.5598690000000  0.5560300000000 1.0
C      1  0.5602200000000  0.5452180000000  0.4796830000000 1.0
C      1  0.4882370000000  0.4571110000000  0.5415030000000 1.0
C      1  0.5392680000000  0.4864620000000  0.4557480000000 1.0
C      1  0.4994860000000  0.5609700000000  0.5088480000000 1.0
C      1  0.5710690000000  0.5528380000000  0.5225280000000 1.0
C      1  0.4328740000000  0.4762400000000  0.4671160000000 1.0
C      1  0.5029640000000  0.4493400000000  0.5655260000000 1.0
C      1  0.4747450000000  0.5720000000000  0.4608910000000 1.0
C      1  0.4421410000000  0.4487900000000  0.4686530000000 1.0
C      1  0.5826200000000  0.5015460000000  0.4727500000000 1.0
C      1  0.4322590000000  0.5237320000000  0.5056350000000 1.0
C      1  0.5565650000000  0.5111610000000  0.5159170000000 1.0
C      1  0.5076030000000  0.4546680000000  0.5185170000000 1.0
C      1  0.5211110000000  0.5165760000000  0.4233250000000 1.0
C      1  0.4791790000000  0.4961220000000  0.4870880000000 1.0
C      1  0.4716190000000  0.5637940000000  0.5479810000000 1.0
C      1  0.4910920000000  0.5935540000000  0.4700940000000 1.0
END
