TITL C-950534-5965-264 -1.78350608599194e-07 125000 -965.032436046994 0 0 154 (C1) n - 1
REM
REM in /home/bkarasulu/work/CARBON/AIRSS/Generating-Clusters/EDIP-Nigel-Params/with-SteepDescent/Only-C1/SD-CG/HFTN-CG
REM
REM
REM
REM
REM
REM ./C.cell (11c1c37f851c82e70ff6c80c92926a4b)
REM
REM compiler GCC version 9.2.1 20190827 (Red Hat 9.2.1-1)
REM options -cpp -mtune=generic -march=x86-64 -g -O0 -fpre-include=/usr/include/finclude/math-vector-fortran.h
REM seed -1490921307 175633689 816098516 390194357 -215973138 -2145967999 1188949331 415670550 -1724860813 934354139 -1940745962 -498850850 -1191476355 -87843615 1438900906 1303855204 -1439188864 -1981127691 1476895446 1555260482 566078221 -1752995018 1299544969 -1443205113 1193295255 -1763082701 1797079749 1711093712 -1507062153 -605506487 -581087374 -1313426460 -2027634815
REM
CELL 1.54180   50.00000   50.00000   50.00000   90.00000   90.00000   90.00000
LATT -1
SFAC C  
C      1  0.5924210000000  0.5381870000000  0.4986390000000 1.0
C      1  0.4008680000000  0.5477690000000  0.4921680000000 1.0
C      1  0.4555030000000  0.4253960000000  0.5570020000000 1.0
C      1  0.4312610000000  0.5360750000000  0.4230730000000 1.0
C      1  0.4871880000000  0.4801340000000  0.4099160000000 1.0
C      1  0.6033110000000  0.4977260000000  0.4689270000000 1.0
C      1  0.4251310000000  0.5480310000000  0.4735900000000 1.0
C      1  0.4797350000000  0.4551680000000  0.4964160000000 1.0
C      1  0.5068600000000  0.5396810000000  0.5799320000000 1.0
C      1  0.5366550000000  0.5639250000000  0.4397260000000 1.0
C      1  0.3956540000000  0.5434840000000  0.5654090000000 1.0
C      1  0.4398120000000  0.5055050000000  0.5326230000000 1.0
C      1  0.4446970000000  0.5797150000000  0.4393410000000 1.0
C      1  0.5001280000000  0.4367810000000  0.5072770000000 1.0
C      1  0.5494800000000  0.5245930000000  0.4111940000000 1.0
C      1  0.5138820000000  0.5940800000000  0.5155910000000 1.0
C      1  0.5497620000000  0.4251300000000  0.4994330000000 1.0
C      1  0.5960790000000  0.5208770000000  0.5228190000000 1.0
C      1  0.4507990000000  0.4050750000000  0.5346720000000 1.0
C      1  0.5639660000000  0.5863830000000  0.5231670000000 1.0
C      1  0.5535470000000  0.4574480000000  0.5851720000000 1.0
C      1  0.4886590000000  0.4036880000000  0.4470010000000 1.0
C      1  0.4399220000000  0.4798220000000  0.4297530000000 1.0
C      1  0.4988330000000  0.5536430000000  0.4115740000000 1.0
C      1  0.4903750000000  0.4502710000000  0.6012180000000 1.0
C      1  0.4614820000000  0.4962860000000  0.5151590000000 1.0
C      1  0.4741980000000  0.5423910000000  0.4309320000000 1.0
C      1  0.5229450000000  0.4069060000000  0.5390370000000 1.0
C      1  0.5603000000000  0.5139170000000  0.4380070000000 1.0
C      1  0.4755730000000  0.5671450000000  0.5609860000000 1.0
C      1  0.4340390000000  0.4896510000000  0.4032210000000 1.0
C      1  0.5074520000000  0.6195280000000  0.5282550000000 1.0
C      1  0.4366840000000  0.5630380000000  0.4184750000000 1.0
C      1  0.4426150000000  0.4667990000000  0.5817620000000 1.0
C      1  0.5951560000000  0.5345820000000  0.5724230000000 1.0
C      1  0.4747440000000  0.4942030000000  0.4599180000000 1.0
C      1  0.4399350000000  0.4710160000000  0.4846440000000 1.0
C      1  0.5255820000000  0.5425240000000  0.4217750000000 1.0
C      1  0.4608110000000  0.4102060000000  0.4613350000000 1.0
C      1  0.5127580000000  0.3908640000000  0.4965590000000 1.0
C      1  0.5135970000000  0.6061520000000  0.4582400000000 1.0
C      1  0.5593730000000  0.4656810000000  0.4256050000000 1.0
C      1  0.3948170000000  0.5241150000000  0.5058620000000 1.0
C      1  0.5578520000000  0.4391380000000  0.4402160000000 1.0
C      1  0.4550300000000  0.4657350000000  0.5082640000000 1.0
C      1  0.4858600000000  0.4930130000000  0.5317760000000 1.0
C      1  0.5676730000000  0.4759580000000  0.4952580000000 1.0
C      1  0.4952760000000  0.5858930000000  0.4932810000000 1.0
C      1  0.4224120000000  0.4576660000000  0.5356800000000 1.0
C      1  0.4497060000000  0.5453860000000  0.4929500000000 1.0
C      1  0.5225750000000  0.5617200000000  0.5703450000000 1.0
C      1  0.5030400000000  0.5773890000000  0.5548140000000 1.0
C      1  0.6064890000000  0.4933690000000  0.5178640000000 1.0
C      1  0.3941430000000  0.4829570000000  0.4893520000000 1.0
C      1  0.5418330000000  0.5921050000000  0.5044890000000 1.0
C      1  0.5171250000000  0.4820620000000  0.4930370000000 1.0
C      1  0.5582940000000  0.5592490000000  0.5331730000000 1.0
C      1  0.4381320000000  0.4494080000000  0.5587970000000 1.0
C      1  0.5232580000000  0.5112550000000  0.4846480000000 1.0
C      1  0.4202650000000  0.5662690000000  0.5277190000000 1.0
C      1  0.4638460000000  0.4598160000000  0.5985800000000 1.0
C      1  0.5848380000000  0.5667470000000  0.4986170000000 1.0
C      1  0.5096350000000  0.4721180000000  0.6060580000000 1.0
C      1  0.4259590000000  0.4981250000000  0.4525490000000 1.0
C      1  0.4075390000000  0.4948960000000  0.5642850000000 1.0
C      1  0.4934180000000  0.6083320000000  0.4763610000000 1.0
C      1  0.5393440000000  0.5482150000000  0.5136180000000 1.0
C      1  0.4440860000000  0.5298630000000  0.5502530000000 1.0
C      1  0.5512310000000  0.5563230000000  0.5621990000000 1.0
C      1  0.5113630000000  0.4630990000000  0.4104420000000 1.0
C      1  0.4339960000000  0.4510140000000  0.4374510000000 1.0
C      1  0.4565790000000  0.5210930000000  0.5775860000000 1.0
C      1  0.4306940000000  0.4929550000000  0.5816510000000 1.0
C      1  0.5002070000000  0.5173240000000  0.5427500000000 1.0
C      1  0.5952320000000  0.4467260000000  0.5212810000000 1.0
C      1  0.5291880000000  0.5073250000000  0.5338130000000 1.0
C      1  0.5499510000000  0.5127900000000  0.5553170000000 1.0
C      1  0.5302340000000  0.4608900000000  0.4768850000000 1.0
C      1  0.5163420000000  0.4103690000000  0.4588130000000 1.0
C      1  0.4283630000000  0.5743940000000  0.4616260000000 1.0
C      1  0.4844450000000  0.4787490000000  0.5564100000000 1.0
C      1  0.5417170000000  0.5017820000000  0.5830150000000 1.0
C      1  0.4027750000000  0.4797800000000  0.4628840000000 1.0
C      1  0.3995840000000  0.5702770000000  0.5087770000000 1.0
C      1  0.4187360000000  0.5469280000000  0.5500160000000 1.0
C      1  0.4727530000000  0.5717630000000  0.4426250000000 1.0
C      1  0.5936550000000  0.5252430000000  0.4723100000000 1.0
C      1  0.5084150000000  0.5619630000000  0.4804210000000 1.0
C      1  0.4835270000000  0.3887320000000  0.4999070000000 1.0
C      1  0.5739040000000  0.4823080000000  0.5520400000000 1.0
C      1  0.4831130000000  0.5031020000000  0.5747210000000 1.0
C      1  0.5379180000000  0.5204050000000  0.5087910000000 1.0
C      1  0.5137630000000  0.5179450000000  0.4371250000000 1.0
C      1  0.4586170000000  0.4358470000000  0.4443450000000 1.0
C      1  0.4474130000000  0.5633240000000  0.5164890000000 1.0
C      1  0.4946490000000  0.5082530000000  0.4041980000000 1.0
C      1  0.5353180000000  0.5097230000000  0.4559650000000 1.0
C      1  0.4163570000000  0.4537270000000  0.4605160000000 1.0
C      1  0.4974290000000  0.4990530000000  0.6024360000000 1.0
C      1  0.5583180000000  0.4646810000000  0.4695550000000 1.0
C      1  0.5974050000000  0.4804960000000  0.4923000000000 1.0
C      1  0.4857420000000  0.5368390000000  0.5250500000000 1.0
C      1  0.4899640000000  0.4783140000000  0.4822370000000 1.0
C      1  0.5113020000000  0.4657660000000  0.5565170000000 1.0
C      1  0.5188590000000  0.5182020000000  0.5955250000000 1.0
C      1  0.5378850000000  0.5021650000000  0.3963610000000 1.0
C      1  0.5533720000000  0.4625670000000  0.5397300000000 1.0
C      1  0.5761870000000  0.4380000000000  0.4742190000000 1.0
C      1  0.4637620000000  0.5505920000000  0.5382710000000 1.0
C      1  0.4881370000000  0.5227030000000  0.4523710000000 1.0
C      1  0.5231070000000  0.4338580000000  0.4866400000000 1.0
C      1  0.4476310000000  0.4961970000000  0.4727790000000 1.0
C      1  0.5653290000000  0.4519340000000  0.5149370000000 1.0
C      1  0.5376400000000  0.5652330000000  0.4899630000000 1.0
C      1  0.5357150000000  0.4003010000000  0.5127270000000 1.0
C      1  0.5140980000000  0.5095070000000  0.3829990000000 1.0
C      1  0.5733340000000  0.4779950000000  0.5814400000000 1.0
C      1  0.4413800000000  0.4158380000000  0.5090490000000 1.0
C      1  0.4257970000000  0.4406870000000  0.5120650000000 1.0
C      1  0.4959390000000  0.4169970000000  0.5320940000000 1.0
C      1  0.4778480000000  0.3925830000000  0.5286520000000 1.0
C      1  0.3958120000000  0.4972630000000  0.5131030000000 1.0
C      1  0.5800880000000  0.5248580000000  0.5495140000000 1.0
C      1  0.4778390000000  0.5458220000000  0.5820440000000 1.0
C      1  0.4842450000000  0.4313250000000  0.5551700000000 1.0
C      1  0.5750520000000  0.4876120000000  0.4362760000000 1.0
C      1  0.5197590000000  0.5882670000000  0.4373790000000 1.0
C      1  0.5728250000000  0.5487450000000  0.5799980000000 1.0
C      1  0.5310570000000  0.4253840000000  0.4373380000000 1.0
C      1  0.4220170000000  0.5278040000000  0.4494560000000 1.0
C      1  0.4152380000000  0.4882490000000  0.5356130000000 1.0
C      1  0.5341830000000  0.4201410000000  0.5623380000000 1.0
C      1  0.5059550000000  0.6057230000000  0.5521980000000 1.0
C      1  0.5284320000000  0.4735870000000  0.5824260000000 1.0
C      1  0.4634750000000  0.4086500000000  0.4899280000000 1.0
C      1  0.5359670000000  0.4777420000000  0.4127140000000 1.0
C      1  0.4695770000000  0.4775640000000  0.4345780000000 1.0
C      1  0.4701850000000  0.5239590000000  0.3974950000000 1.0
C      1  0.4830150000000  0.4272060000000  0.4274020000000 1.0
C      1  0.4735630000000  0.5266330000000  0.4996600000000 1.0
C      1  0.5020740000000  0.4346750000000  0.5780770000000 1.0
C      1  0.3916660000000  0.5171580000000  0.5685740000000 1.0
C      1  0.5620290000000  0.5600320000000  0.4543700000000 1.0
C      1  0.5531540000000  0.4409930000000  0.5612520000000 1.0
C      1  0.5714770000000  0.5769410000000  0.4752540000000 1.0
C      1  0.5084480000000  0.4408780000000  0.4276910000000 1.0
C      1  0.6019620000000  0.4486340000000  0.4902510000000 1.0
C      1  0.5999660000000  0.4727840000000  0.5380240000000 1.0
C      1  0.5764170000000  0.5350680000000  0.4510250000000 1.0
C      1  0.6017940000000  0.4857060000000  0.4437490000000 1.0
C      1  0.4945700000000  0.5806790000000  0.4237040000000 1.0
C      1  0.4432010000000  0.5165760000000  0.4048580000000 1.0
C      1  0.5267740000000  0.4764380000000  0.5303090000000 1.0
C      1  0.4977480000000  0.5319700000000  0.4801290000000 1.0
END
