TITL C-950522-5749-638 8.92640301112233e-07 125000 -1221.04473052138 0 0 195 (C1) n - 1
REM
REM in /home/bkarasulu/work/CARBON/AIRSS/Generating-Clusters/EDIP-Nigel-Params/with-SteepDescent/Only-C1/SD-CG/HFTN-CG
REM
REM
REM
REM
REM
REM ./C.cell (11c1c37f851c82e70ff6c80c92926a4b)
REM
REM compiler GCC version 9.2.1 20190827 (Red Hat 9.2.1-1)
REM options -cpp -mtune=generic -march=x86-64 -g -O0 -fpre-include=/usr/include/finclude/math-vector-fortran.h
REM seed 1387843286 447813263 -1200997400 -2078260918 -1038643127 1236420588 -2128169629 1509409622 2053823061 682100463 2125218322 -469560358 -1966520883 -1310657812 -595646022 2144607071 1184022488 1608553295 206506057 425275454 1688379185 1447880589 -1679018077 1872545395 1550996183 1129484689 -1242874275 -63120673 -1488537661 1649483399 -1991029312 -569261961 -1484261513
REM
CELL 1.54180   50.00000   50.00000   50.00000   90.00000   90.00000   90.00000
LATT -1
SFAC C  
C      1  0.5307330000000  0.5886300000000  0.5307870000000 1.0
C      1  0.4763100000000  0.5104180000000  0.4907400000000 1.0
C      1  0.5356370000000  0.5042160000000  0.3826620000000 1.0
C      1  0.5000500000000  0.6192530000000  0.4736620000000 1.0
C      1  0.6061780000000  0.5179810000000  0.5333120000000 1.0
C      1  0.4144100000000  0.5693510000000  0.4751970000000 1.0
C      1  0.5464330000000  0.4388460000000  0.4404510000000 1.0
C      1  0.4527160000000  0.5968800000000  0.5266560000000 1.0
C      1  0.5491000000000  0.4251140000000  0.5204140000000 1.0
C      1  0.6142120000000  0.5137280000000  0.4835840000000 1.0
C      1  0.4377000000000  0.4235180000000  0.4326320000000 1.0
C      1  0.4525580000000  0.4498790000000  0.5346960000000 1.0
C      1  0.5014040000000  0.5426840000000  0.4633240000000 1.0
C      1  0.5689750000000  0.4825060000000  0.4105220000000 1.0
C      1  0.5705520000000  0.4015920000000  0.5151450000000 1.0
C      1  0.5512470000000  0.4192150000000  0.5704700000000 1.0
C      1  0.4985980000000  0.4973240000000  0.4313160000000 1.0
C      1  0.5697530000000  0.5315200000000  0.5068340000000 1.0
C      1  0.4579020000000  0.4198520000000  0.5729060000000 1.0
C      1  0.3938160000000  0.5046220000000  0.4601670000000 1.0
C      1  0.3989540000000  0.4625100000000  0.4874320000000 1.0
C      1  0.5410840000000  0.5357710000000  0.5446030000000 1.0
C      1  0.4697470000000  0.4220130000000  0.5978570000000 1.0
C      1  0.6004970000000  0.4616840000000  0.5011770000000 1.0
C      1  0.5653490000000  0.5083400000000  0.4642740000000 1.0
C      1  0.5057710000000  0.5256200000000  0.4197050000000 1.0
C      1  0.5005480000000  0.5215160000000  0.6130460000000 1.0
C      1  0.5234060000000  0.4558560000000  0.5560810000000 1.0
C      1  0.5235870000000  0.5876920000000  0.3993730000000 1.0
C      1  0.5847570000000  0.4414460000000  0.4354360000000 1.0
C      1  0.4523930000000  0.4583340000000  0.4035390000000 1.0
C      1  0.4737980000000  0.6116950000000  0.5132060000000 1.0
C      1  0.4278110000000  0.5040440000000  0.4780800000000 1.0
C      1  0.4915340000000  0.4636700000000  0.6110260000000 1.0
C      1  0.4471210000000  0.5094760000000  0.4263730000000 1.0
C      1  0.4022730000000  0.4493220000000  0.4613950000000 1.0
C      1  0.4040190000000  0.5600310000000  0.5670690000000 1.0
C      1  0.6130450000000  0.5383640000000  0.5015020000000 1.0
C      1  0.5008900000000  0.5938690000000  0.5692710000000 1.0
C      1  0.4601910000000  0.5058710000000  0.3979620000000 1.0
C      1  0.5965040000000  0.4842580000000  0.4493800000000 1.0
C      1  0.5260800000000  0.5618420000000  0.5023820000000 1.0
C      1  0.4717810000000  0.4778380000000  0.3953300000000 1.0
C      1  0.5291360000000  0.4034530000000  0.5646550000000 1.0
C      1  0.5363970000000  0.4939580000000  0.6037190000000 1.0
C      1  0.4821150000000  0.4391480000000  0.5413590000000 1.0
C      1  0.4441940000000  0.4463450000000  0.5639170000000 1.0
C      1  0.5062990000000  0.4512000000000  0.5082520000000 1.0
C      1  0.4997710000000  0.3876460000000  0.4990460000000 1.0
C      1  0.5207270000000  0.4596130000000  0.4026860000000 1.0
C      1  0.4658240000000  0.4618730000000  0.4819260000000 1.0
C      1  0.4431550000000  0.5036590000000  0.5654320000000 1.0
C      1  0.5628720000000  0.4897550000000  0.5908550000000 1.0
C      1  0.5205370000000  0.4356880000000  0.5304300000000 1.0
C      1  0.4783210000000  0.5472680000000  0.5351500000000 1.0
C      1  0.4588890000000  0.5358400000000  0.5983340000000 1.0
C      1  0.4871450000000  0.5186910000000  0.5442740000000 1.0
C      1  0.4916330000000  0.4391100000000  0.5938620000000 1.0
C      1  0.5064990000000  0.5904340000000  0.4217770000000 1.0
C      1  0.4246320000000  0.4310150000000  0.4572990000000 1.0
C      1  0.5103280000000  0.4136180000000  0.4168330000000 1.0
C      1  0.4665280000000  0.4839120000000  0.6056500000000 1.0
C      1  0.5286660000000  0.5565950000000  0.5962040000000 1.0
C      1  0.5249220000000  0.4884530000000  0.5536240000000 1.0
C      1  0.4800910000000  0.5747830000000  0.4218770000000 1.0
C      1  0.4323930000000  0.5353260000000  0.4380170000000 1.0
C      1  0.4666630000000  0.4276050000000  0.4229280000000 1.0
C      1  0.5742040000000  0.4186990000000  0.5553060000000 1.0
C      1  0.4113450000000  0.4694790000000  0.5820900000000 1.0
C      1  0.5515320000000  0.4716660000000  0.5105040000000 1.0
C      1  0.4748590000000  0.5822180000000  0.5784790000000 1.0
C      1  0.5918580000000  0.4119710000000  0.5002800000000 1.0
C      1  0.4783790000000  0.4098910000000  0.5499120000000 1.0
C      1  0.5240230000000  0.5904200000000  0.4451490000000 1.0
C      1  0.4710620000000  0.4828580000000  0.5022190000000 1.0
C      1  0.5782960000000  0.4688530000000  0.4348080000000 1.0
C      1  0.5446990000000  0.5787050000000  0.5538910000000 1.0
C      1  0.5084480000000  0.3976200000000  0.5468770000000 1.0
C      1  0.5245820000000  0.4732250000000  0.4707690000000 1.0
C      1  0.5167960000000  0.5956170000000  0.4734020000000 1.0
C      1  0.5660780000000  0.5786480000000  0.4225710000000 1.0
C      1  0.4894660000000  0.4072940000000  0.4584330000000 1.0
C      1  0.4737570000000  0.5130030000000  0.6090800000000 1.0
C      1  0.4942160000000  0.4524440000000  0.5661980000000 1.0
C      1  0.5679260000000  0.4658320000000  0.5741680000000 1.0
C      1  0.5310450000000  0.4857850000000  0.4966840000000 1.0
C      1  0.5285690000000  0.5379410000000  0.4395200000000 1.0
C      1  0.5849180000000  0.4751860000000  0.5493500000000 1.0
C      1  0.5208800000000  0.4706380000000  0.6121020000000 1.0
C      1  0.5675560000000  0.5627070000000  0.5457070000000 1.0
C      1  0.5310170000000  0.4441400000000  0.4681950000000 1.0
C      1  0.5445580000000  0.4467800000000  0.5765590000000 1.0
C      1  0.4761760000000  0.4044020000000  0.5019190000000 1.0
C      1  0.5270160000000  0.5809430000000  0.5777970000000 1.0
C      1  0.4367910000000  0.5849980000000  0.4836440000000 1.0
C      1  0.5507400000000  0.5066290000000  0.5514240000000 1.0
C      1  0.5933760000000  0.4305640000000  0.5402540000000 1.0
C      1  0.4264140000000  0.4872560000000  0.4277750000000 1.0
C      1  0.5086510000000  0.4958620000000  0.5779520000000 1.0
C      1  0.5540470000000  0.4440880000000  0.4967330000000 1.0
C      1  0.4726720000000  0.5572840000000  0.5065420000000 1.0
C      1  0.4070270000000  0.5749200000000  0.4484570000000 1.0
C      1  0.3938160000000  0.5074080000000  0.5088910000000 1.0
C      1  0.4501880000000  0.4813370000000  0.5240400000000 1.0
C      1  0.5000440000000  0.5662230000000  0.4858190000000 1.0
C      1  0.5827420000000  0.4241980000000  0.4587650000000 1.0
C      1  0.4989690000000  0.5243440000000  0.5743170000000 1.0
C      1  0.5452710000000  0.3903720000000  0.5028540000000 1.0
C      1  0.5999860000000  0.4561790000000  0.5312860000000 1.0
C      1  0.4558500000000  0.5838290000000  0.4386070000000 1.0
C      1  0.5223210000000  0.5430700000000  0.5686380000000 1.0
C      1  0.4855790000000  0.4401880000000  0.4887910000000 1.0
C      1  0.4263540000000  0.4282060000000  0.5068230000000 1.0
C      1  0.5069750000000  0.4974350000000  0.5321700000000 1.0
C      1  0.4369510000000  0.4149490000000  0.5288630000000 1.0
C      1  0.5446070000000  0.5536340000000  0.4767440000000 1.0
C      1  0.3988080000000  0.4864410000000  0.4371870000000 1.0
C      1  0.4592310000000  0.5327870000000  0.4978210000000 1.0
C      1  0.4788280000000  0.5572710000000  0.5950530000000 1.0
C      1  0.4762800000000  0.6098820000000  0.4840180000000 1.0
C      1  0.5865070000000  0.5548190000000  0.4993370000000 1.0
C      1  0.5065090000000  0.6033350000000  0.5418570000000 1.0
C      1  0.5059200000000  0.5250710000000  0.3898960000000 1.0
C      1  0.4793690000000  0.5434840000000  0.4211310000000 1.0
C      1  0.4766950000000  0.5266700000000  0.3862020000000 1.0
C      1  0.4636930000000  0.4697260000000  0.4522810000000 1.0
C      1  0.4377710000000  0.4220690000000  0.4805580000000 1.0
C      1  0.5342310000000  0.4478530000000  0.6033410000000 1.0
C      1  0.4827880000000  0.4799270000000  0.5708640000000 1.0
C      1  0.4864960000000  0.4056740000000  0.4286150000000 1.0
C      1  0.3866790000000  0.4893290000000  0.4864410000000 1.0
C      1  0.5027140000000  0.5185970000000  0.4800100000000 1.0
C      1  0.4418230000000  0.5321280000000  0.5743610000000 1.0
C      1  0.5034360000000  0.5500430000000  0.6100580000000 1.0
C      1  0.4463300000000  0.5750350000000  0.5088140000000 1.0
C      1  0.4993520000000  0.4359810000000  0.4624280000000 1.0
C      1  0.4011700000000  0.5583270000000  0.4999210000000 1.0
C      1  0.5269070000000  0.5154050000000  0.4970410000000 1.0
C      1  0.4411250000000  0.4796320000000  0.5838260000000 1.0
C      1  0.5782240000000  0.5572260000000  0.4409700000000 1.0
C      1  0.4939240000000  0.4753010000000  0.5185560000000 1.0
C      1  0.4945950000000  0.4716110000000  0.4145980000000 1.0
C      1  0.5228520000000  0.4903490000000  0.4470360000000 1.0
C      1  0.5108610000000  0.3909370000000  0.4718100000000 1.0
C      1  0.5824710000000  0.5275520000000  0.4353510000000 1.0
C      1  0.3955620000000  0.4869840000000  0.5648480000000 1.0
C      1  0.5947090000000  0.4914420000000  0.4928720000000 1.0
C      1  0.4615320000000  0.4007890000000  0.5273650000000 1.0
C      1  0.5660970000000  0.5959900000000  0.4667650000000 1.0
C      1  0.5519670000000  0.5266940000000  0.4854300000000 1.0
C      1  0.5658520000000  0.4895650000000  0.5306520000000 1.0
C      1  0.5475780000000  0.5725680000000  0.3997270000000 1.0
C      1  0.5451800000000  0.6020890000000  0.4859460000000 1.0
C      1  0.4141630000000  0.4469360000000  0.5633050000000 1.0
C      1  0.5424680000000  0.5113990000000  0.4449240000000 1.0
C      1  0.5557190000000  0.4104560000000  0.4535930000000 1.0
C      1  0.3869880000000  0.5341380000000  0.5021740000000 1.0
C      1  0.4029410000000  0.4603160000000  0.5394780000000 1.0
C      1  0.5556200000000  0.5241240000000  0.3910250000000 1.0
C      1  0.4717400000000  0.5028270000000  0.4474060000000 1.0
C      1  0.6031540000000  0.5117230000000  0.4542570000000 1.0
C      1  0.4648280000000  0.4961340000000  0.5486090000000 1.0
C      1  0.3888500000000  0.4603580000000  0.4394940000000 1.0
C      1  0.4404070000000  0.4621100000000  0.4308060000000 1.0
C      1  0.4236150000000  0.5572540000000  0.5199890000000 1.0
C      1  0.5841490000000  0.5077010000000  0.5159460000000 1.0
C      1  0.4747850000000  0.5351470000000  0.4499710000000 1.0
C      1  0.4079580000000  0.4500110000000  0.5121150000000 1.0
C      1  0.5994990000000  0.5025620000000  0.5581970000000 1.0
C      1  0.4185850000000  0.5716250000000  0.5467480000000 1.0
C      1  0.5522460000000  0.5978680000000  0.4405810000000 1.0
C      1  0.4836030000000  0.4515700000000  0.4377720000000 1.0
C      1  0.5772540000000  0.5750120000000  0.5206260000000 1.0
C      1  0.5537640000000  0.5938640000000  0.5129440000000 1.0
C      1  0.5757780000000  0.5117800000000  0.4089290000000 1.0
C      1  0.4582490000000  0.5552970000000  0.5562670000000 1.0
C      1  0.4926400000000  0.6243570000000  0.5292360000000 1.0
C      1  0.4124510000000  0.5364240000000  0.5780410000000 1.0
C      1  0.4305530000000  0.5658580000000  0.4340860000000 1.0
C      1  0.4614570000000  0.4052840000000  0.4766250000000 1.0
C      1  0.5424180000000  0.4795030000000  0.3968890000000 1.0
C      1  0.5714670000000  0.5662890000000  0.4695030000000 1.0
C      1  0.4166880000000  0.5270630000000  0.4623750000000 1.0
C      1  0.5191950000000  0.3928970000000  0.5194950000000 1.0
C      1  0.5735130000000  0.5109660000000  0.5732780000000 1.0
C      1  0.4371400000000  0.5292160000000  0.5167630000000 1.0
C      1  0.4245440000000  0.5035810000000  0.5080640000000 1.0
C      1  0.5235270000000  0.5363670000000  0.5198600000000 1.0
C      1  0.4452310000000  0.5850100000000  0.5535900000000 1.0
C      1  0.5424530000000  0.5454320000000  0.4047040000000 1.0
C      1  0.5836090000000  0.4371940000000  0.4878250000000 1.0
C      1  0.5382150000000  0.4009910000000  0.4757740000000 1.0
C      1  0.3971510000000  0.5139240000000  0.5718280000000 1.0
C      1  0.5290140000000  0.4344950000000  0.4161660000000 1.0
C      1  0.4585110000000  0.5932350000000  0.4673130000000 1.0
END
