TITL C-950526-5686-572 -1.78457818549153e-06 125000 -1052.49092099287 0 0 168 (C1) n - 1
REM
REM in /home/bkarasulu/work/CARBON/AIRSS/Generating-Clusters/EDIP-Nigel-Params/with-SteepDescent/Only-C1/SD-CG/HFTN-CG
REM
REM
REM
REM
REM
REM ./C.cell (11c1c37f851c82e70ff6c80c92926a4b)
REM
REM compiler GCC version 9.2.1 20190827 (Red Hat 9.2.1-1)
REM options -cpp -mtune=generic -march=x86-64 -g -O0 -fpre-include=/usr/include/finclude/math-vector-fortran.h
REM seed 314487475 2113377870 -1117447173 -1999901049 465809235 -264596818 1508127810 -1853400881 -889199855 2097546820 -1989763538 842599420 74002722 721880619 481727620 -171876971 -1275157692 909519539 -100475632 1530133836 -571238162 240740335 -665917672 -458571092 -881102099 -306337752 -159979053 -635021201 -1804787849 578361359 754515056 914099847 931909022
REM
CELL 1.54180   50.00000   50.00000   50.00000   90.00000   90.00000   90.00000
LATT -1
SFAC C  
C      1  0.4189530000000  0.5710790000000  0.5213790000000 1.0
C      1  0.5809810000000  0.4650300000000  0.5677500000000 1.0
C      1  0.4815040000000  0.4214050000000  0.5275780000000 1.0
C      1  0.5873330000000  0.4720140000000  0.4333700000000 1.0
C      1  0.5596670000000  0.5834670000000  0.5307140000000 1.0
C      1  0.4114240000000  0.5078960000000  0.5567410000000 1.0
C      1  0.4848820000000  0.4305930000000  0.5792840000000 1.0
C      1  0.4963960000000  0.5443640000000  0.5083120000000 1.0
C      1  0.4567210000000  0.4851880000000  0.5546760000000 1.0
C      1  0.4792830000000  0.5387450000000  0.5518820000000 1.0
C      1  0.5256650000000  0.4773980000000  0.3981030000000 1.0
C      1  0.5650770000000  0.5753480000000  0.5787190000000 1.0
C      1  0.5892550000000  0.4518500000000  0.5180310000000 1.0
C      1  0.5455570000000  0.4828340000000  0.5090660000000 1.0
C      1  0.5922560000000  0.5143090000000  0.5081310000000 1.0
C      1  0.4821110000000  0.5122240000000  0.4426370000000 1.0
C      1  0.5194380000000  0.4545180000000  0.4187430000000 1.0
C      1  0.5044930000000  0.4716330000000  0.5455880000000 1.0
C      1  0.5211260000000  0.6009440000000  0.4433750000000 1.0
C      1  0.4219730000000  0.5262050000000  0.5762790000000 1.0
C      1  0.5288730000000  0.5073470000000  0.5139860000000 1.0
C      1  0.5837580000000  0.5736160000000  0.4896640000000 1.0
C      1  0.4733180000000  0.5879370000000  0.5367360000000 1.0
C      1  0.4972730000000  0.4548740000000  0.4566830000000 1.0
C      1  0.5434980000000  0.4401300000000  0.4314480000000 1.0
C      1  0.4350480000000  0.5867340000000  0.5030010000000 1.0
C      1  0.4960540000000  0.4938260000000  0.5247110000000 1.0
C      1  0.5157530000000  0.4762030000000  0.5744240000000 1.0
C      1  0.4527910000000  0.4881040000000  0.5843660000000 1.0
C      1  0.5621330000000  0.4598400000000  0.4472200000000 1.0
C      1  0.5328250000000  0.5662490000000  0.4544820000000 1.0
C      1  0.4343030000000  0.4273400000000  0.5244420000000 1.0
C      1  0.5195600000000  0.4154710000000  0.4951860000000 1.0
C      1  0.5516860000000  0.4658940000000  0.5343640000000 1.0
C      1  0.5437840000000  0.5203500000000  0.5362240000000 1.0
C      1  0.5164200000000  0.5900270000000  0.5116180000000 1.0
C      1  0.5241910000000  0.4224960000000  0.5484160000000 1.0
C      1  0.5037360000000  0.4051000000000  0.5347400000000 1.0
C      1  0.5349430000000  0.5942700000000  0.4683150000000 1.0
C      1  0.5157840000000  0.4761650000000  0.4666580000000 1.0
C      1  0.5203990000000  0.5384110000000  0.5820390000000 1.0
C      1  0.4309100000000  0.4926710000000  0.4396210000000 1.0
C      1  0.5101690000000  0.4586380000000  0.3809610000000 1.0
C      1  0.4542920000000  0.5688020000000  0.4591740000000 1.0
C      1  0.5973110000000  0.5105050000000  0.4561530000000 1.0
C      1  0.4730260000000  0.4781720000000  0.6013330000000 1.0
C      1  0.5068260000000  0.5669630000000  0.5830680000000 1.0
C      1  0.4506260000000  0.4277500000000  0.4650980000000 1.0
C      1  0.4573680000000  0.5767000000000  0.5582400000000 1.0
C      1  0.5185280000000  0.4440320000000  0.5068790000000 1.0
C      1  0.5355270000000  0.4975570000000  0.5729740000000 1.0
C      1  0.4784290000000  0.5959990000000  0.4892790000000 1.0
C      1  0.5548990000000  0.5282010000000  0.4334980000000 1.0
C      1  0.5028830000000  0.4068920000000  0.4482900000000 1.0
C      1  0.4540360000000  0.5205540000000  0.4527070000000 1.0
C      1  0.5027230000000  0.5801460000000  0.5381910000000 1.0
C      1  0.5769430000000  0.5328450000000  0.5529550000000 1.0
C      1  0.4842590000000  0.4798340000000  0.4979240000000 1.0
C      1  0.4955690000000  0.4095220000000  0.4775280000000 1.0
C      1  0.5189390000000  0.5851280000000  0.5626960000000 1.0
C      1  0.5588340000000  0.4454850000000  0.5727700000000 1.0
C      1  0.6037750000000  0.5267750000000  0.4808060000000 1.0
C      1  0.4776120000000  0.4141130000000  0.4333350000000 1.0
C      1  0.5665990000000  0.5610720000000  0.5101830000000 1.0
C      1  0.5417390000000  0.4124080000000  0.4764850000000 1.0
C      1  0.4490620000000  0.5173870000000  0.5842810000000 1.0
C      1  0.4034950000000  0.5786360000000  0.4653580000000 1.0
C      1  0.4299450000000  0.4134120000000  0.4949340000000 1.0
C      1  0.5431630000000  0.4833180000000  0.4544500000000 1.0
C      1  0.5133500000000  0.4274550000000  0.5769920000000 1.0
C      1  0.4937030000000  0.5977090000000  0.4426810000000 1.0
C      1  0.5092170000000  0.3847500000000  0.5149100000000 1.0
C      1  0.4339110000000  0.4725790000000  0.4924830000000 1.0
C      1  0.4548140000000  0.4769880000000  0.4535600000000 1.0
C      1  0.4509770000000  0.5614200000000  0.4298090000000 1.0
C      1  0.5572310000000  0.5998810000000  0.4865940000000 1.0
C      1  0.5061210000000  0.5512610000000  0.4583160000000 1.0
C      1  0.4583930000000  0.4880900000000  0.4824280000000 1.0
C      1  0.5265280000000  0.5455890000000  0.3939250000000 1.0
C      1  0.4898560000000  0.3830370000000  0.4924470000000 1.0
C      1  0.5633790000000  0.4267160000000  0.4886070000000 1.0
C      1  0.5428030000000  0.5506180000000  0.4944240000000 1.0
C      1  0.4462590000000  0.4477300000000  0.5035130000000 1.0
C      1  0.4412680000000  0.4506810000000  0.4196270000000 1.0
C      1  0.4989320000000  0.4390510000000  0.3999510000000 1.0
C      1  0.4632670000000  0.3769880000000  0.4981060000000 1.0
C      1  0.5993520000000  0.5541950000000  0.4776500000000 1.0
C      1  0.4756170000000  0.4491430000000  0.5018660000000 1.0
C      1  0.3947620000000  0.5081600000000  0.4743880000000 1.0
C      1  0.4584170000000  0.5429730000000  0.4734180000000 1.0
C      1  0.4839050000000  0.4921210000000  0.4199090000000 1.0
C      1  0.5017210000000  0.5492330000000  0.5367380000000 1.0
C      1  0.5126950000000  0.5250550000000  0.4723340000000 1.0
C      1  0.4593300000000  0.4963040000000  0.4026100000000 1.0
C      1  0.4786690000000  0.5854340000000  0.4628770000000 1.0
C      1  0.6142560000000  0.4699870000000  0.4777740000000 1.0
C      1  0.5474500000000  0.5786990000000  0.5572870000000 1.0
C      1  0.5809910000000  0.5385610000000  0.5233480000000 1.0
C      1  0.4797170000000  0.4653480000000  0.4360100000000 1.0
C      1  0.4663310000000  0.5464160000000  0.5029600000000 1.0
C      1  0.4358860000000  0.4795770000000  0.4127820000000 1.0
C      1  0.4712850000000  0.5338660000000  0.5951270000000 1.0
C      1  0.6032780000000  0.4969760000000  0.5349360000000 1.0
C      1  0.5738420000000  0.4477160000000  0.4723830000000 1.0
C      1  0.5718790000000  0.4920740000000  0.4943780000000 1.0
C      1  0.5157730000000  0.5636510000000  0.4941500000000 1.0
C      1  0.5944280000000  0.5107060000000  0.5595940000000 1.0
C      1  0.4582900000000  0.4289070000000  0.5686580000000 1.0
C      1  0.3983360000000  0.5258370000000  0.5182020000000 1.0
C      1  0.5266970000000  0.4671710000000  0.4925020000000 1.0
C      1  0.5535400000000  0.4144500000000  0.5419600000000 1.0
C      1  0.5208430000000  0.5267660000000  0.4152100000000 1.0
C      1  0.4226370000000  0.5127560000000  0.5288970000000 1.0
C      1  0.5324370000000  0.4173120000000  0.4481720000000 1.0
C      1  0.5562840000000  0.5050660000000  0.4711980000000 1.0
C      1  0.5813310000000  0.4927860000000  0.4149480000000 1.0
C      1  0.4513360000000  0.3988080000000  0.4559730000000 1.0
C      1  0.4965060000000  0.5375530000000  0.4319010000000 1.0
C      1  0.5658290000000  0.4187110000000  0.5666660000000 1.0
C      1  0.5886440000000  0.4656120000000  0.4903250000000 1.0
C      1  0.5363430000000  0.5223930000000  0.4878340000000 1.0
C      1  0.5540330000000  0.5036250000000  0.5945260000000 1.0
C      1  0.4317760000000  0.4457180000000  0.4493830000000 1.0
C      1  0.4429220000000  0.3885400000000  0.4830450000000 1.0
C      1  0.4770920000000  0.5578550000000  0.5767220000000 1.0
C      1  0.5947700000000  0.4690590000000  0.5409800000000 1.0
C      1  0.4978860000000  0.5197780000000  0.5945290000000 1.0
C      1  0.4965070000000  0.4901880000000  0.5929620000000 1.0
C      1  0.4156100000000  0.4638040000000  0.4692120000000 1.0
C      1  0.5305660000000  0.4505980000000  0.5835230000000 1.0
C      1  0.4301280000000  0.5823380000000  0.4735840000000 1.0
C      1  0.5657150000000  0.4325100000000  0.5190690000000 1.0
C      1  0.4039540000000  0.5511890000000  0.5054210000000 1.0
C      1  0.3946310000000  0.5558230000000  0.4784300000000 1.0
C      1  0.4311380000000  0.5664790000000  0.5487470000000 1.0
C      1  0.4568730000000  0.4184370000000  0.5415120000000 1.0
C      1  0.4711520000000  0.5104500000000  0.5392240000000 1.0
C      1  0.3852570000000  0.5035880000000  0.5028160000000 1.0
C      1  0.5446700000000  0.6009010000000  0.5133400000000 1.0
C      1  0.4221380000000  0.4838900000000  0.5181940000000 1.0
C      1  0.3875740000000  0.5331720000000  0.4638230000000 1.0
C      1  0.5492420000000  0.5333330000000  0.5953800000000 1.0
C      1  0.5497940000000  0.5562770000000  0.4316120000000 1.0
C      1  0.4356590000000  0.4686770000000  0.5406270000000 1.0
C      1  0.3923930000000  0.4777610000000  0.5195940000000 1.0
C      1  0.5095530000000  0.5003160000000  0.4052110000000 1.0
C      1  0.4398500000000  0.5338030000000  0.4288120000000 1.0
C      1  0.5422570000000  0.5642990000000  0.4058970000000 1.0
C      1  0.5811230000000  0.5159640000000  0.4312390000000 1.0
C      1  0.4515600000000  0.5241290000000  0.5208470000000 1.0
C      1  0.5237480000000  0.4506240000000  0.5351880000000 1.0
C      1  0.6070820000000  0.4831550000000  0.4537030000000 1.0
C      1  0.5700240000000  0.5477420000000  0.5794180000000 1.0
C      1  0.4764730000000  0.5531400000000  0.4153490000000 1.0
C      1  0.4733620000000  0.4399820000000  0.4175800000000 1.0
C      1  0.3927160000000  0.4751560000000  0.5502420000000 1.0
C      1  0.4337510000000  0.4415040000000  0.5765230000000 1.0
C      1  0.4535220000000  0.5252700000000  0.4041900000000 1.0
C      1  0.4050320000000  0.4873840000000  0.4559260000000 1.0
C      1  0.4175320000000  0.5525490000000  0.5684880000000 1.0
C      1  0.5232170000000  0.5344010000000  0.5515660000000 1.0
C      1  0.5543500000000  0.4953680000000  0.5510390000000 1.0
C      1  0.4631500000000  0.5800970000000  0.5090150000000 1.0
C      1  0.4974590000000  0.5013340000000  0.4675840000000 1.0
C      1  0.4998580000000  0.6103740000000  0.4993410000000 1.0
C      1  0.5804660000000  0.4930660000000  0.5796570000000 1.0
C      1  0.4161980000000  0.4581610000000  0.5603000000000 1.0
C      1  0.4798770000000  0.4363790000000  0.4750450000000 1.0
END
