TITL C-950524-1808-9 -3.86415107875198e-06 125000 -1045.56559789056 0 0 166 (C1) n - 1
REM
REM in /home/bkarasulu/work/CARBON/AIRSS/Generating-Clusters/EDIP-Nigel-Params/with-SteepDescent/Only-C1/SD-CG/HFTN-CG
REM
REM
REM
REM
REM
REM ./C.cell (11c1c37f851c82e70ff6c80c92926a4b)
REM
REM compiler GCC version 9.2.1 20190827 (Red Hat 9.2.1-1)
REM options -cpp -mtune=generic -march=x86-64 -g -O0 -fpre-include=/usr/include/finclude/math-vector-fortran.h
REM seed -392430866 1983427352 -678246824 -1648137762 1600467772 -2134994051 1796585511 1057742303 -625660333 -1016815692 -1607673402 831880695 -1371507143 -1549704824 -23036733 -1187785569 -1034262506 1859637551 829598966 -532145832 -1992913659 1740781613 1670722657 266387799 1160050752 414523154 -755737157 295818946 1677334090 96235552 -946052485 -1592234988 2031162592
REM
CELL 1.54180   50.00000   50.00000   50.00000   90.00000   90.00000   90.00000
LATT -1
SFAC C  
C      1  0.4715580000000  0.4967860000000  0.5403900000000 1.0
C      1  0.5123530000000  0.4873240000000  0.4830750000000 1.0
C      1  0.4598810000000  0.4355600000000  0.4169530000000 1.0
C      1  0.5098020000000  0.6163000000000  0.5027440000000 1.0
C      1  0.4854950000000  0.4866540000000  0.4963320000000 1.0
C      1  0.5072430000000  0.4420750000000  0.4309920000000 1.0
C      1  0.6060650000000  0.4913550000000  0.4787290000000 1.0
C      1  0.5047350000000  0.5302930000000  0.5129020000000 1.0
C      1  0.4281680000000  0.4400820000000  0.5517330000000 1.0
C      1  0.5517610000000  0.5021630000000  0.4052580000000 1.0
C      1  0.5155420000000  0.4898580000000  0.4548140000000 1.0
C      1  0.4814970000000  0.4265610000000  0.4341240000000 1.0
C      1  0.5315760000000  0.4306960000000  0.5756270000000 1.0
C      1  0.5559340000000  0.4700590000000  0.5057840000000 1.0
C      1  0.3756630000000  0.4938940000000  0.4742650000000 1.0
C      1  0.5104030000000  0.4350070000000  0.5962830000000 1.0
C      1  0.5369200000000  0.5506950000000  0.5555000000000 1.0
C      1  0.5056410000000  0.4578520000000  0.5657260000000 1.0
C      1  0.5439650000000  0.4831800000000  0.4478420000000 1.0
C      1  0.4012560000000  0.5596970000000  0.4807820000000 1.0
C      1  0.5265110000000  0.4983170000000  0.6191720000000 1.0
C      1  0.5292620000000  0.5132790000000  0.5214430000000 1.0
C      1  0.5039480000000  0.4839260000000  0.6102010000000 1.0
C      1  0.5099930000000  0.5630030000000  0.5456560000000 1.0
C      1  0.4487670000000  0.5374280000000  0.5732320000000 1.0
C      1  0.5039420000000  0.5821630000000  0.4314450000000 1.0
C      1  0.4675840000000  0.5939010000000  0.4859870000000 1.0
C      1  0.5280250000000  0.5843050000000  0.4737040000000 1.0
C      1  0.5128860000000  0.5584610000000  0.5172910000000 1.0
C      1  0.6073460000000  0.4680240000000  0.4949520000000 1.0
C      1  0.4887300000000  0.4786770000000  0.5250060000000 1.0
C      1  0.4774850000000  0.5655650000000  0.3994070000000 1.0
C      1  0.4699720000000  0.5130500000000  0.4910610000000 1.0
C      1  0.4773150000000  0.5166520000000  0.4339300000000 1.0
C      1  0.6030180000000  0.5598090000000  0.5105690000000 1.0
C      1  0.4335670000000  0.4803090000000  0.3982940000000 1.0
C      1  0.4935850000000  0.4918550000000  0.4343370000000 1.0
C      1  0.5417950000000  0.5601110000000  0.5112720000000 1.0
C      1  0.4516330000000  0.4109830000000  0.5201100000000 1.0
C      1  0.3737400000000  0.5204970000000  0.4825750000000 1.0
C      1  0.5136190000000  0.4685970000000  0.5374220000000 1.0
C      1  0.4848440000000  0.6043830000000  0.5077620000000 1.0
C      1  0.5042000000000  0.5302310000000  0.4816650000000 1.0
C      1  0.4707110000000  0.5222090000000  0.4053700000000 1.0
C      1  0.4414860000000  0.3982490000000  0.4954470000000 1.0
C      1  0.4149080000000  0.4240400000000  0.4998220000000 1.0
C      1  0.4203880000000  0.5219370000000  0.4392550000000 1.0
C      1  0.5223440000000  0.4162540000000  0.5497390000000 1.0
C      1  0.5707620000000  0.4564460000000  0.4204780000000 1.0
C      1  0.5674720000000  0.4145580000000  0.5329880000000 1.0
C      1  0.5512520000000  0.5902890000000  0.5419240000000 1.0
C      1  0.3923220000000  0.5373720000000  0.4943560000000 1.0
C      1  0.5673970000000  0.5747520000000  0.5633520000000 1.0
C      1  0.4809230000000  0.5250270000000  0.5318030000000 1.0
C      1  0.4785460000000  0.5978400000000  0.4299050000000 1.0
C      1  0.4032850000000  0.5017930000000  0.5265810000000 1.0
C      1  0.5271900000000  0.5268050000000  0.6098150000000 1.0
C      1  0.5515810000000  0.5508590000000  0.4125030000000 1.0
C      1  0.4652700000000  0.5190300000000  0.5895400000000 1.0
C      1  0.4507240000000  0.4716680000000  0.5839070000000 1.0
C      1  0.5939790000000  0.5393830000000  0.5316240000000 1.0
C      1  0.5510480000000  0.5395250000000  0.5956550000000 1.0
C      1  0.4159420000000  0.4680670000000  0.4884140000000 1.0
C      1  0.5822850000000  0.4503000000000  0.5013130000000 1.0
C      1  0.4370430000000  0.5347960000000  0.4616580000000 1.0
C      1  0.5059450000000  0.5308940000000  0.5760880000000 1.0
C      1  0.4614950000000  0.4766010000000  0.4021280000000 1.0
C      1  0.4620130000000  0.5858430000000  0.4099590000000 1.0
C      1  0.5705000000000  0.4557140000000  0.5522020000000 1.0
C      1  0.4432970000000  0.5648910000000  0.5207230000000 1.0
C      1  0.5018330000000  0.5596420000000  0.4129640000000 1.0
C      1  0.5337750000000  0.6041260000000  0.4944740000000 1.0
C      1  0.5006160000000  0.5791360000000  0.4621420000000 1.0
C      1  0.5495880000000  0.4828290000000  0.6168900000000 1.0
C      1  0.4279030000000  0.5622020000000  0.4725640000000 1.0
C      1  0.4453050000000  0.5753660000000  0.4932980000000 1.0
C      1  0.5537620000000  0.4598470000000  0.4629380000000 1.0
C      1  0.5805940000000  0.5469900000000  0.5574410000000 1.0
C      1  0.5599650000000  0.4071060000000  0.4826990000000 1.0
C      1  0.3826030000000  0.4841750000000  0.5206500000000 1.0
C      1  0.5244670000000  0.4235260000000  0.4461770000000 1.0
C      1  0.5368200000000  0.4032100000000  0.4997470000000 1.0
C      1  0.5494570000000  0.5672920000000  0.5866350000000 1.0
C      1  0.4425710000000  0.4642140000000  0.5093100000000 1.0
C      1  0.5787630000000  0.4287980000000  0.4794710000000 1.0
C      1  0.4585920000000  0.5644410000000  0.5684810000000 1.0
C      1  0.4884280000000  0.5523140000000  0.4698220000000 1.0
C      1  0.4820110000000  0.4312050000000  0.5916110000000 1.0
C      1  0.4744190000000  0.4195800000000  0.5666640000000 1.0
C      1  0.4222350000000  0.5320980000000  0.4136720000000 1.0
C      1  0.4679190000000  0.4638100000000  0.4884300000000 1.0
C      1  0.5253610000000  0.4949120000000  0.5438950000000 1.0
C      1  0.5057470000000  0.4903650000000  0.4058260000000 1.0
C      1  0.3872600000000  0.4762300000000  0.4943570000000 1.0
C      1  0.5136480000000  0.5036670000000  0.5685750000000 1.0
C      1  0.5290730000000  0.6058320000000  0.5498370000000 1.0
C      1  0.4456020000000  0.4882420000000  0.5283150000000 1.0
C      1  0.5918390000000  0.5468280000000  0.4620820000000 1.0
C      1  0.5788930000000  0.5234280000000  0.4432790000000 1.0
C      1  0.4299400000000  0.4869310000000  0.4689870000000 1.0
C      1  0.4597100000000  0.5758920000000  0.5418150000000 1.0
C      1  0.4145100000000  0.5233200000000  0.5079560000000 1.0
C      1  0.4702490000000  0.6030910000000  0.4582540000000 1.0
C      1  0.3862050000000  0.4893100000000  0.4490670000000 1.0
C      1  0.4684010000000  0.5324470000000  0.4578580000000 1.0
C      1  0.4872530000000  0.3956610000000  0.4953790000000 1.0
C      1  0.4878420000000  0.5441710000000  0.5543970000000 1.0
C      1  0.5502590000000  0.5347680000000  0.5279930000000 1.0
C      1  0.4934520000000  0.4128870000000  0.5456700000000 1.0
C      1  0.4722280000000  0.4687650000000  0.4327290000000 1.0
C      1  0.5329650000000  0.5349300000000  0.4717270000000 1.0
C      1  0.5809390000000  0.5174660000000  0.5152140000000 1.0
C      1  0.4379120000000  0.5134850000000  0.4842340000000 1.0
C      1  0.5520580000000  0.5151300000000  0.4817090000000 1.0
C      1  0.5807020000000  0.5775810000000  0.4991450000000 1.0
C      1  0.5201830000000  0.4620660000000  0.4109470000000 1.0
C      1  0.5702170000000  0.4972940000000  0.5751590000000 1.0
C      1  0.5838270000000  0.4888840000000  0.5251520000000 1.0
C      1  0.4622230000000  0.4501680000000  0.5984560000000 1.0
C      1  0.4466990000000  0.4218710000000  0.5628090000000 1.0
C      1  0.4275460000000  0.5415440000000  0.5278070000000 1.0
C      1  0.4692500000000  0.4239050000000  0.4634510000000 1.0
C      1  0.6123420000000  0.5426510000000  0.4866830000000 1.0
C      1  0.4329550000000  0.5255220000000  0.5517380000000 1.0
C      1  0.4158710000000  0.4410060000000  0.4763280000000 1.0
C      1  0.4229620000000  0.4708220000000  0.4226190000000 1.0
C      1  0.5321100000000  0.4512060000000  0.5165320000000 1.0
C      1  0.4541400000000  0.4689590000000  0.4614680000000 1.0
C      1  0.6111910000000  0.4789430000000  0.5205320000000 1.0
C      1  0.4410230000000  0.4410050000000  0.4588430000000 1.0
C      1  0.5439810000000  0.5607300000000  0.4803950000000 1.0
C      1  0.4804510000000  0.4107910000000  0.5196350000000 1.0
C      1  0.5478690000000  0.4749160000000  0.4191420000000 1.0
C      1  0.4350070000000  0.4439370000000  0.4299800000000 1.0
C      1  0.5254790000000  0.5129910000000  0.4006200000000 1.0
C      1  0.5581740000000  0.5952370000000  0.5130420000000 1.0
C      1  0.5562840000000  0.4496200000000  0.5769000000000 1.0
C      1  0.5754810000000  0.4483060000000  0.4472890000000 1.0
C      1  0.4140280000000  0.4922760000000  0.4435320000000 1.0
C      1  0.5373530000000  0.4956440000000  0.4978440000000 1.0
C      1  0.5575170000000  0.4762280000000  0.5910280000000 1.0
C      1  0.5254000000000  0.5420810000000  0.4068270000000 1.0
C      1  0.5049850000000  0.5917450000000  0.5530360000000 1.0
C      1  0.4982150000000  0.4831010000000  0.5816370000000 1.0
C      1  0.5793760000000  0.4824620000000  0.5527360000000 1.0
C      1  0.5950190000000  0.5173070000000  0.4872400000000 1.0
C      1  0.4243560000000  0.4963030000000  0.5462300000000 1.0
C      1  0.5799840000000  0.4388550000000  0.5302740000000 1.0
C      1  0.5398540000000  0.4203810000000  0.5254700000000 1.0
C      1  0.5160970000000  0.4441970000000  0.4907260000000 1.0
C      1  0.4447600000000  0.5312930000000  0.3992100000000 1.0
C      1  0.4700610000000  0.4926650000000  0.5747180000000 1.0
C      1  0.4897130000000  0.5309740000000  0.6009850000000 1.0
C      1  0.5373390000000  0.4356320000000  0.4700760000000 1.0
C      1  0.4338040000000  0.4363290000000  0.5218490000000 1.0
C      1  0.5680220000000  0.5265510000000  0.5756420000000 1.0
C      1  0.5126550000000  0.4007860000000  0.4825560000000 1.0
C      1  0.5658430000000  0.5264750000000  0.4165550000000 1.0
C      1  0.4639970000000  0.3965630000000  0.4763660000000 1.0
C      1  0.5646570000000  0.5026620000000  0.4587290000000 1.0
C      1  0.4290860000000  0.4677680000000  0.5640190000000 1.0
C      1  0.5724580000000  0.5668640000000  0.4729060000000 1.0
C      1  0.5141820000000  0.3981840000000  0.4541500000000 1.0
C      1  0.4850960000000  0.4392910000000  0.4860060000000 1.0
C      1  0.4804820000000  0.5959960000000  0.5358720000000 1.0
C      1  0.4793970000000  0.4970120000000  0.3909780000000 1.0
END
