TITL C-951338-5626-394 -8.72998832662896e-06 125000 -841.756381842719 0 0 135 (C1) n - 1
REM
REM in /home/bkarasulu/work/CARBON/AIRSS/Generating-Clusters/EDIP-Nigel-Params/with-SteepDescent/Only-C1/SD-CG/HFTN-CG
REM
REM
REM
REM
REM
REM ./C.cell (11c1c37f851c82e70ff6c80c92926a4b)
REM
REM compiler GCC version 9.2.1 20190827 (Red Hat 9.2.1-1)
REM options -cpp -mtune=generic -march=x86-64 -g -O0 -fpre-include=/usr/include/finclude/math-vector-fortran.h
REM seed 1457645794 1203289519 1094752880 -958422592 -578495927 -755638932 -150538324 1466086863 1252732909 -1247771993 396603528 1223344693 2144131194 1207500784 310574878 -116484924 -1422417694 -900428639 -1643947147 292647930 69517990 -1257804491 173902751 1079129120 2131588715 999419694 -418157948 1980932649 -412417242 -761815788 393525911 -219366128 -613316203
REM
CELL 1.54180   50.00000   50.00000   50.00000   90.00000   90.00000   90.00000
LATT -1
SFAC C  
C      1  0.4904810000000  0.4757610000000  0.5020750000000 1.0
C      1  0.4583260000000  0.5613380000000  0.4186390000000 1.0
C      1  0.4614450000000  0.4681510000000  0.5061570000000 1.0
C      1  0.5496250000000  0.5053190000000  0.4248860000000 1.0
C      1  0.5202350000000  0.5000710000000  0.4725220000000 1.0
C      1  0.5368990000000  0.4784220000000  0.4201870000000 1.0
C      1  0.5393420000000  0.5711340000000  0.4788150000000 1.0
C      1  0.5741590000000  0.4744860000000  0.5325290000000 1.0
C      1  0.5486650000000  0.5385640000000  0.5624610000000 1.0
C      1  0.4609040000000  0.5720140000000  0.4442420000000 1.0
C      1  0.5081860000000  0.5699680000000  0.4267620000000 1.0
C      1  0.4441910000000  0.4257350000000  0.4848790000000 1.0
C      1  0.4652390000000  0.4168010000000  0.4357720000000 1.0
C      1  0.4979410000000  0.5922350000000  0.5509440000000 1.0
C      1  0.4877160000000  0.5571670000000  0.5263100000000 1.0
C      1  0.4904700000000  0.5248490000000  0.5830630000000 1.0
C      1  0.4876050000000  0.4952560000000  0.4049510000000 1.0
C      1  0.4531330000000  0.5085340000000  0.5397910000000 1.0
C      1  0.5166320000000  0.5943760000000  0.5281550000000 1.0
C      1  0.5504460000000  0.4627000000000  0.4441930000000 1.0
C      1  0.5717610000000  0.5471470000000  0.5445230000000 1.0
C      1  0.5742270000000  0.4454920000000  0.4936780000000 1.0
C      1  0.5305790000000  0.4735760000000  0.4638890000000 1.0
C      1  0.5511380000000  0.4304140000000  0.4510910000000 1.0
C      1  0.5366970000000  0.5419360000000  0.4853260000000 1.0
C      1  0.3962440000000  0.5041320000000  0.4827720000000 1.0
C      1  0.6016910000000  0.4856840000000  0.5250260000000 1.0
C      1  0.4929460000000  0.4075490000000  0.5215980000000 1.0
C      1  0.6058090000000  0.5108260000000  0.5368550000000 1.0
C      1  0.5225580000000  0.5281710000000  0.4626900000000 1.0
C      1  0.4456580000000  0.4719270000000  0.4793740000000 1.0
C      1  0.4870690000000  0.3989890000000  0.4788680000000 1.0
C      1  0.5244460000000  0.4498540000000  0.5211520000000 1.0
C      1  0.4928850000000  0.4704590000000  0.5490220000000 1.0
C      1  0.4553320000000  0.4465070000000  0.5697940000000 1.0
C      1  0.5054850000000  0.5722460000000  0.5714070000000 1.0
C      1  0.4471360000000  0.5200720000000  0.4975530000000 1.0
C      1  0.5958470000000  0.5390180000000  0.4773640000000 1.0
C      1  0.5138200000000  0.5096200000000  0.5986570000000 1.0
C      1  0.5181310000000  0.5512470000000  0.5344990000000 1.0
C      1  0.5730430000000  0.5038290000000  0.4433310000000 1.0
C      1  0.5991110000000  0.4911410000000  0.4961420000000 1.0
C      1  0.4840290000000  0.4457150000000  0.4630360000000 1.0
C      1  0.5425490000000  0.5110240000000  0.5892420000000 1.0
C      1  0.4251160000000  0.4489840000000  0.4789000000000 1.0
C      1  0.5316620000000  0.5841440000000  0.4334130000000 1.0
C      1  0.4824400000000  0.5545510000000  0.5783190000000 1.0
C      1  0.5008820000000  0.4309300000000  0.4389620000000 1.0
C      1  0.4601350000000  0.5640700000000  0.5598810000000 1.0
C      1  0.5069880000000  0.4521690000000  0.4999580000000 1.0
C      1  0.4657190000000  0.5874960000000  0.4939270000000 1.0
C      1  0.5199430000000  0.4506000000000  0.4754790000000 1.0
C      1  0.5266300000000  0.4676540000000  0.5774230000000 1.0
C      1  0.4706150000000  0.5860280000000  0.5448120000000 1.0
C      1  0.4396850000000  0.5612390000000  0.4596300000000 1.0
C      1  0.4907010000000  0.5691210000000  0.4518720000000 1.0
C      1  0.5902510000000  0.5325310000000  0.5276140000000 1.0
C      1  0.4661510000000  0.5071180000000  0.5872340000000 1.0
C      1  0.5044100000000  0.4240920000000  0.5661730000000 1.0
C      1  0.4426120000000  0.5832110000000  0.5080000000000 1.0
C      1  0.4589490000000  0.4791700000000  0.5352950000000 1.0
C      1  0.5064780000000  0.6026690000000  0.5017810000000 1.0
C      1  0.4849390000000  0.5644040000000  0.4953510000000 1.0
C      1  0.4817740000000  0.3874060000000  0.5040190000000 1.0
C      1  0.4903420000000  0.5253740000000  0.4080350000000 1.0
C      1  0.4275600000000  0.4443730000000  0.5269680000000 1.0
C      1  0.4934760000000  0.5411040000000  0.4635380000000 1.0
C      1  0.5765400000000  0.4756800000000  0.4516530000000 1.0
C      1  0.5326390000000  0.5624380000000  0.5687900000000 1.0
C      1  0.5151880000000  0.4064540000000  0.4773350000000 1.0
C      1  0.5360780000000  0.5308570000000  0.4341850000000 1.0
C      1  0.5294670000000  0.5044900000000  0.5233290000000 1.0
C      1  0.4208150000000  0.5172370000000  0.4415750000000 1.0
C      1  0.5269560000000  0.5327670000000  0.5120670000000 1.0
C      1  0.4655220000000  0.5331380000000  0.4231710000000 1.0
C      1  0.4355870000000  0.5530590000000  0.5481560000000 1.0
C      1  0.4768700000000  0.4799420000000  0.5890350000000 1.0
C      1  0.4678400000000  0.4194170000000  0.4665520000000 1.0
C      1  0.5431690000000  0.5855050000000  0.5321510000000 1.0
C      1  0.4772230000000  0.5248390000000  0.4992530000000 1.0
C      1  0.4732290000000  0.4270430000000  0.5301110000000 1.0
C      1  0.4651280000000  0.4696310000000  0.4557400000000 1.0
C      1  0.5843130000000  0.5744980000000  0.5073380000000 1.0
C      1  0.4059110000000  0.4970450000000  0.5352620000000 1.0
C      1  0.4043780000000  0.5340360000000  0.4850530000000 1.0
C      1  0.5672810000000  0.5712990000000  0.5294630000000 1.0
C      1  0.5513500000000  0.5742780000000  0.4512770000000 1.0
C      1  0.4349000000000  0.4998400000000  0.4786890000000 1.0
C      1  0.4427040000000  0.5141970000000  0.4197130000000 1.0
C      1  0.4597710000000  0.4583110000000  0.5947070000000 1.0
C      1  0.5072820000000  0.4751600000000  0.4146680000000 1.0
C      1  0.4532090000000  0.4385730000000  0.5118150000000 1.0
C      1  0.5496980000000  0.4843020000000  0.5789290000000 1.0
C      1  0.4572620000000  0.4888310000000  0.4099790000000 1.0
C      1  0.4289670000000  0.5632960000000  0.5211220000000 1.0
C      1  0.4191960000000  0.5412890000000  0.4594730000000 1.0
C      1  0.4656090000000  0.4402870000000  0.4160750000000 1.0
C      1  0.5339570000000  0.3966580000000  0.4982590000000 1.0
C      1  0.5077070000000  0.4002420000000  0.5471330000000 1.0
C      1  0.5598300000000  0.3995050000000  0.4887420000000 1.0
C      1  0.5711230000000  0.4999180000000  0.4938860000000 1.0
C      1  0.4053200000000  0.4962310000000  0.4548110000000 1.0
C      1  0.5131370000000  0.5852060000000  0.4784770000000 1.0
C      1  0.4814360000000  0.4420490000000  0.5543920000000 1.0
C      1  0.4233000000000  0.5361550000000  0.5086750000000 1.0
C      1  0.5552070000000  0.4906420000000  0.5156580000000 1.0
C      1  0.4202130000000  0.4844320000000  0.5581220000000 1.0
C      1  0.5700540000000  0.4453110000000  0.5239680000000 1.0
C      1  0.4783890000000  0.5247850000000  0.5317940000000 1.0
C      1  0.5148770000000  0.5427000000000  0.4154020000000 1.0
C      1  0.5604940000000  0.5480600000000  0.4406630000000 1.0
C      1  0.5880060000000  0.4682030000000  0.4789720000000 1.0
C      1  0.4527120000000  0.4648830000000  0.4278790000000 1.0
C      1  0.4125980000000  0.5248490000000  0.5348060000000 1.0
C      1  0.5961990000000  0.5491640000000  0.5038260000000 1.0
C      1  0.4928350000000  0.4992240000000  0.4833560000000 1.0
C      1  0.4107650000000  0.4566370000000  0.5047110000000 1.0
C      1  0.4784760000000  0.4961690000000  0.4580570000000 1.0
C      1  0.5320350000000  0.4055850000000  0.5282300000000 1.0
C      1  0.5004660000000  0.5218720000000  0.5544610000000 1.0
C      1  0.5669540000000  0.4232930000000  0.4759580000000 1.0
C      1  0.5795040000000  0.5305670000000  0.4556070000000 1.0
C      1  0.5016930000000  0.4875210000000  0.5264020000000 1.0
C      1  0.5300660000000  0.5136680000000  0.5523620000000 1.0
C      1  0.5059270000000  0.4805770000000  0.5951600000000 1.0
C      1  0.5423220000000  0.4343220000000  0.5360650000000 1.0
C      1  0.4795610000000  0.6110920000000  0.5005810000000 1.0
C      1  0.4381890000000  0.4622120000000  0.5494270000000 1.0
C      1  0.4064160000000  0.4859950000000  0.5074250000000 1.0
C      1  0.4727480000000  0.5243480000000  0.4511470000000 1.0
C      1  0.5249940000000  0.4148650000000  0.4502590000000 1.0
C      1  0.5301520000000  0.4398120000000  0.5661520000000 1.0
C      1  0.4978560000000  0.4473930000000  0.4132870000000 1.0
C      1  0.4438350000000  0.5109520000000  0.5681470000000 1.0
C      1  0.5692660000000  0.4792680000000  0.5602690000000 1.0
END
