TITL C-950528-5794-529 -1.25493904293786e-07 125000 -165.724783231224 0 0 29 (C1) n - 1
REM
REM in /home/bkarasulu/work/CARBON/AIRSS/Generating-Clusters/EDIP-Nigel-Params/with-SteepDescent/Only-C1/SD-CG/HFTN-CG
REM
REM
REM
REM
REM
REM ./C.cell (11c1c37f851c82e70ff6c80c92926a4b)
REM
REM compiler GCC version 9.2.1 20190827 (Red Hat 9.2.1-1)
REM options -cpp -mtune=generic -march=x86-64 -g -O0 -fpre-include=/usr/include/finclude/math-vector-fortran.h
REM seed 396241889 -826818124 -534358713 -383985750 161000204 1197701360 -1724969100 1999777356 168255072 1850444517 1736525664 303121284 94315284 -2022114229 1065706681 801111323 1607637245 332917633 313100227 -475978584 -1259651900 -1303706922 570298452 -9336235 -1036692719 1183997698 -1547972421 1450280441 -1922943186 783062116 570620509 -66623137 -980070682
REM
CELL 1.54180   50.00000   50.00000   50.00000   90.00000   90.00000   90.00000
LATT -1
SFAC C  
C      1  0.4552370000000  0.5300770000000  0.4912130000000 1.0
C      1  0.5122600000000  0.4799470000000  0.4566060000000 1.0
C      1  0.4801410000000  0.4670090000000  0.5541170000000 1.0
C      1  0.5332920000000  0.4685580000000  0.5277280000000 1.0
C      1  0.5144160000000  0.5547560000000  0.4895260000000 1.0
C      1  0.5598540000000  0.5045470000000  0.5025900000000 1.0
C      1  0.4696290000000  0.5139230000000  0.5325020000000 1.0
C      1  0.5172790000000  0.4996210000000  0.4369010000000 1.0
C      1  0.5030350000000  0.5221770000000  0.4467020000000 1.0
C      1  0.4720900000000  0.4917140000000  0.5143660000000 1.0
C      1  0.5203380000000  0.4435820000000  0.5288560000000 1.0
C      1  0.4619090000000  0.5417580000000  0.4660540000000 1.0
C      1  0.5180790000000  0.5166010000000  0.5236050000000 1.0
C      1  0.5346960000000  0.5527030000000  0.4707870000000 1.0
C      1  0.5276960000000  0.4826490000000  0.4809370000000 1.0
C      1  0.5155490000000  0.5475600000000  0.4514840000000 1.0
C      1  0.4790390000000  0.4663010000000  0.5805860000000 1.0
C      1  0.5142170000000  0.4815550000000  0.5078240000000 1.0
C      1  0.4771920000000  0.4657200000000  0.5265130000000 1.0
C      1  0.4745970000000  0.5357320000000  0.5139130000000 1.0
C      1  0.4852770000000  0.4734010000000  0.4602490000000 1.0
C      1  0.4743600000000  0.5203170000000  0.4523730000000 1.0
C      1  0.5031070000000  0.5341120000000  0.5060050000000 1.0
C      1  0.5537590000000  0.4926980000000  0.4791950000000 1.0
C      1  0.4796290000000  0.4664350000000  0.6061490000000 1.0
C      1  0.4563560000000  0.4996780000000  0.4902500000000 1.0
C      1  0.4965580000000  0.4481690000000  0.5144820000000 1.0
C      1  0.4657860000000  0.4936990000000  0.4626070000000 1.0
C      1  0.5446250000000  0.5050030000000  0.5258780000000 1.0
END
