TITL C-950532-2784-232 -5.11890530017035e-07 125000 -753.667044534895 0 0 123 (C1) n - 1
REM
REM in /home/bkarasulu/work/CARBON/AIRSS/Generating-Clusters/EDIP-Nigel-Params/with-SteepDescent/Only-C1/SD-CG/HFTN-CG
REM
REM
REM
REM
REM
REM ./C.cell (11c1c37f851c82e70ff6c80c92926a4b)
REM
REM compiler GCC version 9.2.1 20190827 (Red Hat 9.2.1-1)
REM options -cpp -mtune=generic -march=x86-64 -g -O0 -fpre-include=/usr/include/finclude/math-vector-fortran.h
REM seed -762484349 639561428 -1654867826 -886637539 61370951 -1566935767 506837317 -1888436750 -1720149441 -1099969667 380704750 1069956587 -1747977410 -1407504255 1528419875 1923220364 -525408702 -2073178428 -234792147 155594050 2008672120 732362014 872799414 -270837907 931655712 1535852329 -1904048636 471768935 45009065 -1898680869 -1499753310 -1474037556 2034098731
REM
CELL 1.54180   50.00000   50.00000   50.00000   90.00000   90.00000   90.00000
LATT -1
SFAC C  
C      1  0.5831920000000  0.5314260000000  0.5535900000000 1.0
C      1  0.5116910000000  0.5585580000000  0.5634720000000 1.0
C      1  0.5966220000000  0.4908790000000  0.4680230000000 1.0
C      1  0.4192930000000  0.5228620000000  0.4602910000000 1.0
C      1  0.5771850000000  0.4870410000000  0.5325300000000 1.0
C      1  0.4823500000000  0.5318970000000  0.5321970000000 1.0
C      1  0.5439630000000  0.5151060000000  0.5112740000000 1.0
C      1  0.5726570000000  0.5025210000000  0.5081220000000 1.0
C      1  0.4848590000000  0.4585090000000  0.4354360000000 1.0
C      1  0.5210380000000  0.4581060000000  0.5111980000000 1.0
C      1  0.4950740000000  0.5278730000000  0.5810530000000 1.0
C      1  0.4485560000000  0.5017520000000  0.5165290000000 1.0
C      1  0.4480180000000  0.5401730000000  0.4303380000000 1.0
C      1  0.5873240000000  0.5168750000000  0.4605380000000 1.0
C      1  0.5091150000000  0.4752450000000  0.5987550000000 1.0
C      1  0.5842450000000  0.5431330000000  0.5257440000000 1.0
C      1  0.5416120000000  0.4203330000000  0.4560410000000 1.0
C      1  0.4765030000000  0.5056980000000  0.5230280000000 1.0
C      1  0.5051490000000  0.4629830000000  0.4868700000000 1.0
C      1  0.5319990000000  0.4565610000000  0.4320570000000 1.0
C      1  0.4593530000000  0.4109880000000  0.4826370000000 1.0
C      1  0.5201080000000  0.5110900000000  0.4834490000000 1.0
C      1  0.5286800000000  0.5821440000000  0.4628550000000 1.0
C      1  0.4162070000000  0.4742120000000  0.4596120000000 1.0
C      1  0.4049110000000  0.4832120000000  0.4857700000000 1.0
C      1  0.5497520000000  0.4807630000000  0.4702200000000 1.0
C      1  0.5011280000000  0.5911690000000  0.4724380000000 1.0
C      1  0.4968240000000  0.4309620000000  0.5798380000000 1.0
C      1  0.4966350000000  0.4920540000000  0.4865310000000 1.0
C      1  0.4448530000000  0.4765980000000  0.5035610000000 1.0
C      1  0.4578840000000  0.5808630000000  0.4452300000000 1.0
C      1  0.4701400000000  0.5564680000000  0.4182370000000 1.0
C      1  0.5405150000000  0.5866220000000  0.5178350000000 1.0
C      1  0.4387130000000  0.5715290000000  0.4651840000000 1.0
C      1  0.5411250000000  0.4420100000000  0.5605250000000 1.0
C      1  0.5603780000000  0.4950860000000  0.4255520000000 1.0
C      1  0.4802330000000  0.4643140000000  0.4066020000000 1.0
C      1  0.4816120000000  0.4481430000000  0.4934520000000 1.0
C      1  0.5105540000000  0.4704670000000  0.4439770000000 1.0
C      1  0.4686660000000  0.5693810000000  0.5009790000000 1.0
C      1  0.5538820000000  0.5377880000000  0.5570140000000 1.0
C      1  0.5932360000000  0.5249140000000  0.5046070000000 1.0
C      1  0.5335970000000  0.5507180000000  0.4687270000000 1.0
C      1  0.5588490000000  0.5554990000000  0.4863040000000 1.0
C      1  0.4872230000000  0.5103700000000  0.4430970000000 1.0
C      1  0.4835460000000  0.5717230000000  0.4576610000000 1.0
C      1  0.5381050000000  0.4974130000000  0.5680020000000 1.0
C      1  0.5549980000000  0.5450720000000  0.5140290000000 1.0
C      1  0.4746420000000  0.4971360000000  0.4661320000000 1.0
C      1  0.4425620000000  0.4425380000000  0.4357090000000 1.0
C      1  0.5094320000000  0.5367150000000  0.5425570000000 1.0
C      1  0.4735260000000  0.4205170000000  0.5315510000000 1.0
C      1  0.4399060000000  0.5316560000000  0.5746380000000 1.0
C      1  0.4444800000000  0.5814650000000  0.4907160000000 1.0
C      1  0.5829830000000  0.5015780000000  0.5570990000000 1.0
C      1  0.5242780000000  0.4278130000000  0.4328300000000 1.0
C      1  0.4428930000000  0.5110660000000  0.4223060000000 1.0
C      1  0.5470820000000  0.5361170000000  0.4353750000000 1.0
C      1  0.4958080000000  0.4245980000000  0.5520730000000 1.0
C      1  0.4812040000000  0.4901160000000  0.3964260000000 1.0
C      1  0.5182010000000  0.5037620000000  0.5896240000000 1.0
C      1  0.4262370000000  0.4374900000000  0.5122620000000 1.0
C      1  0.4547030000000  0.4617330000000  0.5498130000000 1.0
C      1  0.4362470000000  0.5242080000000  0.5009740000000 1.0
C      1  0.4269240000000  0.4988130000000  0.4450890000000 1.0
C      1  0.4437410000000  0.5420200000000  0.4608360000000 1.0
C      1  0.4779890000000  0.4998180000000  0.5717340000000 1.0
C      1  0.4813740000000  0.4789140000000  0.5924360000000 1.0
C      1  0.4934150000000  0.4290210000000  0.4379840000000 1.0
C      1  0.4599400000000  0.4709250000000  0.4545400000000 1.0
C      1  0.5785140000000  0.4560960000000  0.4990020000000 1.0
C      1  0.4814830000000  0.4198830000000  0.5020050000000 1.0
C      1  0.5666200000000  0.4368490000000  0.4565180000000 1.0
C      1  0.4960980000000  0.5616890000000  0.4330030000000 1.0
C      1  0.4472710000000  0.5014860000000  0.5755550000000 1.0
C      1  0.5412490000000  0.5639220000000  0.5663980000000 1.0
C      1  0.4697900000000  0.4985400000000  0.4219000000000 1.0
C      1  0.5146120000000  0.4996590000000  0.4470400000000 1.0
C      1  0.5654980000000  0.4956330000000  0.5783970000000 1.0
C      1  0.4339680000000  0.5432400000000  0.5240590000000 1.0
C      1  0.4625640000000  0.4575780000000  0.5876170000000 1.0
C      1  0.5792980000000  0.4583220000000  0.5285830000000 1.0
C      1  0.5223010000000  0.4294020000000  0.4769260000000 1.0
C      1  0.5863680000000  0.5389720000000  0.4794380000000 1.0
C      1  0.5799450000000  0.4347100000000  0.4813590000000 1.0
C      1  0.5175390000000  0.4474500000000  0.5903600000000 1.0
C      1  0.4607890000000  0.5687720000000  0.5540400000000 1.0
C      1  0.5091020000000  0.5387910000000  0.4822330000000 1.0
C      1  0.4785970000000  0.5486190000000  0.4778060000000 1.0
C      1  0.4618960000000  0.5540190000000  0.5281160000000 1.0
C      1  0.4171540000000  0.4680360000000  0.5103450000000 1.0
C      1  0.5239490000000  0.4230330000000  0.5441120000000 1.0
C      1  0.5118980000000  0.4740410000000  0.5347680000000 1.0
C      1  0.5557850000000  0.5732400000000  0.5405500000000 1.0
C      1  0.4473980000000  0.4353480000000  0.5357710000000 1.0
C      1  0.4918270000000  0.5896630000000  0.5009440000000 1.0
C      1  0.5431100000000  0.5590400000000  0.4182640000000 1.0
C      1  0.5749890000000  0.5207960000000  0.4347780000000 1.0
C      1  0.4241460000000  0.4452550000000  0.4573820000000 1.0
C      1  0.4572950000000  0.4585620000000  0.4836700000000 1.0
C      1  0.5116830000000  0.5856350000000  0.5219500000000 1.0
C      1  0.4636280000000  0.5486930000000  0.5748570000000 1.0
C      1  0.5745430000000  0.4823410000000  0.4854710000000 1.0
C      1  0.4090260000000  0.4806470000000  0.5355680000000 1.0
C      1  0.4687580000000  0.4055450000000  0.4560090000000 1.0
C      1  0.4106750000000  0.5144250000000  0.4873180000000 1.0
C      1  0.5308050000000  0.4710690000000  0.5558800000000 1.0
C      1  0.4398840000000  0.4709410000000  0.5748480000000 1.0
C      1  0.4566650000000  0.4180160000000  0.4334940000000 1.0
C      1  0.5569700000000  0.4654970000000  0.4459560000000 1.0
C      1  0.4839510000000  0.4856880000000  0.5426490000000 1.0
C      1  0.5101240000000  0.4106980000000  0.4973070000000 1.0
C      1  0.5517800000000  0.5849150000000  0.4900600000000 1.0
C      1  0.5292640000000  0.4287080000000  0.5152890000000 1.0
C      1  0.5021860000000  0.5839820000000  0.5498570000000 1.0
C      1  0.4387110000000  0.4340160000000  0.4837270000000 1.0
C      1  0.4313970000000  0.4983500000000  0.5412720000000 1.0
C      1  0.5680300000000  0.4417070000000  0.5485280000000 1.0
C      1  0.4760150000000  0.5918060000000  0.5554190000000 1.0
C      1  0.5338780000000  0.5186340000000  0.5427950000000 1.0
C      1  0.5233340000000  0.5733800000000  0.4324220000000 1.0
C      1  0.4246250000000  0.5274280000000  0.5482020000000 1.0
C      1  0.5332950000000  0.5101090000000  0.4264660000000 1.0
END
