TITL C-950535-5962-241 -5.64477907371002e-06 125000 -640.814299261683 0 0 104 (C1) n - 1
REM
REM in /home/bkarasulu/work/CARBON/AIRSS/Generating-Clusters/EDIP-Nigel-Params/with-SteepDescent/Only-C1/SD-CG/HFTN-CG
REM
REM
REM
REM
REM
REM ./C.cell (11c1c37f851c82e70ff6c80c92926a4b)
REM
REM compiler GCC version 9.2.1 20190827 (Red Hat 9.2.1-1)
REM options -cpp -mtune=generic -march=x86-64 -g -O0 -fpre-include=/usr/include/finclude/math-vector-fortran.h
REM seed -1701268230 1257022863 1169104037 -2121064015 -1570597100 214034790 121434612 1835164185 1818659868 -345512304 -566892581 1530923492 515487567 1339115809 1814553597 -2133873867 -141510648 -362956960 -90945663 -1464144394 1442858938 676718776 -404895758 -1035444722 -240851336 1984665271 1906815780 1296883262 -1123297852 -384464089 1202632243 746188536 1683528452
REM
CELL 1.54180   50.00000   50.00000   50.00000   90.00000   90.00000   90.00000
LATT -1
SFAC C  
C      1  0.5157560000000  0.5342680000000  0.5703990000000 1.0
C      1  0.5095430000000  0.4515300000000  0.4824760000000 1.0
C      1  0.4771690000000  0.5776090000000  0.5080600000000 1.0
C      1  0.4970020000000  0.4679590000000  0.5844910000000 1.0
C      1  0.4403690000000  0.5052220000000  0.4098400000000 1.0
C      1  0.4932500000000  0.5412070000000  0.4254010000000 1.0
C      1  0.5554860000000  0.5319070000000  0.5030760000000 1.0
C      1  0.4537960000000  0.5634390000000  0.5208450000000 1.0
C      1  0.5196750000000  0.4346540000000  0.5541410000000 1.0
C      1  0.5702760000000  0.5123640000000  0.4577300000000 1.0
C      1  0.4712380000000  0.5279920000000  0.4940480000000 1.0
C      1  0.5028930000000  0.4543970000000  0.5131920000000 1.0
C      1  0.5127590000000  0.5785050000000  0.4781080000000 1.0
C      1  0.5111620000000  0.5094130000000  0.5007550000000 1.0
C      1  0.5484130000000  0.5281900000000  0.4707650000000 1.0
C      1  0.4315510000000  0.4607350000000  0.4400690000000 1.0
C      1  0.5635330000000  0.4594580000000  0.5255240000000 1.0
C      1  0.5000400000000  0.6027600000000  0.5462490000000 1.0
C      1  0.4342120000000  0.5167670000000  0.4345980000000 1.0
C      1  0.5426350000000  0.5305130000000  0.5887860000000 1.0
C      1  0.5020110000000  0.4425450000000  0.5743810000000 1.0
C      1  0.4734210000000  0.5463920000000  0.5700650000000 1.0
C      1  0.5092150000000  0.4097100000000  0.4721330000000 1.0
C      1  0.5069510000000  0.4271090000000  0.5276420000000 1.0
C      1  0.4146040000000  0.5211720000000  0.5367980000000 1.0
C      1  0.4715050000000  0.5166430000000  0.5803730000000 1.0
C      1  0.5237900000000  0.5413370000000  0.4287510000000 1.0
C      1  0.4577980000000  0.4665070000000  0.4310760000000 1.0
C      1  0.4494170000000  0.5548340000000  0.4515250000000 1.0
C      1  0.5233460000000  0.5230100000000  0.5425390000000 1.0
C      1  0.5769180000000  0.5077100000000  0.5071260000000 1.0
C      1  0.4789430000000  0.4155130000000  0.5272890000000 1.0
C      1  0.5223310000000  0.4269600000000  0.4521520000000 1.0
C      1  0.4300110000000  0.5441410000000  0.4343940000000 1.0
C      1  0.4362560000000  0.5285360000000  0.5525540000000 1.0
C      1  0.4666570000000  0.4392310000000  0.4710360000000 1.0
C      1  0.5006990000000  0.5596140000000  0.5697110000000 1.0
C      1  0.4524390000000  0.5524380000000  0.5487550000000 1.0
C      1  0.5462740000000  0.4755780000000  0.5687230000000 1.0
C      1  0.5247170000000  0.4094740000000  0.5134360000000 1.0
C      1  0.4426270000000  0.5291910000000  0.4865810000000 1.0
C      1  0.5237180000000  0.5086660000000  0.5969000000000 1.0
C      1  0.5446050000000  0.4815580000000  0.4854390000000 1.0
C      1  0.4474110000000  0.4719480000000  0.5637770000000 1.0
C      1  0.4693560000000  0.4787730000000  0.5844560000000 1.0
C      1  0.4337300000000  0.4415700000000  0.4869580000000 1.0
C      1  0.5458360000000  0.4505110000000  0.5521980000000 1.0
C      1  0.4244900000000  0.4624630000000  0.4673110000000 1.0
C      1  0.4729650000000  0.4015000000000  0.5038020000000 1.0
C      1  0.5685090000000  0.4526540000000  0.4491780000000 1.0
C      1  0.4666860000000  0.5874070000000  0.4814140000000 1.0
C      1  0.5413980000000  0.4504320000000  0.4834580000000 1.0
C      1  0.5416510000000  0.5768010000000  0.5465020000000 1.0
C      1  0.5519800000000  0.5795680000000  0.5198230000000 1.0
C      1  0.5127740000000  0.4952040000000  0.4183990000000 1.0
C      1  0.5367240000000  0.5499270000000  0.4540980000000 1.0
C      1  0.5343640000000  0.5143490000000  0.4214270000000 1.0
C      1  0.4510280000000  0.5072430000000  0.4579410000000 1.0
C      1  0.5128890000000  0.5785200000000  0.5511580000000 1.0
C      1  0.4872040000000  0.5089730000000  0.4244560000000 1.0
C      1  0.4281280000000  0.5032880000000  0.4957230000000 1.0
C      1  0.5184820000000  0.4751930000000  0.5276140000000 1.0
C      1  0.4835000000000  0.4176010000000  0.4832360000000 1.0
C      1  0.4853190000000  0.5998150000000  0.5240160000000 1.0
C      1  0.4597480000000  0.4361370000000  0.5319690000000 1.0
C      1  0.4884550000000  0.5817040000000  0.4616110000000 1.0
C      1  0.4417450000000  0.5718710000000  0.4745160000000 1.0
C      1  0.5263210000000  0.3961130000000  0.4898910000000 1.0
C      1  0.5573990000000  0.5251000000000  0.5618570000000 1.0
C      1  0.4809630000000  0.5046140000000  0.5364920000000 1.0
C      1  0.5591530000000  0.5005880000000  0.4330860000000 1.0
C      1  0.5222910000000  0.4998950000000  0.4758980000000 1.0
C      1  0.4988170000000  0.4805840000000  0.4665330000000 1.0
C      1  0.4824520000000  0.5041890000000  0.5071740000000 1.0
C      1  0.5677110000000  0.5499870000000  0.5480210000000 1.0
C      1  0.5242450000000  0.5327780000000  0.5129190000000 1.0
C      1  0.5502370000000  0.4732140000000  0.4380090000000 1.0
C      1  0.4423980000000  0.4840840000000  0.4774340000000 1.0
C      1  0.5184250000000  0.4874380000000  0.5759350000000 1.0
C      1  0.5436580000000  0.4815590000000  0.5152990000000 1.0
C      1  0.4576140000000  0.5076880000000  0.5551200000000 1.0
C      1  0.4638340000000  0.4907600000000  0.4147770000000 1.0
C      1  0.4798060000000  0.5544350000000  0.4503700000000 1.0
C      1  0.5786030000000  0.4883400000000  0.5319060000000 1.0
C      1  0.4337790000000  0.5563440000000  0.4995570000000 1.0
C      1  0.5831170000000  0.4612880000000  0.4754170000000 1.0
C      1  0.5736440000000  0.4916090000000  0.4803670000000 1.0
C      1  0.5700820000000  0.4448090000000  0.4987440000000 1.0
C      1  0.5030490000000  0.5574360000000  0.4984110000000 1.0
C      1  0.5673650000000  0.5553510000000  0.5183590000000 1.0
C      1  0.4689150000000  0.4686510000000  0.4851910000000 1.0
C      1  0.5062290000000  0.4477740000000  0.4385940000000 1.0
C      1  0.5658380000000  0.4963310000000  0.5581040000000 1.0
C      1  0.4754440000000  0.4670700000000  0.5152550000000 1.0
C      1  0.4372870000000  0.4739260000000  0.5346960000000 1.0
C      1  0.5520080000000  0.4288170000000  0.4533720000000 1.0
C      1  0.4823310000000  0.5069020000000  0.4546050000000 1.0
C      1  0.5360580000000  0.5760900000000  0.4632240000000 1.0
C      1  0.4233650000000  0.4977790000000  0.5234520000000 1.0
C      1  0.5083810000000  0.4970450000000  0.5462440000000 1.0
C      1  0.4772250000000  0.4490920000000  0.4440410000000 1.0
C      1  0.4895930000000  0.5339010000000  0.4710710000000 1.0
C      1  0.4368590000000  0.4477610000000  0.5173290000000 1.0
C      1  0.5221220000000  0.4704500000000  0.4302700000000 1.0
END
