TITL C-950524-1808-222 2.742844933875e-07 125000 -403.534690396895 0 0 65 (C1) n - 1
REM
REM in /home/bkarasulu/work/CARBON/AIRSS/Generating-Clusters/EDIP-Nigel-Params/with-SteepDescent/Only-C1/SD-CG/HFTN-CG
REM
REM
REM
REM
REM
REM ./C.cell (11c1c37f851c82e70ff6c80c92926a4b)
REM
REM compiler GCC version 9.2.1 20190827 (Red Hat 9.2.1-1)
REM options -cpp -mtune=generic -march=x86-64 -g -O0 -fpre-include=/usr/include/finclude/math-vector-fortran.h
REM seed -917763849 986564598 436211154 -902039655 -651133799 1557798451 -1766945002 1301510650 -1805361847 733865608 -1286559115 -423506070 -559674405 1512203296 -1946604638 -814284137 -485855963 1424874095 1187591444 -1065712730 800272845 717107180 1075794858 1584045486 1324504945 1119993115 828574926 1101079449 -669497310 545323957 1886240094 185993845 -396047455
REM
CELL 1.54180   50.00000   50.00000   50.00000   90.00000   90.00000   90.00000
LATT -1
SFAC C  
C      1  0.5603750000000  0.5238730000000  0.4576170000000 1.0
C      1  0.5154720000000  0.4672820000000  0.4880970000000 1.0
C      1  0.5654880000000  0.5150980000000  0.5059650000000 1.0
C      1  0.5253970000000  0.5606790000000  0.4698080000000 1.0
C      1  0.5646590000000  0.5051270000000  0.4788020000000 1.0
C      1  0.4237750000000  0.5083090000000  0.5314200000000 1.0
C      1  0.5260770000000  0.4302180000000  0.4793670000000 1.0
C      1  0.5292490000000  0.4723470000000  0.4598830000000 1.0
C      1  0.4987960000000  0.5166000000000  0.4689520000000 1.0
C      1  0.5387330000000  0.5225670000000  0.4386310000000 1.0
C      1  0.4683490000000  0.5778180000000  0.5177360000000 1.0
C      1  0.4359670000000  0.4686960000000  0.5467390000000 1.0
C      1  0.4984640000000  0.5677860000000  0.4806540000000 1.0
C      1  0.4958180000000  0.4788910000000  0.5698450000000 1.0
C      1  0.4932200000000  0.5455160000000  0.4363040000000 1.0
C      1  0.5590330000000  0.4612640000000  0.4605370000000 1.0
C      1  0.4378620000000  0.5110920000000  0.5063010000000 1.0
C      1  0.5077400000000  0.4889220000000  0.5123530000000 1.0
C      1  0.5067930000000  0.5528670000000  0.5546060000000 1.0
C      1  0.5202570000000  0.4183980000000  0.5057770000000 1.0
C      1  0.5107960000000  0.5046520000000  0.5617040000000 1.0
C      1  0.4468720000000  0.4659690000000  0.5730590000000 1.0
C      1  0.5769900000000  0.4790160000000  0.4761290000000 1.0
C      1  0.4914110000000  0.5614870000000  0.5102440000000 1.0
C      1  0.4471800000000  0.5436700000000  0.5440670000000 1.0
C      1  0.4134770000000  0.4838220000000  0.5403640000000 1.0
C      1  0.4797230000000  0.5185610000000  0.4290640000000 1.0
C      1  0.4910970000000  0.4672790000000  0.4338830000000 1.0
C      1  0.5003190000000  0.4577100000000  0.5483680000000 1.0
C      1  0.4710440000000  0.5239850000000  0.5404660000000 1.0
C      1  0.4675820000000  0.4934650000000  0.4708000000000 1.0
C      1  0.5620850000000  0.4419800000000  0.5046650000000 1.0
C      1  0.5782890000000  0.4679110000000  0.5042360000000 1.0
C      1  0.5394020000000  0.5562990000000  0.5220860000000 1.0
C      1  0.5288560000000  0.4524120000000  0.5426980000000 1.0
C      1  0.5189860000000  0.5017130000000  0.4491050000000 1.0
C      1  0.5554690000000  0.4358940000000  0.4761970000000 1.0
C      1  0.4637980000000  0.4920720000000  0.5417900000000 1.0
C      1  0.4931970000000  0.5291180000000  0.5599930000000 1.0
C      1  0.4853190000000  0.4736550000000  0.5268640000000 1.0
C      1  0.4884930000000  0.4533480000000  0.4822210000000 1.0
C      1  0.4801470000000  0.5555960000000  0.4607900000000 1.0
C      1  0.5303500000000  0.5326370000000  0.4800920000000 1.0
C      1  0.4716600000000  0.4556900000000  0.5067100000000 1.0
C      1  0.4999560000000  0.4955810000000  0.4268410000000 1.0
C      1  0.5234030000000  0.5492580000000  0.4399380000000 1.0
C      1  0.5153610000000  0.4517390000000  0.4419100000000 1.0
C      1  0.4804450000000  0.5320660000000  0.5119990000000 1.0
C      1  0.4462640000000  0.4885310000000  0.4910420000000 1.0
C      1  0.4464570000000  0.5600290000000  0.5188200000000 1.0
C      1  0.5106930000000  0.4265210000000  0.4547550000000 1.0
C      1  0.4594260000000  0.5151140000000  0.4519190000000 1.0
C      1  0.4446800000000  0.4623440000000  0.5011300000000 1.0
C      1  0.5412200000000  0.5318590000000  0.5086160000000 1.0
C      1  0.4227710000000  0.5304990000000  0.5483430000000 1.0
C      1  0.4562950000000  0.5402840000000  0.4686070000000 1.0
C      1  0.4524870000000  0.5360530000000  0.4990790000000 1.0
C      1  0.5381850000000  0.4343410000000  0.5217240000000 1.0
C      1  0.5260480000000  0.5005750000000  0.5357540000000 1.0
C      1  0.4670070000000  0.4861910000000  0.5723850000000 1.0
C      1  0.5491310000000  0.4841510000000  0.5413330000000 1.0
C      1  0.4747140000000  0.4670620000000  0.4591360000000 1.0
C      1  0.5709690000000  0.4905270000000  0.5232300000000 1.0
C      1  0.5139160000000  0.5640320000000  0.5302900000000 1.0
C      1  0.4965100000000  0.5119510000000  0.4981590000000 1.0
END
