TITL C-951339-9237-529 -1.30312992737896e-06 125000 -533.71560584147 0 0 86 (C1) n - 1
REM
REM in /home/bkarasulu/work/CARBON/AIRSS/Generating-Clusters/EDIP-Nigel-Params/with-SteepDescent/Only-C1/SD-CG/HFTN-CG
REM
REM
REM
REM
REM
REM ./C.cell (11c1c37f851c82e70ff6c80c92926a4b)
REM
REM compiler GCC version 9.2.1 20190827 (Red Hat 9.2.1-1)
REM options -cpp -mtune=generic -march=x86-64 -g -O0 -fpre-include=/usr/include/finclude/math-vector-fortran.h
REM seed -626678407 1912408520 -771774977 1791308254 -304859063 568272886 -2071656838 2104178001 1123050305 -520707271 -801514412 -32274088 2010850981 1983349959 1338983094 -294136655 -273589526 391267570 -1893097845 -1953390404 1158362358 -912948909 536625533 -1229791730 1913590186 1774910979 -1031052052 -463157852 1484407487 -318611281 854937003 290627887 -489230234
REM
CELL 1.54180   50.00000   50.00000   50.00000   90.00000   90.00000   90.00000
LATT -1
SFAC C  
C      1  0.5197990000000  0.5144470000000  0.5249700000000 1.0
C      1  0.4821450000000  0.5356310000000  0.4328570000000 1.0
C      1  0.5379910000000  0.4781890000000  0.5058780000000 1.0
C      1  0.4851550000000  0.4673410000000  0.5707420000000 1.0
C      1  0.4301890000000  0.5460830000000  0.4899500000000 1.0
C      1  0.4687090000000  0.5603640000000  0.5105230000000 1.0
C      1  0.5060740000000  0.5753000000000  0.4576640000000 1.0
C      1  0.4336710000000  0.5027350000000  0.4982770000000 1.0
C      1  0.4795140000000  0.5059180000000  0.4753030000000 1.0
C      1  0.4670720000000  0.4570170000000  0.5172490000000 1.0
C      1  0.4500950000000  0.5467710000000  0.5601050000000 1.0
C      1  0.4838590000000  0.5767480000000  0.5318110000000 1.0
C      1  0.4810820000000  0.5863620000000  0.4633930000000 1.0
C      1  0.4212060000000  0.4662860000000  0.5318770000000 1.0
C      1  0.4980000000000  0.5200310000000  0.5783170000000 1.0
C      1  0.4445030000000  0.4985660000000  0.4487080000000 1.0
C      1  0.4929240000000  0.4435850000000  0.4365560000000 1.0
C      1  0.5499420000000  0.4367560000000  0.4855770000000 1.0
C      1  0.4650060000000  0.4532760000000  0.4397340000000 1.0
C      1  0.5326740000000  0.4243460000000  0.4643440000000 1.0
C      1  0.5821520000000  0.4965530000000  0.5466850000000 1.0
C      1  0.4990880000000  0.5482810000000  0.5689320000000 1.0
C      1  0.4623320000000  0.4536020000000  0.4856340000000 1.0
C      1  0.5301300000000  0.4525740000000  0.5560580000000 1.0
C      1  0.5315910000000  0.4761030000000  0.4619610000000 1.0
C      1  0.5254610000000  0.5584830000000  0.5049740000000 1.0
C      1  0.4578170000000  0.4693450000000  0.5644260000000 1.0
C      1  0.5031150000000  0.4449760000000  0.5657040000000 1.0
C      1  0.4626740000000  0.5241110000000  0.4546760000000 1.0
C      1  0.5438880000000  0.5384300000000  0.5529660000000 1.0
C      1  0.5145890000000  0.5735170000000  0.5301650000000 1.0
C      1  0.4347230000000  0.4568040000000  0.4769980000000 1.0
C      1  0.5354450000000  0.4712790000000  0.4188070000000 1.0
C      1  0.4391270000000  0.5586390000000  0.5149300000000 1.0
C      1  0.5499470000000  0.4547270000000  0.4372570000000 1.0
C      1  0.5480660000000  0.5194770000000  0.5753560000000 1.0
C      1  0.4844630000000  0.4818820000000  0.5171800000000 1.0
C      1  0.4728170000000  0.5034500000000  0.5763460000000 1.0
C      1  0.4264870000000  0.5116270000000  0.5469140000000 1.0
C      1  0.5065080000000  0.5176890000000  0.4784340000000 1.0
C      1  0.5645930000000  0.5394460000000  0.5321800000000 1.0
C      1  0.4222990000000  0.4933090000000  0.5248530000000 1.0
C      1  0.5429370000000  0.5003410000000  0.5211350000000 1.0
C      1  0.5764640000000  0.4889540000000  0.4742900000000 1.0
C      1  0.4689940000000  0.5673780000000  0.4805030000000 1.0
C      1  0.5706190000000  0.5359430000000  0.4849930000000 1.0
C      1  0.5588650000000  0.5293260000000  0.4594710000000 1.0
C      1  0.5052940000000  0.5524760000000  0.4401480000000 1.0
C      1  0.5531550000000  0.4686960000000  0.4825790000000 1.0
C      1  0.4801140000000  0.4748810000000  0.4676640000000 1.0
C      1  0.5460070000000  0.4992160000000  0.4211600000000 1.0
C      1  0.5214990000000  0.4427540000000  0.5258580000000 1.0
C      1  0.4470900000000  0.4597190000000  0.5394530000000 1.0
C      1  0.4940280000000  0.4249820000000  0.5468620000000 1.0
C      1  0.4145640000000  0.5235420000000  0.4907830000000 1.0
C      1  0.5069970000000  0.4631050000000  0.4753180000000 1.0
C      1  0.5229550000000  0.5588490000000  0.5552520000000 1.0
C      1  0.5559350000000  0.5517380000000  0.5066490000000 1.0
C      1  0.5030180000000  0.4349500000000  0.4641260000000 1.0
C      1  0.4499910000000  0.5485660000000  0.4685920000000 1.0
C      1  0.5088730000000  0.5314150000000  0.5050370000000 1.0
C      1  0.5065380000000  0.4677180000000  0.4262200000000 1.0
C      1  0.4769490000000  0.4268880000000  0.4789740000000 1.0
C      1  0.5216050000000  0.5728870000000  0.4805530000000 1.0
C      1  0.5231620000000  0.5076210000000  0.5850230000000 1.0
C      1  0.4874420000000  0.4888540000000  0.4261650000000 1.0
C      1  0.4965140000000  0.5145800000000  0.4190580000000 1.0
C      1  0.4332180000000  0.4848780000000  0.4735050000000 1.0
C      1  0.4758380000000  0.5623520000000  0.5577880000000 1.0
C      1  0.4800490000000  0.4304630000000  0.5228750000000 1.0
C      1  0.5419600000000  0.4284880000000  0.5113930000000 1.0
C      1  0.5242770000000  0.5199200000000  0.4304110000000 1.0
C      1  0.5695700000000  0.5042430000000  0.4482170000000 1.0
C      1  0.5703100000000  0.5108150000000  0.5243260000000 1.0
C      1  0.5396770000000  0.4765450000000  0.5694120000000 1.0
C      1  0.5828580000000  0.5106530000000  0.4956560000000 1.0
C      1  0.5277870000000  0.5082560000000  0.4603920000000 1.0
C      1  0.5633460000000  0.4945950000000  0.5683190000000 1.0
C      1  0.4290360000000  0.5497100000000  0.5401940000000 1.0
C      1  0.4512180000000  0.5178100000000  0.5616480000000 1.0
C      1  0.4805040000000  0.5328360000000  0.5133250000000 1.0
C      1  0.5449100000000  0.4274530000000  0.4391710000000 1.0
C      1  0.4803590000000  0.4118440000000  0.5020880000000 1.0
C      1  0.4594600000000  0.4805070000000  0.4297880000000 1.0
C      1  0.5104620000000  0.4668070000000  0.5066660000000 1.0
C      1  0.4686260000000  0.5063960000000  0.5036850000000 1.0
END
