TITL C-951346-9544-713 -1.04060543065638e-06 125000 -1259.31887256144 0 0 199 (C1) n - 1
REM
REM in /home/bkarasulu/work/CARBON/AIRSS/Generating-Clusters/EDIP-Nigel-Params/with-SteepDescent/Only-C1/SD-CG/HFTN-CG
REM
REM
REM
REM
REM
REM ./C.cell (11c1c37f851c82e70ff6c80c92926a4b)
REM
REM compiler GCC version 9.2.1 20190827 (Red Hat 9.2.1-1)
REM options -cpp -mtune=generic -march=x86-64 -g -O0 -fpre-include=/usr/include/finclude/math-vector-fortran.h
REM seed -573370678 2067135287 -2102618613 -1387870652 -683336839 -1288373978 1743677966 -323661011 689644335 -312365202 -567724799 1716144745 1100017750 -1089162801 -1298907713 -870453308 -1346910561 1686176793 -910153334 -1574855136 -272465403 -641870215 -584868487 1583670519 1954256898 -1873151202 236688414 1164275621 1351933677 80665568 620952152 -44369677 192787340
REM
CELL 1.54180   50.00000   50.00000   50.00000   90.00000   90.00000   90.00000
LATT -1
SFAC C  
C      1  0.4010740000000  0.5102130000000  0.4320580000000 1.0
C      1  0.4786480000000  0.4892010000000  0.4002890000000 1.0
C      1  0.4325050000000  0.4069320000000  0.5329260000000 1.0
C      1  0.5758020000000  0.4364820000000  0.5110150000000 1.0
C      1  0.5072740000000  0.4953020000000  0.4996680000000 1.0
C      1  0.4911380000000  0.5005940000000  0.3763700000000 1.0
C      1  0.4806190000000  0.5724350000000  0.5433620000000 1.0
C      1  0.6103650000000  0.4656740000000  0.5514540000000 1.0
C      1  0.5289010000000  0.4671480000000  0.3972890000000 1.0
C      1  0.5068990000000  0.5878880000000  0.5839740000000 1.0
C      1  0.5595930000000  0.4698380000000  0.5693860000000 1.0
C      1  0.4877970000000  0.3948060000000  0.5276620000000 1.0
C      1  0.5064420000000  0.6142380000000  0.5398250000000 1.0
C      1  0.4741060000000  0.4992620000000  0.4704870000000 1.0
C      1  0.4146630000000  0.5483520000000  0.4598150000000 1.0
C      1  0.4361720000000  0.4971530000000  0.4269610000000 1.0
C      1  0.5672460000000  0.5221870000000  0.5192500000000 1.0
C      1  0.5488370000000  0.4027750000000  0.4922830000000 1.0
C      1  0.5090070000000  0.4170310000000  0.4245000000000 1.0
C      1  0.5230610000000  0.4421280000000  0.5481100000000 1.0
C      1  0.5595990000000  0.3935730000000  0.5200620000000 1.0
C      1  0.5612010000000  0.5983480000000  0.4237690000000 1.0
C      1  0.5690020000000  0.4935970000000  0.5304270000000 1.0
C      1  0.5463260000000  0.4762270000000  0.5208050000000 1.0
C      1  0.4827320000000  0.4025630000000  0.5548070000000 1.0
C      1  0.4376100000000  0.4698920000000  0.4403760000000 1.0
C      1  0.4609820000000  0.5645800000000  0.5860860000000 1.0
C      1  0.4305740000000  0.5433980000000  0.4358650000000 1.0
C      1  0.4505950000000  0.4990750000000  0.4004810000000 1.0
C      1  0.5671140000000  0.4970980000000  0.5610250000000 1.0
C      1  0.4140980000000  0.5806620000000  0.5051760000000 1.0
C      1  0.5470700000000  0.4493710000000  0.4094890000000 1.0
C      1  0.5786440000000  0.4313740000000  0.4409220000000 1.0
C      1  0.5700260000000  0.4247970000000  0.5556450000000 1.0
C      1  0.4933580000000  0.4051930000000  0.4786980000000 1.0
C      1  0.4340070000000  0.5400730000000  0.4900360000000 1.0
C      1  0.4141740000000  0.5504650000000  0.5112320000000 1.0
C      1  0.5955820000000  0.4692260000000  0.4643930000000 1.0
C      1  0.5543880000000  0.5278900000000  0.5973070000000 1.0
C      1  0.4812700000000  0.5270980000000  0.5306570000000 1.0
C      1  0.5059730000000  0.5116310000000  0.6096360000000 1.0
C      1  0.5283720000000  0.4226630000000  0.5876800000000 1.0
C      1  0.4142210000000  0.4988910000000  0.5189440000000 1.0
C      1  0.4974980000000  0.5141700000000  0.4792160000000 1.0
C      1  0.4525850000000  0.4601050000000  0.5965510000000 1.0
C      1  0.6126940000000  0.5115220000000  0.5264970000000 1.0
C      1  0.6095370000000  0.5020260000000  0.4985570000000 1.0
C      1  0.5596860000000  0.4986790000000  0.4618070000000 1.0
C      1  0.5343600000000  0.4701890000000  0.5476580000000 1.0
C      1  0.4173780000000  0.4498210000000  0.4320330000000 1.0
C      1  0.5394520000000  0.4191570000000  0.5584790000000 1.0
C      1  0.5077030000000  0.4646130000000  0.6074390000000 1.0
C      1  0.5245660000000  0.5249690000000  0.4367360000000 1.0
C      1  0.4103030000000  0.4855290000000  0.5853670000000 1.0
C      1  0.4564320000000  0.4571040000000  0.4597740000000 1.0
C      1  0.4829840000000  0.5788560000000  0.6012390000000 1.0
C      1  0.5590130000000  0.5036780000000  0.4125050000000 1.0
C      1  0.5926170000000  0.5343960000000  0.5310630000000 1.0
C      1  0.4625830000000  0.4876390000000  0.6012330000000 1.0
C      1  0.5238370000000  0.5382650000000  0.4641400000000 1.0
C      1  0.5496770000000  0.4339100000000  0.6022810000000 1.0
C      1  0.5367160000000  0.3932150000000  0.5393230000000 1.0
C      1  0.5860500000000  0.5412130000000  0.5605760000000 1.0
C      1  0.4347700000000  0.4138400000000  0.5619640000000 1.0
C      1  0.4814910000000  0.6240630000000  0.5265880000000 1.0
C      1  0.5239810000000  0.5338290000000  0.5142440000000 1.0
C      1  0.5154980000000  0.5411310000000  0.3938360000000 1.0
C      1  0.5291840000000  0.4746760000000  0.4952780000000 1.0
C      1  0.4477960000000  0.4646240000000  0.4883880000000 1.0
C      1  0.3965330000000  0.5138110000000  0.4811080000000 1.0
C      1  0.4800110000000  0.5544340000000  0.4532400000000 1.0
C      1  0.5085410000000  0.5561960000000  0.5074100000000 1.0
C      1  0.5247070000000  0.5351540000000  0.5585370000000 1.0
C      1  0.4721770000000  0.4401760000000  0.5824810000000 1.0
C      1  0.5291120000000  0.5725220000000  0.5927070000000 1.0
C      1  0.4697600000000  0.5781620000000  0.4369760000000 1.0
C      1  0.4736680000000  0.5371920000000  0.5801490000000 1.0
C      1  0.4559680000000  0.4926700000000  0.4919610000000 1.0
C      1  0.4650210000000  0.5785960000000  0.5112990000000 1.0
C      1  0.4743870000000  0.5297280000000  0.4337440000000 1.0
C      1  0.4944290000000  0.5363550000000  0.6018320000000 1.0
C      1  0.5004980000000  0.4789280000000  0.4372850000000 1.0
C      1  0.4928260000000  0.5797010000000  0.4153930000000 1.0
C      1  0.4793430000000  0.4587100000000  0.3985120000000 1.0
C      1  0.5439340000000  0.5390220000000  0.5329590000000 1.0
C      1  0.4656190000000  0.5433920000000  0.4067170000000 1.0
C      1  0.4373240000000  0.4266470000000  0.4298030000000 1.0
C      1  0.5072070000000  0.5116860000000  0.5240190000000 1.0
C      1  0.5276310000000  0.4623300000000  0.4406640000000 1.0
C      1  0.5337240000000  0.5474490000000  0.4166590000000 1.0
C      1  0.4879310000000  0.5428310000000  0.4898350000000 1.0
C      1  0.3957410000000  0.4833430000000  0.4823150000000 1.0
C      1  0.5765550000000  0.5187870000000  0.5782890000000 1.0
C      1  0.5194900000000  0.6098260000000  0.5118110000000 1.0
C      1  0.4475740000000  0.5197710000000  0.4422840000000 1.0
C      1  0.4742010000000  0.4803300000000  0.5502150000000 1.0
C      1  0.4808290000000  0.4099990000000  0.4270660000000 1.0
C      1  0.4919260000000  0.4882520000000  0.5973560000000 1.0
C      1  0.6024290000000  0.5177120000000  0.4514640000000 1.0
C      1  0.5038170000000  0.5885030000000  0.5536940000000 1.0
C      1  0.4376350000000  0.6021500000000  0.4644560000000 1.0
C      1  0.5181770000000  0.4346730000000  0.4469270000000 1.0
C      1  0.5577280000000  0.5743500000000  0.5382480000000 1.0
C      1  0.5706100000000  0.4538680000000  0.4714070000000 1.0
C      1  0.5110660000000  0.5874940000000  0.4735600000000 1.0
C      1  0.5589720000000  0.5954550000000  0.4700480000000 1.0
C      1  0.4522240000000  0.5091560000000  0.5813320000000 1.0
C      1  0.4981760000000  0.5087220000000  0.4279380000000 1.0
C      1  0.4225740000000  0.4569060000000  0.5280170000000 1.0
C      1  0.4821250000000  0.4739820000000  0.4590650000000 1.0
C      1  0.5241680000000  0.5803220000000  0.4993320000000 1.0
C      1  0.4463230000000  0.5652740000000  0.4217940000000 1.0
C      1  0.5965040000000  0.5584140000000  0.5152360000000 1.0
C      1  0.4280650000000  0.5439050000000  0.5409200000000 1.0
C      1  0.5670770000000  0.5342980000000  0.4119150000000 1.0
C      1  0.5555660000000  0.4612140000000  0.5983010000000 1.0
C      1  0.4933780000000  0.4467460000000  0.5129720000000 1.0
C      1  0.5906930000000  0.5395740000000  0.4341540000000 1.0
C      1  0.4269930000000  0.4606910000000  0.5834520000000 1.0
C      1  0.4606500000000  0.5550230000000  0.4926610000000 1.0
C      1  0.5812040000000  0.4525580000000  0.5584110000000 1.0
C      1  0.5985570000000  0.5236160000000  0.4805460000000 1.0
C      1  0.6190150000000  0.4931110000000  0.5476560000000 1.0
C      1  0.5183070000000  0.4986780000000  0.5520060000000 1.0
C      1  0.5186740000000  0.5735040000000  0.4286640000000 1.0
C      1  0.5147270000000  0.3888590000000  0.5201100000000 1.0
C      1  0.4496320000000  0.4232010000000  0.4576610000000 1.0
C      1  0.4717780000000  0.4509290000000  0.5528950000000 1.0
C      1  0.5088970000000  0.5632920000000  0.4559820000000 1.0
C      1  0.4175570000000  0.4605900000000  0.4968720000000 1.0
C      1  0.4450920000000  0.4070880000000  0.5059030000000 1.0
C      1  0.4623190000000  0.4124300000000  0.5732490000000 1.0
C      1  0.5125650000000  0.4257410000000  0.3977980000000 1.0
C      1  0.5726140000000  0.5846650000000  0.4458180000000 1.0
C      1  0.4579400000000  0.5793000000000  0.5613720000000 1.0
C      1  0.3897840000000  0.5329760000000  0.5046650000000 1.0
C      1  0.6012930000000  0.4233220000000  0.4854670000000 1.0
C      1  0.4484460000000  0.4422070000000  0.5316000000000 1.0
C      1  0.5723740000000  0.5729350000000  0.5138470000000 1.0
C      1  0.5757780000000  0.4204950000000  0.4698690000000 1.0
C      1  0.4090550000000  0.4345380000000  0.4832520000000 1.0
C      1  0.5788980000000  0.4138670000000  0.5303410000000 1.0
C      1  0.5795300000000  0.4825280000000  0.4218070000000 1.0
C      1  0.5532960000000  0.5468410000000  0.4725010000000 1.0
C      1  0.5534490000000  0.5734060000000  0.4900830000000 1.0
C      1  0.3975460000000  0.4421500000000  0.4564480000000 1.0
C      1  0.5865720000000  0.4923180000000  0.4490700000000 1.0
C      1  0.6121630000000  0.4739320000000  0.4872420000000 1.0
C      1  0.5366070000000  0.4949870000000  0.3933450000000 1.0
C      1  0.4955500000000  0.4359360000000  0.5397380000000 1.0
C      1  0.4626930000000  0.4301670000000  0.4136730000000 1.0
C      1  0.4495870000000  0.4968750000000  0.5525560000000 1.0
C      1  0.5679440000000  0.4553170000000  0.4271590000000 1.0
C      1  0.4947460000000  0.4911640000000  0.5672650000000 1.0
C      1  0.4825750000000  0.5979080000000  0.4828190000000 1.0
C      1  0.4231870000000  0.5130410000000  0.5849910000000 1.0
C      1  0.4335900000000  0.5734740000000  0.5474180000000 1.0
C      1  0.4644970000000  0.6002520000000  0.4581280000000 1.0
C      1  0.4917930000000  0.6213510000000  0.4991960000000 1.0
C      1  0.5029010000000  0.4398040000000  0.5923180000000 1.0
C      1  0.4104870000000  0.5303200000000  0.5633520000000 1.0
C      1  0.5350080000000  0.4772790000000  0.6100570000000 1.0
C      1  0.3907050000000  0.4874070000000  0.5643880000000 1.0
C      1  0.3874680000000  0.5109420000000  0.5243900000000 1.0
C      1  0.4372000000000  0.5878690000000  0.5219840000000 1.0
C      1  0.5429950000000  0.5505830000000  0.5797990000000 1.0
C      1  0.3864980000000  0.5148890000000  0.5541180000000 1.0
C      1  0.5140040000000  0.5124880000000  0.3875970000000 1.0
C      1  0.4938320000000  0.5589870000000  0.6192730000000 1.0
C      1  0.5181440000000  0.4456870000000  0.4958690000000 1.0
C      1  0.5201510000000  0.3902600000000  0.4907730000000 1.0
C      1  0.4194200000000  0.4353530000000  0.5732380000000 1.0
C      1  0.5461100000000  0.4314100000000  0.5003750000000 1.0
C      1  0.3946580000000  0.5268630000000  0.4556810000000 1.0
C      1  0.4184540000000  0.5909250000000  0.4795190000000 1.0
C      1  0.4389010000000  0.5123350000000  0.5059190000000 1.0
C      1  0.5321300000000  0.6052870000000  0.4600860000000 1.0
C      1  0.4312040000000  0.4151260000000  0.4806260000000 1.0
C      1  0.6113760000000  0.4470920000000  0.4995370000000 1.0
C      1  0.5657280000000  0.5623120000000  0.5634500000000 1.0
C      1  0.5682300000000  0.5227740000000  0.4853210000000 1.0
C      1  0.5917890000000  0.4723640000000  0.5260570000000 1.0
C      1  0.3958090000000  0.4821740000000  0.4324110000000 1.0
C      1  0.5664550000000  0.5553230000000  0.4450710000000 1.0
C      1  0.4742110000000  0.4037030000000  0.5038020000000 1.0
C      1  0.5338020000000  0.5994880000000  0.4312120000000 1.0
C      1  0.5055590000000  0.4321760000000  0.4726580000000 1.0
C      1  0.3874550000000  0.4699950000000  0.4573450000000 1.0
C      1  0.4901900000000  0.5574490000000  0.3956600000000 1.0
C      1  0.4729820000000  0.4040730000000  0.4550800000000 1.0
C      1  0.4643160000000  0.4468590000000  0.5064500000000 1.0
C      1  0.5057360000000  0.4513670000000  0.3886600000000 1.0
C      1  0.4902570000000  0.5436310000000  0.5532170000000 1.0
C      1  0.5454740000000  0.4724420000000  0.4676110000000 1.0
C      1  0.4209690000000  0.4828360000000  0.5429750000000 1.0
C      1  0.5342530000000  0.5063080000000  0.6039810000000 1.0
C      1  0.4519630000000  0.5205120000000  0.5329100000000 1.0
C      1  0.4510880000000  0.5248720000000  0.3894440000000 1.0
C      1  0.5451780000000  0.5059140000000  0.4378690000000 1.0
END
