TITL C-950532-2784-674 -9.81258681390868e-08 125000 -1176.88723894472 0 0 187 (C1) n - 1
REM
REM in /home/bkarasulu/work/CARBON/AIRSS/Generating-Clusters/EDIP-Nigel-Params/with-SteepDescent/Only-C1/SD-CG/HFTN-CG
REM
REM
REM
REM
REM
REM ./C.cell (11c1c37f851c82e70ff6c80c92926a4b)
REM
REM compiler GCC version 9.2.1 20190827 (Red Hat 9.2.1-1)
REM options -cpp -mtune=generic -march=x86-64 -g -O0 -fpre-include=/usr/include/finclude/math-vector-fortran.h
REM seed -310319710 1104830003 -1427461829 -1374104771 449333334 -1630768022 -1523203073 -731813481 -1646389630 -328729102 -283824754 -1244196823 1403471037 -1622776862 -414150523 9123335 -370440611 -1345498824 1364844001 -1001207942 1195775555 1035779637 648108886 -966167822 647275699 -744573339 947317356 -1754605552 -1119708850 453137931 57501531 -930874168 1176231584
REM
CELL 1.54180   50.00000   50.00000   50.00000   90.00000   90.00000   90.00000
LATT -1
SFAC C  
C      1  0.4846950000000  0.5228550000000  0.4646500000000 1.0
C      1  0.4917320000000  0.6074260000000  0.4560250000000 1.0
C      1  0.4551830000000  0.4788170000000  0.4969170000000 1.0
C      1  0.5570640000000  0.4959420000000  0.5129940000000 1.0
C      1  0.4107820000000  0.5744760000000  0.5497080000000 1.0
C      1  0.4934940000000  0.6108810000000  0.5046250000000 1.0
C      1  0.4373440000000  0.4027550000000  0.5280190000000 1.0
C      1  0.6002000000000  0.4305360000000  0.4834100000000 1.0
C      1  0.4191310000000  0.5396110000000  0.5116430000000 1.0
C      1  0.4516510000000  0.5256350000000  0.4754660000000 1.0
C      1  0.4182820000000  0.4281530000000  0.4500150000000 1.0
C      1  0.4838470000000  0.3913320000000  0.4541140000000 1.0
C      1  0.5795140000000  0.5685620000000  0.5225440000000 1.0
C      1  0.4369550000000  0.4126070000000  0.4634080000000 1.0
C      1  0.4453440000000  0.5642450000000  0.4415070000000 1.0
C      1  0.4603640000000  0.4048290000000  0.4463690000000 1.0
C      1  0.5903160000000  0.5465610000000  0.4719600000000 1.0
C      1  0.5552590000000  0.4547550000000  0.4875350000000 1.0
C      1  0.4649220000000  0.5275010000000  0.5281510000000 1.0
C      1  0.5071360000000  0.4406020000000  0.4461990000000 1.0
C      1  0.5341810000000  0.5456340000000  0.4041450000000 1.0
C      1  0.4626890000000  0.5357520000000  0.5728520000000 1.0
C      1  0.4469650000000  0.5314090000000  0.5045100000000 1.0
C      1  0.6011820000000  0.4787610000000  0.5048250000000 1.0
C      1  0.4982900000000  0.4946270000000  0.4007380000000 1.0
C      1  0.4987370000000  0.4774930000000  0.4727900000000 1.0
C      1  0.5593240000000  0.5243810000000  0.5817750000000 1.0
C      1  0.5258640000000  0.4644930000000  0.4369180000000 1.0
C      1  0.5213910000000  0.5417810000000  0.5623780000000 1.0
C      1  0.5781430000000  0.5187670000000  0.4320740000000 1.0
C      1  0.4286140000000  0.4462450000000  0.5718000000000 1.0
C      1  0.5402560000000  0.5844560000000  0.5488960000000 1.0
C      1  0.5473570000000  0.4393910000000  0.5141730000000 1.0
C      1  0.5781620000000  0.4594810000000  0.5489090000000 1.0
C      1  0.4572320000000  0.4671860000000  0.3996560000000 1.0
C      1  0.4743550000000  0.4362120000000  0.4836700000000 1.0
C      1  0.5070620000000  0.5193910000000  0.4842350000000 1.0
C      1  0.5813850000000  0.5045560000000  0.5790310000000 1.0
C      1  0.5372760000000  0.4692970000000  0.5625560000000 1.0
C      1  0.4754270000000  0.5148010000000  0.4034320000000 1.0
C      1  0.4654500000000  0.5757980000000  0.4866780000000 1.0
C      1  0.5271270000000  0.4679970000000  0.5915170000000 1.0
C      1  0.4960250000000  0.4239580000000  0.4975260000000 1.0
C      1  0.5414680000000  0.5210340000000  0.5582640000000 1.0
C      1  0.4411800000000  0.6094000000000  0.5022770000000 1.0
C      1  0.4436600000000  0.4928400000000  0.4707600000000 1.0
C      1  0.5495710000000  0.4985150000000  0.4658090000000 1.0
C      1  0.4514870000000  0.4280180000000  0.5749500000000 1.0
C      1  0.3908740000000  0.4684360000000  0.5072400000000 1.0
C      1  0.4320390000000  0.5783400000000  0.5678870000000 1.0
C      1  0.5667830000000  0.5716720000000  0.4348920000000 1.0
C      1  0.4618800000000  0.4602640000000  0.4457950000000 1.0
C      1  0.3973320000000  0.4663280000000  0.5359500000000 1.0
C      1  0.5794710000000  0.5002750000000  0.4568110000000 1.0
C      1  0.5276710000000  0.4958090000000  0.5502350000000 1.0
C      1  0.5279460000000  0.4578040000000  0.3985320000000 1.0
C      1  0.4242420000000  0.5689370000000  0.5248510000000 1.0
C      1  0.5071410000000  0.5573200000000  0.4009930000000 1.0
C      1  0.5328650000000  0.4880190000000  0.5227660000000 1.0
C      1  0.4157170000000  0.4924620000000  0.5874220000000 1.0
C      1  0.5607090000000  0.5910350000000  0.5283110000000 1.0
C      1  0.4845320000000  0.4525000000000  0.4619640000000 1.0
C      1  0.4985440000000  0.5631040000000  0.5929890000000 1.0
C      1  0.4047680000000  0.5461800000000  0.4854840000000 1.0
C      1  0.4077940000000  0.4567560000000  0.4854950000000 1.0
C      1  0.4153300000000  0.4450500000000  0.5435570000000 1.0
C      1  0.4126210000000  0.4742300000000  0.4364270000000 1.0
C      1  0.4621460000000  0.5314780000000  0.6032290000000 1.0
C      1  0.5992530000000  0.4767040000000  0.5378520000000 1.0
C      1  0.5833150000000  0.5491610000000  0.5443980000000 1.0
C      1  0.4187390000000  0.4241390000000  0.5211090000000 1.0
C      1  0.4554090000000  0.4180610000000  0.5463640000000 1.0
C      1  0.4439940000000  0.5605470000000  0.4707100000000 1.0
C      1  0.4825080000000  0.4002000000000  0.5126030000000 1.0
C      1  0.4777800000000  0.4650820000000  0.6014020000000 1.0
C      1  0.5926880000000  0.5179360000000  0.4771480000000 1.0
C      1  0.5874540000000  0.4532090000000  0.4353550000000 1.0
C      1  0.4281850000000  0.5485470000000  0.4268810000000 1.0
C      1  0.4897620000000  0.5384000000000  0.6086760000000 1.0
C      1  0.4531200000000  0.4479480000000  0.4999510000000 1.0
C      1  0.5232940000000  0.5613760000000  0.5395400000000 1.0
C      1  0.4493990000000  0.4733850000000  0.5440190000000 1.0
C      1  0.4226730000000  0.4467140000000  0.4291780000000 1.0
C      1  0.5719300000000  0.4586650000000  0.5764460000000 1.0
C      1  0.5214780000000  0.6112970000000  0.4927930000000 1.0
C      1  0.5540590000000  0.4150450000000  0.4355460000000 1.0
C      1  0.4728700000000  0.5632250000000  0.4330090000000 1.0
C      1  0.5029070000000  0.4442870000000  0.3971810000000 1.0
C      1  0.5349060000000  0.5224120000000  0.4746170000000 1.0
C      1  0.4805800000000  0.5444510000000  0.4087140000000 1.0
C      1  0.4175100000000  0.5251640000000  0.4369040000000 1.0
C      1  0.4014250000000  0.5022770000000  0.5456790000000 1.0
C      1  0.5272120000000  0.5493050000000  0.5125910000000 1.0
C      1  0.4888250000000  0.5086280000000  0.5222190000000 1.0
C      1  0.4518030000000  0.4723340000000  0.6077040000000 1.0
C      1  0.5125360000000  0.5799160000000  0.4216140000000 1.0
C      1  0.4191200000000  0.5895480000000  0.5031020000000 1.0
C      1  0.5318480000000  0.5684830000000  0.4668170000000 1.0
C      1  0.5643590000000  0.5075990000000  0.4077090000000 1.0
C      1  0.5007840000000  0.4827420000000  0.5963070000000 1.0
C      1  0.4776020000000  0.4425300000000  0.5824470000000 1.0
C      1  0.5113200000000  0.3974750000000  0.4553980000000 1.0
C      1  0.3908750000000  0.4971460000000  0.5010230000000 1.0
C      1  0.4580210000000  0.4454400000000  0.5312780000000 1.0
C      1  0.5024480000000  0.4259100000000  0.5814730000000 1.0
C      1  0.5359240000000  0.4122000000000  0.5128140000000 1.0
C      1  0.4911060000000  0.5513050000000  0.4546360000000 1.0
C      1  0.4472410000000  0.5157700000000  0.5564170000000 1.0
C      1  0.5532330000000  0.5648730000000  0.4114240000000 1.0
C      1  0.5783090000000  0.5464000000000  0.4451290000000 1.0
C      1  0.4998240000000  0.4547960000000  0.5149770000000 1.0
C      1  0.4983050000000  0.5964860000000  0.5565710000000 1.0
C      1  0.4861710000000  0.4825700000000  0.5015960000000 1.0
C      1  0.4148200000000  0.4792190000000  0.4659850000000 1.0
C      1  0.4909570000000  0.5630330000000  0.4828670000000 1.0
C      1  0.5204930000000  0.5043300000000  0.3846410000000 1.0
C      1  0.4507750000000  0.4958590000000  0.4083120000000 1.0
C      1  0.5159380000000  0.4192920000000  0.4742790000000 1.0
C      1  0.4238680000000  0.4992960000000  0.4233200000000 1.0
C      1  0.6098730000000  0.5066980000000  0.4971760000000 1.0
C      1  0.4168110000000  0.5720630000000  0.4788330000000 1.0
C      1  0.4289060000000  0.4685570000000  0.5922640000000 1.0
C      1  0.4863150000000  0.5914930000000  0.4307910000000 1.0
C      1  0.3966670000000  0.5005870000000  0.4727300000000 1.0
C      1  0.4264350000000  0.4344770000000  0.4926050000000 1.0
C      1  0.5005370000000  0.5411360000000  0.5035110000000 1.0
C      1  0.5343380000000  0.4726440000000  0.4674840000000 1.0
C      1  0.6077780000000  0.4596900000000  0.4800880000000 1.0
C      1  0.4732100000000  0.6048740000000  0.4823010000000 1.0
C      1  0.5476720000000  0.4849880000000  0.6074840000000 1.0
C      1  0.5671410000000  0.5914600000000  0.4810340000000 1.0
C      1  0.5969640000000  0.5021840000000  0.5536560000000 1.0
C      1  0.5205630000000  0.6106980000000  0.4633720000000 1.0
C      1  0.5480590000000  0.4236730000000  0.5822410000000 1.0
C      1  0.4669930000000  0.4212430000000  0.4229970000000 1.0
C      1  0.5439180000000  0.5494980000000  0.4871590000000 1.0
C      1  0.6168770000000  0.5246510000000  0.5169980000000 1.0
C      1  0.4796450000000  0.4740070000000  0.5588220000000 1.0
C      1  0.5085700000000  0.4897410000000  0.4287600000000 1.0
C      1  0.5982120000000  0.4086860000000  0.4629450000000 1.0
C      1  0.4195280000000  0.5099060000000  0.5661040000000 1.0
C      1  0.5738230000000  0.5633400000000  0.4916100000000 1.0
C      1  0.4130890000000  0.5069830000000  0.5194390000000 1.0
C      1  0.5506830000000  0.5891050000000  0.4563630000000 1.0
C      1  0.4412140000000  0.4906960000000  0.5206800000000 1.0
C      1  0.4820260000000  0.4052280000000  0.5414570000000 1.0
C      1  0.4553660000000  0.5958760000000  0.5617210000000 1.0
C      1  0.5262800000000  0.4373360000000  0.5943890000000 1.0
C      1  0.5274200000000  0.4585140000000  0.5262580000000 1.0
C      1  0.4865140000000  0.4493840000000  0.5399540000000 1.0
C      1  0.4602270000000  0.4880060000000  0.4451620000000 1.0
C      1  0.5627370000000  0.4421870000000  0.4275800000000 1.0
C      1  0.4854010000000  0.4680140000000  0.3910320000000 1.0
C      1  0.5718040000000  0.4360970000000  0.4702270000000 1.0
C      1  0.5704680000000  0.5519550000000  0.5714890000000 1.0
C      1  0.5181790000000  0.5575300000000  0.4438380000000 1.0
C      1  0.5937400000000  0.4716990000000  0.4558980000000 1.0
C      1  0.4406090000000  0.5555960000000  0.5830640000000 1.0
C      1  0.4886650000000  0.4965260000000  0.4505300000000 1.0
C      1  0.5688090000000  0.4357090000000  0.5356340000000 1.0
C      1  0.4952980000000  0.5252050000000  0.5674730000000 1.0
C      1  0.5501290000000  0.5736200000000  0.5753250000000 1.0
C      1  0.4549340000000  0.3941120000000  0.5069050000000 1.0
C      1  0.5060190000000  0.4171850000000  0.5529790000000 1.0
C      1  0.5740270000000  0.4807440000000  0.5941930000000 1.0
C      1  0.5720100000000  0.4008810000000  0.4534040000000 1.0
C      1  0.4537890000000  0.5755950000000  0.5294260000000 1.0
C      1  0.5262520000000  0.4040770000000  0.4308120000000 1.0
C      1  0.5417440000000  0.5201900000000  0.3939850000000 1.0
C      1  0.5316350000000  0.4072350000000  0.5407230000000 1.0
C      1  0.4974170000000  0.4252930000000  0.4203560000000 1.0
C      1  0.5548700000000  0.4569030000000  0.4050350000000 1.0
C      1  0.5717740000000  0.4779930000000  0.4981660000000 1.0
C      1  0.5490600000000  0.6015980000000  0.5024600000000 1.0
C      1  0.4982200000000  0.5738560000000  0.5387550000000 1.0
C      1  0.5396130000000  0.5140740000000  0.6052970000000 1.0
C      1  0.4822940000000  0.5858010000000  0.5781860000000 1.0
C      1  0.4620120000000  0.6056470000000  0.5243440000000 1.0
C      1  0.5279940000000  0.5644110000000  0.5928630000000 1.0
C      1  0.4746360000000  0.5559950000000  0.5353470000000 1.0
C      1  0.5548960000000  0.4168980000000  0.5552320000000 1.0
C      1  0.5084000000000  0.5127400000000  0.6018740000000 1.0
C      1  0.5685490000000  0.4807540000000  0.4014580000000 1.0
C      1  0.4085640000000  0.5252370000000  0.4649990000000 1.0
C      1  0.6022270000000  0.5272880000000  0.5403510000000 1.0
C      1  0.4973240000000  0.5000000000000  0.5503210000000 1.0
C      1  0.4518110000000  0.4474620000000  0.4220980000000 1.0
END
