TITL C-951340-9809-516 4.29616618860995e-07 125000 -1110.30403210113 0 0 178 (C1) n - 1
REM
REM in /home/bkarasulu/work/CARBON/AIRSS/Generating-Clusters/EDIP-Nigel-Params/with-SteepDescent/Only-C1/SD-CG/HFTN-CG
REM
REM
REM
REM
REM
REM ./C.cell (11c1c37f851c82e70ff6c80c92926a4b)
REM
REM compiler GCC version 9.2.1 20190827 (Red Hat 9.2.1-1)
REM options -cpp -mtune=generic -march=x86-64 -g -O0 -fpre-include=/usr/include/finclude/math-vector-fortran.h
REM seed 598120115 -646626237 1210093731 -242251469 -1012409421 1659791230 1608735511 372111493 -1704344928 -1185381218 -1677118978 -2083950550 799814305 -1025480355 -185075792 268471737 -1112115988 2097156722 1199050120 1807223108 714936489 261857120 -1457795456 -144943377 -1631539002 -580827184 389884145 375617955 2098321684 216271409 735557890 1022165729 -1735229768
REM
CELL 1.54180   50.00000   50.00000   50.00000   90.00000   90.00000   90.00000
LATT -1
SFAC C  
C      1  0.5905780000000  0.4829000000000  0.4845890000000 1.0
C      1  0.5727540000000  0.5195750000000  0.4181180000000 1.0
C      1  0.3891650000000  0.4494700000000  0.4799360000000 1.0
C      1  0.5474190000000  0.5576980000000  0.4634460000000 1.0
C      1  0.4719970000000  0.4419340000000  0.4424500000000 1.0
C      1  0.3970320000000  0.5571430000000  0.4969690000000 1.0
C      1  0.4564210000000  0.5706190000000  0.5134190000000 1.0
C      1  0.3950020000000  0.5243750000000  0.4609120000000 1.0
C      1  0.5556470000000  0.5599590000000  0.5805390000000 1.0
C      1  0.4117190000000  0.5565490000000  0.5225000000000 1.0
C      1  0.5887840000000  0.5667710000000  0.5143860000000 1.0
C      1  0.5208490000000  0.4440180000000  0.5354160000000 1.0
C      1  0.5587010000000  0.5463120000000  0.4068440000000 1.0
C      1  0.3934350000000  0.4791750000000  0.4775000000000 1.0
C      1  0.4906720000000  0.6019280000000  0.4679660000000 1.0
C      1  0.4891480000000  0.5206210000000  0.5132160000000 1.0
C      1  0.6008800000000  0.5481600000000  0.5338330000000 1.0
C      1  0.5624650000000  0.5814570000000  0.5641520000000 1.0
C      1  0.4725600000000  0.5598500000000  0.4527430000000 1.0
C      1  0.5359320000000  0.5084560000000  0.6105310000000 1.0
C      1  0.3882170000000  0.5148260000000  0.5285330000000 1.0
C      1  0.6124470000000  0.5248240000000  0.5197400000000 1.0
C      1  0.4825630000000  0.5706580000000  0.5898470000000 1.0
C      1  0.5040670000000  0.5155980000000  0.4150460000000 1.0
C      1  0.5893410000000  0.4342700000000  0.4742880000000 1.0
C      1  0.4269960000000  0.4116010000000  0.5205370000000 1.0
C      1  0.4337640000000  0.5395780000000  0.4314640000000 1.0
C      1  0.4787790000000  0.5525530000000  0.4048630000000 1.0
C      1  0.5701190000000  0.5901750000000  0.5140060000000 1.0
C      1  0.4705330000000  0.3912650000000  0.5087340000000 1.0
C      1  0.5976440000000  0.5483550000000  0.5615370000000 1.0
C      1  0.5074100000000  0.4894290000000  0.3986010000000 1.0
C      1  0.4646690000000  0.5880450000000  0.4612660000000 1.0
C      1  0.4039580000000  0.5358540000000  0.5424840000000 1.0
C      1  0.4657150000000  0.5215810000000  0.5943400000000 1.0
C      1  0.5319000000000  0.5868110000000  0.4183560000000 1.0
C      1  0.5560480000000  0.5945860000000  0.5403790000000 1.0
C      1  0.4907540000000  0.4537360000000  0.5813100000000 1.0
C      1  0.4679060000000  0.4746550000000  0.5768560000000 1.0
C      1  0.4653870000000  0.3913460000000  0.4613930000000 1.0
C      1  0.3836910000000  0.4670240000000  0.5439860000000 1.0
C      1  0.4731320000000  0.4932510000000  0.4547450000000 1.0
C      1  0.5097080000000  0.4239290000000  0.4905330000000 1.0
C      1  0.5566480000000  0.4964790000000  0.5956300000000 1.0
C      1  0.5519450000000  0.5970350000000  0.4360970000000 1.0
C      1  0.5523360000000  0.4771360000000  0.4217460000000 1.0
C      1  0.4916170000000  0.4018520000000  0.5277460000000 1.0
C      1  0.4392580000000  0.5918750000000  0.4784650000000 1.0
C      1  0.5799120000000  0.5123660000000  0.5883810000000 1.0
C      1  0.5310590000000  0.5582550000000  0.4105160000000 1.0
C      1  0.4232630000000  0.4925440000000  0.5552170000000 1.0
C      1  0.5180470000000  0.4861660000000  0.5693160000000 1.0
C      1  0.3828450000000  0.4404470000000  0.5052950000000 1.0
C      1  0.4833830000000  0.4765270000000  0.5289200000000 1.0
C      1  0.4397600000000  0.5348980000000  0.4826480000000 1.0
C      1  0.4138200000000  0.5697680000000  0.4735650000000 1.0
C      1  0.5280420000000  0.5600250000000  0.5164140000000 1.0
C      1  0.5375160000000  0.4107020000000  0.5588090000000 1.0
C      1  0.4924770000000  0.4851370000000  0.6125990000000 1.0
C      1  0.5513300000000  0.5049860000000  0.4333590000000 1.0
C      1  0.4254940000000  0.4211850000000  0.4559210000000 1.0
C      1  0.6014610000000  0.5184880000000  0.4428960000000 1.0
C      1  0.5667940000000  0.4792840000000  0.4675170000000 1.0
C      1  0.4748070000000  0.6108970000000  0.5142000000000 1.0
C      1  0.5546990000000  0.5041880000000  0.4633930000000 1.0
C      1  0.5828950000000  0.4557240000000  0.5467670000000 1.0
C      1  0.5622740000000  0.4205920000000  0.5123530000000 1.0
C      1  0.4679350000000  0.5385670000000  0.4729230000000 1.0
C      1  0.4197700000000  0.5426390000000  0.4591760000000 1.0
C      1  0.5330660000000  0.4697020000000  0.4948330000000 1.0
C      1  0.5917470000000  0.5455130000000  0.4462200000000 1.0
C      1  0.5588040000000  0.4937120000000  0.5430050000000 1.0
C      1  0.5237090000000  0.5395510000000  0.4559690000000 1.0
C      1  0.4435590000000  0.4889250000000  0.4647740000000 1.0
C      1  0.5388670000000  0.5310240000000  0.5157360000000 1.0
C      1  0.4800530000000  0.4786820000000  0.3911820000000 1.0
C      1  0.4845220000000  0.3832610000000  0.4839400000000 1.0
C      1  0.4039650000000  0.5007860000000  0.4968220000000 1.0
C      1  0.4648000000000  0.5670200000000  0.5682280000000 1.0
C      1  0.4459010000000  0.4608440000000  0.4753990000000 1.0
C      1  0.4337630000000  0.5062060000000  0.4891800000000 1.0
C      1  0.4418650000000  0.4706430000000  0.5629890000000 1.0
C      1  0.5112100000000  0.4872760000000  0.5371920000000 1.0
C      1  0.5296490000000  0.4420920000000  0.4550970000000 1.0
C      1  0.5013800000000  0.5630910000000  0.5036560000000 1.0
C      1  0.5756690000000  0.5389250000000  0.5759920000000 1.0
C      1  0.5168200000000  0.4431290000000  0.5654090000000 1.0
C      1  0.5264200000000  0.5545500000000  0.5836530000000 1.0
C      1  0.6079940000000  0.4963220000000  0.5264940000000 1.0
C      1  0.5889520000000  0.4438530000000  0.4472140000000 1.0
C      1  0.4988520000000  0.4312670000000  0.5187830000000 1.0
C      1  0.5049660000000  0.5897750000000  0.5500980000000 1.0
C      1  0.4970220000000  0.5980700000000  0.4967700000000 1.0
C      1  0.5072150000000  0.5764150000000  0.5775060000000 1.0
C      1  0.4458830000000  0.4050670000000  0.5014090000000 1.0
C      1  0.4822310000000  0.5674470000000  0.5271530000000 1.0
C      1  0.5168790000000  0.5213040000000  0.4783920000000 1.0
C      1  0.5194550000000  0.3895570000000  0.5189070000000 1.0
C      1  0.4324490000000  0.4633500000000  0.4276470000000 1.0
C      1  0.3975020000000  0.4950830000000  0.4526780000000 1.0
C      1  0.5509770000000  0.4212760000000  0.4465200000000 1.0
C      1  0.5892560000000  0.4859680000000  0.5475730000000 1.0
C      1  0.5964640000000  0.5568240000000  0.4886630000000 1.0
C      1  0.5949400000000  0.4539130000000  0.4961930000000 1.0
C      1  0.4847870000000  0.3989680000000  0.5562880000000 1.0
C      1  0.4589150000000  0.5927660000000  0.5571820000000 1.0
C      1  0.4485260000000  0.5024840000000  0.5137800000000 1.0
C      1  0.4492430000000  0.5271330000000  0.5316690000000 1.0
C      1  0.4584980000000  0.5036540000000  0.4098690000000 1.0
C      1  0.5266060000000  0.5203780000000  0.4330920000000 1.0
C      1  0.4801430000000  0.6068120000000  0.5440850000000 1.0
C      1  0.5481790000000  0.4818420000000  0.5706250000000 1.0
C      1  0.3996950000000  0.4889590000000  0.5386450000000 1.0
C      1  0.4246620000000  0.4901260000000  0.4401620000000 1.0
C      1  0.5245930000000  0.6072140000000  0.5059990000000 1.0
C      1  0.3997160000000  0.4298610000000  0.4630910000000 1.0
C      1  0.5803550000000  0.5577830000000  0.4222720000000 1.0
C      1  0.4596030000000  0.4264080000000  0.5650270000000 1.0
C      1  0.4197200000000  0.4337150000000  0.5355100000000 1.0
C      1  0.4753450000000  0.4962740000000  0.5088090000000 1.0
C      1  0.4600640000000  0.5537020000000  0.4266230000000 1.0
C      1  0.5033680000000  0.4086780000000  0.4426390000000 1.0
C      1  0.5332720000000  0.4704620000000  0.5252000000000 1.0
C      1  0.4901110000000  0.4272060000000  0.4646840000000 1.0
C      1  0.5295160000000  0.4111650000000  0.4314960000000 1.0
C      1  0.4656580000000  0.3842410000000  0.4339280000000 1.0
C      1  0.5286250000000  0.5886690000000  0.5299540000000 1.0
C      1  0.4379480000000  0.4429280000000  0.5560660000000 1.0
C      1  0.5117690000000  0.5877050000000  0.4514480000000 1.0
C      1  0.5136110000000  0.3931010000000  0.4896160000000 1.0
C      1  0.5496100000000  0.6001900000000  0.4906610000000 1.0
C      1  0.5420320000000  0.5867480000000  0.4620280000000 1.0
C      1  0.4434570000000  0.5298030000000  0.5783620000000 1.0
C      1  0.4930650000000  0.5364830000000  0.4900170000000 1.0
C      1  0.5147240000000  0.5125680000000  0.5216720000000 1.0
C      1  0.6092620000000  0.5084370000000  0.4699690000000 1.0
C      1  0.4978740000000  0.4578040000000  0.6084300000000 1.0
C      1  0.5152190000000  0.4695480000000  0.4447940000000 1.0
C      1  0.5973250000000  0.4957250000000  0.5737580000000 1.0
C      1  0.3941210000000  0.4456560000000  0.5298580000000 1.0
C      1  0.6131510000000  0.5312830000000  0.4906900000000 1.0
C      1  0.4426900000000  0.4455220000000  0.4503590000000 1.0
C      1  0.4401190000000  0.4008940000000  0.4728410000000 1.0
C      1  0.5790280000000  0.4441450000000  0.5196870000000 1.0
C      1  0.4586500000000  0.3987270000000  0.5653080000000 1.0
C      1  0.4747110000000  0.5457280000000  0.5473160000000 1.0
C      1  0.4851310000000  0.4686130000000  0.4407560000000 1.0
C      1  0.4987000000000  0.5307570000000  0.5587000000000 1.0
C      1  0.4322470000000  0.5119590000000  0.4206840000000 1.0
C      1  0.5741390000000  0.5466250000000  0.4714390000000 1.0
C      1  0.4740720000000  0.4561870000000  0.4856400000000 1.0
C      1  0.5243790000000  0.4700720000000  0.4150730000000 1.0
C      1  0.3870170000000  0.5281390000000  0.4907470000000 1.0
C      1  0.4827920000000  0.4034530000000  0.4224080000000 1.0
C      1  0.5345280000000  0.4408260000000  0.4847500000000 1.0
C      1  0.4382200000000  0.5481500000000  0.5121420000000 1.0
C      1  0.5672080000000  0.4622910000000  0.4441060000000 1.0
C      1  0.4857750000000  0.4845230000000  0.4823260000000 1.0
C      1  0.5600860000000  0.5211790000000  0.4888510000000 1.0
C      1  0.5523470000000  0.5232750000000  0.5417880000000 1.0
C      1  0.4295300000000  0.5219130000000  0.5540030000000 1.0
C      1  0.5781670000000  0.5015550000000  0.5042380000000 1.0
C      1  0.5293850000000  0.5228680000000  0.5617900000000 1.0
C      1  0.5053080000000  0.5427340000000  0.4011740000000 1.0
C      1  0.4476620000000  0.5976490000000  0.5074860000000 1.0
C      1  0.4666470000000  0.4925040000000  0.6002530000000 1.0
C      1  0.5599610000000  0.4537210000000  0.5660050000000 1.0
C      1  0.5021250000000  0.5601810000000  0.4499520000000 1.0
C      1  0.5158260000000  0.4884860000000  0.4764990000000 1.0
C      1  0.5510580000000  0.4283280000000  0.5761920000000 1.0
C      1  0.5421060000000  0.4058020000000  0.5300270000000 1.0
C      1  0.4713840000000  0.4296300000000  0.4155780000000 1.0
C      1  0.5656200000000  0.4181300000000  0.4824160000000 1.0
C      1  0.4959330000000  0.5285220000000  0.5885370000000 1.0
C      1  0.4570270000000  0.4647700000000  0.4073070000000 1.0
C      1  0.5110040000000  0.5025660000000  0.5967830000000 1.0
C      1  0.4773010000000  0.4507050000000  0.5149080000000 1.0
C      1  0.4776470000000  0.5132830000000  0.4304710000000 1.0
END
