TITL C-950533-5798-450 1.3887441968333e-06 125000 -1024.92573780712 0 0 165 (C1) n - 1
REM
REM in /home/bkarasulu/work/CARBON/AIRSS/Generating-Clusters/EDIP-Nigel-Params/with-SteepDescent/Only-C1/SD-CG/HFTN-CG
REM
REM
REM
REM
REM
REM ./C.cell (11c1c37f851c82e70ff6c80c92926a4b)
REM
REM compiler GCC version 9.2.1 20190827 (Red Hat 9.2.1-1)
REM options -cpp -mtune=generic -march=x86-64 -g -O0 -fpre-include=/usr/include/finclude/math-vector-fortran.h
REM seed 775884981 1144949511 595751887 91426569 -361705997 1703787546 -1766154948 900681382 -1449857511 1790119249 1985432668 963223948 534998726 -1999905800 577981170 -729545781 76449383 1953159365 -1581406389 -1965501753 -258496774 1735186029 -37559809 24253474 1616627281 424890429 -770781478 52229301 641791159 -1332430048 -415591466 1555086546 -1073975864
REM
CELL 1.54180   50.00000   50.00000   50.00000   90.00000   90.00000   90.00000
LATT -1
SFAC C  
C      1  0.5795630000000  0.5615150000000  0.5159790000000 1.0
C      1  0.4881040000000  0.5590160000000  0.4214060000000 1.0
C      1  0.3952000000000  0.4691320000000  0.5579190000000 1.0
C      1  0.5048630000000  0.5672650000000  0.4852220000000 1.0
C      1  0.4577210000000  0.4923160000000  0.4616000000000 1.0
C      1  0.4907350000000  0.5688230000000  0.5393370000000 1.0
C      1  0.4961060000000  0.4982550000000  0.6031660000000 1.0
C      1  0.5829650000000  0.5609010000000  0.4667530000000 1.0
C      1  0.4836030000000  0.4532580000000  0.5485600000000 1.0
C      1  0.5514780000000  0.5183250000000  0.5299080000000 1.0
C      1  0.5646080000000  0.3977030000000  0.5519960000000 1.0
C      1  0.5161350000000  0.5416580000000  0.5937820000000 1.0
C      1  0.5973590000000  0.5205110000000  0.4972840000000 1.0
C      1  0.4618900000000  0.4234030000000  0.4538810000000 1.0
C      1  0.5223610000000  0.5603830000000  0.5336970000000 1.0
C      1  0.5877110000000  0.4882810000000  0.4456890000000 1.0
C      1  0.4874360000000  0.6078750000000  0.5023310000000 1.0
C      1  0.5042300000000  0.5192870000000  0.5146970000000 1.0
C      1  0.4361740000000  0.4478360000000  0.5222430000000 1.0
C      1  0.4857210000000  0.5184280000000  0.5586370000000 1.0
C      1  0.5132690000000  0.5470090000000  0.4666680000000 1.0
C      1  0.4659050000000  0.5296420000000  0.5987490000000 1.0
C      1  0.5122760000000  0.4381290000000  0.4670780000000 1.0
C      1  0.4444660000000  0.4237140000000  0.5660800000000 1.0
C      1  0.3732730000000  0.4888390000000  0.5200010000000 1.0
C      1  0.4551370000000  0.5219230000000  0.4054310000000 1.0
C      1  0.5313300000000  0.4322060000000  0.5682240000000 1.0
C      1  0.4181770000000  0.4735610000000  0.5725290000000 1.0
C      1  0.5759570000000  0.4760070000000  0.4211620000000 1.0
C      1  0.5101970000000  0.5912510000000  0.4657540000000 1.0
C      1  0.5357040000000  0.4696740000000  0.5039610000000 1.0
C      1  0.5918960000000  0.4662390000000  0.4647140000000 1.0
C      1  0.4947060000000  0.4370070000000  0.4058160000000 1.0
C      1  0.5798080000000  0.4412730000000  0.4553160000000 1.0
C      1  0.5009780000000  0.5258630000000  0.3841460000000 1.0
C      1  0.4645780000000  0.4817170000000  0.4905250000000 1.0
C      1  0.4705670000000  0.4501650000000  0.4120150000000 1.0
C      1  0.5169490000000  0.5662120000000  0.4209560000000 1.0
C      1  0.5392240000000  0.4975280000000  0.4877560000000 1.0
C      1  0.4876890000000  0.5394800000000  0.5809570000000 1.0
C      1  0.5288770000000  0.5682790000000  0.5051990000000 1.0
C      1  0.5010440000000  0.4673570000000  0.4569980000000 1.0
C      1  0.4268110000000  0.5016920000000  0.5779620000000 1.0
C      1  0.5064860000000  0.4654510000000  0.5075850000000 1.0
C      1  0.5190620000000  0.4507870000000  0.4027110000000 1.0
C      1  0.5535750000000  0.4909260000000  0.4115340000000 1.0
C      1  0.5510400000000  0.5097830000000  0.3893260000000 1.0
C      1  0.5452650000000  0.5710240000000  0.5511550000000 1.0
C      1  0.5795970000000  0.4443500000000  0.5068350000000 1.0
C      1  0.5712190000000  0.5276790000000  0.5513920000000 1.0
C      1  0.4601640000000  0.4606600000000  0.5898240000000 1.0
C      1  0.4273560000000  0.5548120000000  0.4322660000000 1.0
C      1  0.4636910000000  0.4056260000000  0.4977330000000 1.0
C      1  0.4485720000000  0.5421020000000  0.5553290000000 1.0
C      1  0.5425810000000  0.4034500000000  0.4540990000000 1.0
C      1  0.5270840000000  0.4713120000000  0.5473840000000 1.0
C      1  0.4109130000000  0.5474270000000  0.5328320000000 1.0
C      1  0.4538410000000  0.5688940000000  0.5644660000000 1.0
C      1  0.5547070000000  0.5401920000000  0.3978080000000 1.0
C      1  0.4786770000000  0.5203110000000  0.5278430000000 1.0
C      1  0.4124510000000  0.5560050000000  0.4566950000000 1.0
C      1  0.4693660000000  0.5429740000000  0.4674470000000 1.0
C      1  0.5336070000000  0.5784290000000  0.4435320000000 1.0
C      1  0.4774640000000  0.3948630000000  0.5464980000000 1.0
C      1  0.5267870000000  0.5141660000000  0.4266750000000 1.0
C      1  0.4948030000000  0.4347780000000  0.5726210000000 1.0
C      1  0.5258820000000  0.5404510000000  0.4078840000000 1.0
C      1  0.5246240000000  0.5303520000000  0.5324030000000 1.0
C      1  0.5511710000000  0.5475340000000  0.4934090000000 1.0
C      1  0.4858270000000  0.4476100000000  0.5993000000000 1.0
C      1  0.4561490000000  0.4812760000000  0.6115650000000 1.0
C      1  0.4707530000000  0.5594870000000  0.4934750000000 1.0
C      1  0.4892770000000  0.4376210000000  0.5138350000000 1.0
C      1  0.4092200000000  0.4554210000000  0.5134400000000 1.0
C      1  0.4944680000000  0.4810870000000  0.4856270000000 1.0
C      1  0.4014730000000  0.5295520000000  0.4620180000000 1.0
C      1  0.5447680000000  0.5953670000000  0.5653980000000 1.0
C      1  0.4218760000000  0.4418210000000  0.4677560000000 1.0
C      1  0.4586840000000  0.5013620000000  0.5135110000000 1.0
C      1  0.3831040000000  0.4958580000000  0.4946040000000 1.0
C      1  0.5783270000000  0.4216970000000  0.5522660000000 1.0
C      1  0.4983770000000  0.5119110000000  0.4397590000000 1.0
C      1  0.4901590000000  0.4929430000000  0.5725150000000 1.0
C      1  0.5513970000000  0.4070700000000  0.4808930000000 1.0
C      1  0.5792700000000  0.4716110000000  0.5494000000000 1.0
C      1  0.5819140000000  0.5780210000000  0.4918340000000 1.0
C      1  0.5488320000000  0.4085790000000  0.5719200000000 1.0
C      1  0.5889860000000  0.4692920000000  0.4935330000000 1.0
C      1  0.4610670000000  0.4069140000000  0.5266840000000 1.0
C      1  0.4364430000000  0.5280120000000  0.4269200000000 1.0
C      1  0.4693450000000  0.4733270000000  0.5654010000000 1.0
C      1  0.5613420000000  0.5116270000000  0.5762310000000 1.0
C      1  0.5015690000000  0.4738770000000  0.5350490000000 1.0
C      1  0.5491260000000  0.4779980000000  0.4635030000000 1.0
C      1  0.5145470000000  0.4767800000000  0.3921640000000 1.0
C      1  0.4746060000000  0.4789560000000  0.4114870000000 1.0
C      1  0.5518260000000  0.5266320000000  0.4431730000000 1.0
C      1  0.5675070000000  0.4810190000000  0.5747630000000 1.0
C      1  0.5640130000000  0.4339540000000  0.4818580000000 1.0
C      1  0.5949440000000  0.4920280000000  0.5357370000000 1.0
C      1  0.5696600000000  0.4452530000000  0.5362880000000 1.0
C      1  0.4810860000000  0.4871980000000  0.4407410000000 1.0
C      1  0.4349880000000  0.4494880000000  0.5806630000000 1.0
C      1  0.4847170000000  0.4792060000000  0.6214980000000 1.0
C      1  0.5951230000000  0.4935920000000  0.5074460000000 1.0
C      1  0.4582580000000  0.4493480000000  0.5004920000000 1.0
C      1  0.4182140000000  0.5075070000000  0.4360980000000 1.0
C      1  0.4256570000000  0.5730770000000  0.4751380000000 1.0
C      1  0.4554070000000  0.4948740000000  0.3982800000000 1.0
C      1  0.5980190000000  0.5172130000000  0.5474490000000 1.0
C      1  0.4485170000000  0.5804120000000  0.4904510000000 1.0
C      1  0.5264620000000  0.4248070000000  0.4444370000000 1.0
C      1  0.4705510000000  0.5493850000000  0.5245260000000 1.0
C      1  0.4954060000000  0.5255930000000  0.4654040000000 1.0
C      1  0.5709790000000  0.5100660000000  0.4592740000000 1.0
C      1  0.4162780000000  0.5310940000000  0.5086130000000 1.0
C      1  0.5212080000000  0.4254680000000  0.5194250000000 1.0
C      1  0.4868340000000  0.4109820000000  0.4577110000000 1.0
C      1  0.3850640000000  0.4751400000000  0.4752310000000 1.0
C      1  0.5278480000000  0.4744680000000  0.4434540000000 1.0
C      1  0.5403410000000  0.4522850000000  0.4800720000000 1.0
C      1  0.5887490000000  0.5309040000000  0.4720010000000 1.0
C      1  0.4818210000000  0.5930790000000  0.4567490000000 1.0
C      1  0.5305420000000  0.4028800000000  0.5020370000000 1.0
C      1  0.4236570000000  0.5733250000000  0.5323960000000 1.0
C      1  0.4473510000000  0.5863680000000  0.5420630000000 1.0
C      1  0.5357640000000  0.4489450000000  0.4283110000000 1.0
C      1  0.4808840000000  0.5958910000000  0.5293610000000 1.0
C      1  0.5686600000000  0.5432410000000  0.4242020000000 1.0
C      1  0.5670220000000  0.4482580000000  0.4281310000000 1.0
C      1  0.4818280000000  0.5344270000000  0.4053920000000 1.0
C      1  0.5354630000000  0.5899870000000  0.5899610000000 1.0
C      1  0.4667390000000  0.6018860000000  0.4809610000000 1.0
C      1  0.4388890000000  0.4225460000000  0.5369870000000 1.0
C      1  0.4896350000000  0.4045460000000  0.4851340000000 1.0
C      1  0.4300870000000  0.4861360000000  0.4525680000000 1.0
C      1  0.4311420000000  0.4571470000000  0.4440460000000 1.0
C      1  0.5692700000000  0.5688090000000  0.4401720000000 1.0
C      1  0.4584700000000  0.4470080000000  0.4383660000000 1.0
C      1  0.4460800000000  0.5749620000000  0.4320640000000 1.0
C      1  0.5382750000000  0.5970380000000  0.5037640000000 1.0
C      1  0.5085160000000  0.5076180000000  0.4877200000000 1.0
C      1  0.5160700000000  0.6101110000000  0.4893120000000 1.0
C      1  0.4223360000000  0.5309800000000  0.5556250000000 1.0
C      1  0.3920040000000  0.4712480000000  0.5306440000000 1.0
C      1  0.5243990000000  0.4953410000000  0.5997190000000 1.0
C      1  0.4322090000000  0.5089980000000  0.5154030000000 1.0
C      1  0.5213740000000  0.5033510000000  0.3838490000000 1.0
C      1  0.5363220000000  0.5195180000000  0.5905370000000 1.0
C      1  0.5637620000000  0.5994840000000  0.4922780000000 1.0
C      1  0.5092570000000  0.3863690000000  0.4934410000000 1.0
C      1  0.5413530000000  0.5462540000000  0.4639370000000 1.0
C      1  0.4826280000000  0.5667900000000  0.5688010000000 1.0
C      1  0.4066380000000  0.4595440000000  0.4851160000000 1.0
C      1  0.4471070000000  0.4266090000000  0.4796420000000 1.0
C      1  0.5237870000000  0.4739250000000  0.5780320000000 1.0
C      1  0.5717780000000  0.5588780000000  0.5447510000000 1.0
C      1  0.4709150000000  0.5672990000000  0.4446800000000 1.0
C      1  0.5255630000000  0.5671460000000  0.5995970000000 1.0
C      1  0.4475320000000  0.5069720000000  0.5986220000000 1.0
C      1  0.4736260000000  0.4123230000000  0.5687450000000 1.0
C      1  0.5488620000000  0.4606800000000  0.5863240000000 1.0
C      1  0.3942620000000  0.5233510000000  0.4896120000000 1.0
C      1  0.5377840000000  0.4433380000000  0.5398080000000 1.0
C      1  0.5590090000000  0.5180420000000  0.5014630000000 1.0
END
