TITL C-950527-2551-16 6.06064287642828e-07 125000 -1208.53756960354 0 0 192 (C1) n - 1
REM
REM in /home/bkarasulu/work/CARBON/AIRSS/Generating-Clusters/EDIP-Nigel-Params/with-SteepDescent/Only-C1/SD-CG/HFTN-CG
REM
REM
REM
REM
REM
REM ./C.cell (11c1c37f851c82e70ff6c80c92926a4b)
REM
REM compiler GCC version 9.2.1 20190827 (Red Hat 9.2.1-1)
REM options -cpp -mtune=generic -march=x86-64 -g -O0 -fpre-include=/usr/include/finclude/math-vector-fortran.h
REM seed -100098286 711952425 -1770412269 -1283959349 -411141100 -1800305084 2062860360 -1666656383 204537404 1240457489 -615287370 611239417 -1457632333 1860769258 685309125 -1652890020 -292432792 2107989929 356687176 1374623119 428080880 -1562689022 1556946365 -118008572 -639211577 -184269743 -1795149561 -836439103 1914744584 -2126232590 2069205211 2080063118 -1396687145
REM
CELL 1.54180   50.00000   50.00000   50.00000   90.00000   90.00000   90.00000
LATT -1
SFAC C  
C      1  0.4113040000000  0.4976400000000  0.4445500000000 1.0
C      1  0.4725560000000  0.4055540000000  0.5619910000000 1.0
C      1  0.5360460000000  0.4797100000000  0.4457580000000 1.0
C      1  0.4581040000000  0.5752150000000  0.5828810000000 1.0
C      1  0.5445860000000  0.5450330000000  0.5422870000000 1.0
C      1  0.5085950000000  0.5729570000000  0.4028130000000 1.0
C      1  0.5297460000000  0.5859070000000  0.4439500000000 1.0
C      1  0.5079970000000  0.4276370000000  0.5932650000000 1.0
C      1  0.5433970000000  0.5582830000000  0.4813310000000 1.0
C      1  0.4251920000000  0.4716260000000  0.3950800000000 1.0
C      1  0.5778440000000  0.5721220000000  0.4571680000000 1.0
C      1  0.4132350000000  0.5696210000000  0.5024980000000 1.0
C      1  0.4234330000000  0.5465660000000  0.5610960000000 1.0
C      1  0.5535300000000  0.5543820000000  0.4163520000000 1.0
C      1  0.4164830000000  0.4757210000000  0.5534220000000 1.0
C      1  0.5185770000000  0.4674050000000  0.6209530000000 1.0
C      1  0.5037810000000  0.4909030000000  0.6283860000000 1.0
C      1  0.5764100000000  0.4763840000000  0.4167120000000 1.0
C      1  0.4875650000000  0.5194270000000  0.5082140000000 1.0
C      1  0.5314740000000  0.5726150000000  0.4188180000000 1.0
C      1  0.3947920000000  0.5020530000000  0.4701000000000 1.0
C      1  0.5755650000000  0.5495690000000  0.4355860000000 1.0
C      1  0.4951440000000  0.5297420000000  0.3771660000000 1.0
C      1  0.3793980000000  0.4953890000000  0.5298150000000 1.0
C      1  0.6169640000000  0.4689170000000  0.4814670000000 1.0
C      1  0.4413290000000  0.4845090000000  0.4912010000000 1.0
C      1  0.4364530000000  0.5702290000000  0.4257030000000 1.0
C      1  0.6093210000000  0.4897570000000  0.5270710000000 1.0
C      1  0.4509000000000  0.5597820000000  0.5586940000000 1.0
C      1  0.4754690000000  0.3986120000000  0.4727070000000 1.0
C      1  0.5423020000000  0.4134780000000  0.5601010000000 1.0
C      1  0.3905270000000  0.4746490000000  0.5431360000000 1.0
C      1  0.4402580000000  0.5598060000000  0.5118520000000 1.0
C      1  0.4860610000000  0.4405350000000  0.4514580000000 1.0
C      1  0.5169390000000  0.3867250000000  0.4796670000000 1.0
C      1  0.4400510000000  0.4171580000000  0.5258610000000 1.0
C      1  0.5903790000000  0.4431080000000  0.5169880000000 1.0
C      1  0.5188930000000  0.5180810000000  0.5714710000000 1.0
C      1  0.5393090000000  0.5126880000000  0.4163100000000 1.0
C      1  0.4693420000000  0.5575720000000  0.4833470000000 1.0
C      1  0.4366240000000  0.4299990000000  0.4196330000000 1.0
C      1  0.5011140000000  0.5424880000000  0.5643210000000 1.0
C      1  0.5779330000000  0.5183770000000  0.4450020000000 1.0
C      1  0.5337170000000  0.4049720000000  0.4666300000000 1.0
C      1  0.4585000000000  0.5183190000000  0.6110960000000 1.0
C      1  0.4601310000000  0.5183250000000  0.4454620000000 1.0
C      1  0.4214990000000  0.5445760000000  0.4334970000000 1.0
C      1  0.5419280000000  0.6023410000000  0.4883150000000 1.0
C      1  0.5132950000000  0.6074010000000  0.4821410000000 1.0
C      1  0.5227850000000  0.5728160000000  0.5881490000000 1.0
C      1  0.5391440000000  0.4132190000000  0.5324020000000 1.0
C      1  0.4122650000000  0.4682010000000  0.4420340000000 1.0
C      1  0.3969320000000  0.4620420000000  0.5007980000000 1.0
C      1  0.4028800000000  0.5502510000000  0.4826030000000 1.0
C      1  0.4827930000000  0.5306120000000  0.6171600000000 1.0
C      1  0.4778620000000  0.5444900000000  0.5218320000000 1.0
C      1  0.5040440000000  0.4462910000000  0.5386980000000 1.0
C      1  0.4522110000000  0.4740780000000  0.3887410000000 1.0
C      1  0.5146240000000  0.4723300000000  0.4915340000000 1.0
C      1  0.4880740000000  0.4282220000000  0.4795470000000 1.0
C      1  0.5525460000000  0.4717690000000  0.5386240000000 1.0
C      1  0.4640120000000  0.4302630000000  0.4079210000000 1.0
C      1  0.4667640000000  0.4625270000000  0.4513780000000 1.0
C      1  0.4689190000000  0.4447180000000  0.4984010000000 1.0
C      1  0.3914870000000  0.5194490000000  0.5222830000000 1.0
C      1  0.5058360000000  0.5970760000000  0.4558790000000 1.0
C      1  0.5605540000000  0.4690720000000  0.4862650000000 1.0
C      1  0.5700360000000  0.4538070000000  0.5671370000000 1.0
C      1  0.5950580000000  0.4948140000000  0.5726230000000 1.0
C      1  0.5519580000000  0.4508480000000  0.5889400000000 1.0
C      1  0.5605390000000  0.4187160000000  0.5129020000000 1.0
C      1  0.5626970000000  0.4574910000000  0.5134840000000 1.0
C      1  0.5304570000000  0.5344470000000  0.4403800000000 1.0
C      1  0.4947930000000  0.6221680000000  0.4968100000000 1.0
C      1  0.5944370000000  0.5366060000000  0.5425990000000 1.0
C      1  0.5107000000000  0.4845860000000  0.3802250000000 1.0
C      1  0.5735530000000  0.5714730000000  0.5107270000000 1.0
C      1  0.5597140000000  0.4962260000000  0.4310570000000 1.0
C      1  0.4188550000000  0.5402490000000  0.5876650000000 1.0
C      1  0.6044150000000  0.5065680000000  0.4542060000000 1.0
C      1  0.4774020000000  0.5903930000000  0.4506130000000 1.0
C      1  0.4668600000000  0.5702000000000  0.4293480000000 1.0
C      1  0.4343500000000  0.5184230000000  0.4272800000000 1.0
C      1  0.4849660000000  0.4926920000000  0.5220160000000 1.0
C      1  0.5514040000000  0.5003820000000  0.6042530000000 1.0
C      1  0.5346480000000  0.4287240000000  0.5822390000000 1.0
C      1  0.4945060000000  0.5738460000000  0.5945180000000 1.0
C      1  0.5918470000000  0.5348320000000  0.4893700000000 1.0
C      1  0.4742940000000  0.5903200000000  0.5253730000000 1.0
C      1  0.3963120000000  0.5231820000000  0.4920270000000 1.0
C      1  0.5669220000000  0.5563910000000  0.6006000000000 1.0
C      1  0.5300090000000  0.5224100000000  0.6004450000000 1.0
C      1  0.5914090000000  0.5064720000000  0.5452510000000 1.0
C      1  0.4785860000000  0.4568440000000  0.5271420000000 1.0
C      1  0.5961100000000  0.4656380000000  0.5655740000000 1.0
C      1  0.5271450000000  0.4250890000000  0.4448350000000 1.0
C      1  0.4810100000000  0.5678130000000  0.4034740000000 1.0
C      1  0.4626360000000  0.5879910000000  0.4770020000000 1.0
C      1  0.4883580000000  0.5023780000000  0.3721770000000 1.0
C      1  0.4355630000000  0.4500120000000  0.5880530000000 1.0
C      1  0.3844130000000  0.4772060000000  0.4803260000000 1.0
C      1  0.5211590000000  0.4707210000000  0.5426960000000 1.0
C      1  0.5763140000000  0.5020310000000  0.5920320000000 1.0
C      1  0.4367120000000  0.5309500000000  0.5181810000000 1.0
C      1  0.5398160000000  0.4737160000000  0.6023190000000 1.0
C      1  0.4889940000000  0.4827680000000  0.5934850000000 1.0
C      1  0.5074760000000  0.5177870000000  0.6198450000000 1.0
C      1  0.4968050000000  0.5564040000000  0.4716000000000 1.0
C      1  0.5170350000000  0.4376510000000  0.4939940000000 1.0
C      1  0.4726530000000  0.5431150000000  0.3896830000000 1.0
C      1  0.5425570000000  0.5191200000000  0.5529460000000 1.0
C      1  0.4815350000000  0.4897750000000  0.4464860000000 1.0
C      1  0.5308540000000  0.5023290000000  0.3902680000000 1.0
C      1  0.5018450000000  0.5653010000000  0.5206030000000 1.0
C      1  0.4330640000000  0.4514890000000  0.5592590000000 1.0
C      1  0.4607690000000  0.4953950000000  0.5924300000000 1.0
C      1  0.4647710000000  0.4993330000000  0.3891800000000 1.0
C      1  0.6090520000000  0.4766120000000  0.4539960000000 1.0
C      1  0.4986120000000  0.5156630000000  0.4123260000000 1.0
C      1  0.4817850000000  0.5342970000000  0.4318040000000 1.0
C      1  0.5701950000000  0.5457420000000  0.5264670000000 1.0
C      1  0.5466210000000  0.4495140000000  0.4434860000000 1.0
C      1  0.4240940000000  0.4567650000000  0.4186010000000 1.0
C      1  0.4588770000000  0.4562870000000  0.5479510000000 1.0
C      1  0.5499120000000  0.5832230000000  0.4657370000000 1.0
C      1  0.4821050000000  0.4199280000000  0.4295800000000 1.0
C      1  0.4180320000000  0.5246960000000  0.5397970000000 1.0
C      1  0.4256920000000  0.4621540000000  0.5044380000000 1.0
C      1  0.4726430000000  0.5381070000000  0.5528100000000 1.0
C      1  0.4578470000000  0.5069680000000  0.5632330000000 1.0
C      1  0.5511140000000  0.5909080000000  0.5139990000000 1.0
C      1  0.5054150000000  0.4862710000000  0.4267060000000 1.0
C      1  0.4778770000000  0.3666420000000  0.4953370000000 1.0
C      1  0.4723220000000  0.4562190000000  0.3980500000000 1.0
C      1  0.4242570000000  0.5869940000000  0.4460440000000 1.0
C      1  0.6102580000000  0.5152130000000  0.4815700000000 1.0
C      1  0.4991110000000  0.4493500000000  0.6093560000000 1.0
C      1  0.5484560000000  0.5328790000000  0.4657370000000 1.0
C      1  0.6010540000000  0.5510180000000  0.5650710000000 1.0
C      1  0.5448990000000  0.4248810000000  0.4859220000000 1.0
C      1  0.4810770000000  0.4946950000000  0.5507580000000 1.0
C      1  0.5158350000000  0.5541050000000  0.4937860000000 1.0
C      1  0.5403890000000  0.5131910000000  0.4876810000000 1.0
C      1  0.5153370000000  0.5251520000000  0.4999900000000 1.0
C      1  0.6064530000000  0.4622020000000  0.5373040000000 1.0
C      1  0.5324570000000  0.5908130000000  0.5662940000000 1.0
C      1  0.4311570000000  0.5004520000000  0.5502710000000 1.0
C      1  0.5135310000000  0.4248650000000  0.5219700000000 1.0
C      1  0.5614920000000  0.5014470000000  0.5370120000000 1.0
C      1  0.5188920000000  0.5603770000000  0.5462380000000 1.0
C      1  0.4505020000000  0.5230790000000  0.3984800000000 1.0
C      1  0.5129390000000  0.4846210000000  0.5182310000000 1.0
C      1  0.4730440000000  0.6047910000000  0.5004720000000 1.0
C      1  0.4892970000000  0.4106190000000  0.5821760000000 1.0
C      1  0.6054050000000  0.4426750000000  0.4891810000000 1.0
C      1  0.5611820000000  0.4447470000000  0.4698530000000 1.0
C      1  0.5025260000000  0.5370990000000  0.4508200000000 1.0
C      1  0.5018220000000  0.3803500000000  0.5026710000000 1.0
C      1  0.4076870000000  0.4500990000000  0.4656770000000 1.0
C      1  0.5010520000000  0.4653900000000  0.4019230000000 1.0
C      1  0.5875370000000  0.5629060000000  0.4848740000000 1.0
C      1  0.4565110000000  0.3837970000000  0.4900980000000 1.0
C      1  0.5377330000000  0.4844800000000  0.4772980000000 1.0
C      1  0.4277040000000  0.4279150000000  0.4710470000000 1.0
C      1  0.4909230000000  0.4864700000000  0.4788380000000 1.0
C      1  0.5113410000000  0.4197780000000  0.4212210000000 1.0
C      1  0.5964770000000  0.4517800000000  0.4393880000000 1.0
C      1  0.4384560000000  0.4146250000000  0.4457540000000 1.0
C      1  0.5048480000000  0.4905300000000  0.5676430000000 1.0
C      1  0.4356030000000  0.5332720000000  0.6073630000000 1.0
C      1  0.4664940000000  0.4042220000000  0.5346140000000 1.0
C      1  0.4503750000000  0.5766760000000  0.5341620000000 1.0
C      1  0.6098710000000  0.4913510000000  0.4980890000000 1.0
C      1  0.5891400000000  0.4354130000000  0.4648420000000 1.0
C      1  0.4236700000000  0.4267450000000  0.5470120000000 1.0
C      1  0.5690260000000  0.4498810000000  0.4234740000000 1.0
C      1  0.4399600000000  0.4346120000000  0.5001670000000 1.0
C      1  0.4454190000000  0.5145310000000  0.4950340000000 1.0
C      1  0.5411930000000  0.5966640000000  0.5401180000000 1.0
C      1  0.4784130000000  0.5939080000000  0.5841100000000 1.0
C      1  0.4421140000000  0.4743500000000  0.5978950000000 1.0
C      1  0.4917220000000  0.4043830000000  0.5169970000000 1.0
C      1  0.4339930000000  0.5937840000000  0.4717140000000 1.0
C      1  0.4512070000000  0.5344650000000  0.4718690000000 1.0
C      1  0.5397140000000  0.5517510000000  0.6011100000000 1.0
C      1  0.4153170000000  0.5957400000000  0.4925570000000 1.0
C      1  0.5638110000000  0.5157820000000  0.5078800000000 1.0
C      1  0.5902260000000  0.5584030000000  0.5881050000000 1.0
C      1  0.4258640000000  0.5518810000000  0.4633040000000 1.0
C      1  0.5167670000000  0.4412390000000  0.4039200000000 1.0
C      1  0.4651990000000  0.4694300000000  0.4821310000000 1.0
C      1  0.4650220000000  0.3997210000000  0.4453180000000 1.0
END
