TITL C-950533-5798-9 -3.70019599187274e-06 125000 -952.561907287955 0 0 153 (C1) n - 1
REM
REM in /home/bkarasulu/work/CARBON/AIRSS/Generating-Clusters/EDIP-Nigel-Params/with-SteepDescent/Only-C1/SD-CG/HFTN-CG
REM
REM
REM
REM
REM
REM ./C.cell (11c1c37f851c82e70ff6c80c92926a4b)
REM
REM compiler GCC version 9.2.1 20190827 (Red Hat 9.2.1-1)
REM options -cpp -mtune=generic -march=x86-64 -g -O0 -fpre-include=/usr/include/finclude/math-vector-fortran.h
REM seed 1642220745 1045461885 949018651 1062555448 885671384 -1132229219 1775599681 1302186247 -2085503875 -1007434949 -90857122 764712829 1983561338 1698897708 -612924685 1921199896 -686127367 -1992932632 -1557926936 538383685 -931516200 1412150967 1260022574 1736506364 640117950 1253876906 1073795882 -2117757323 1137980197 345625097 1120365051 -1636673300 -1023066065
REM
CELL 1.54180   50.00000   50.00000   50.00000   90.00000   90.00000   90.00000
LATT -1
SFAC C  
C      1  0.5311840000000  0.5416560000000  0.4061830000000 1.0
C      1  0.5430750000000  0.5833870000000  0.5607490000000 1.0
C      1  0.4256670000000  0.5641430000000  0.5328090000000 1.0
C      1  0.4767960000000  0.4775240000000  0.5121520000000 1.0
C      1  0.4885220000000  0.5276340000000  0.4218110000000 1.0
C      1  0.4194880000000  0.5375540000000  0.4977390000000 1.0
C      1  0.5783570000000  0.5735950000000  0.4844480000000 1.0
C      1  0.4872640000000  0.4757050000000  0.4254270000000 1.0
C      1  0.4960110000000  0.5079800000000  0.5734180000000 1.0
C      1  0.4175130000000  0.5324290000000  0.4290250000000 1.0
C      1  0.4540760000000  0.5575960000000  0.5465100000000 1.0
C      1  0.5253810000000  0.4530760000000  0.5321110000000 1.0
C      1  0.4917710000000  0.5842300000000  0.5428940000000 1.0
C      1  0.4500680000000  0.4350700000000  0.5515180000000 1.0
C      1  0.4703610000000  0.5035850000000  0.4625350000000 1.0
C      1  0.5442600000000  0.5708610000000  0.4441020000000 1.0
C      1  0.5208850000000  0.4967710000000  0.3996820000000 1.0
C      1  0.4220620000000  0.4735370000000  0.5329660000000 1.0
C      1  0.5165350000000  0.4630250000000  0.5602440000000 1.0
C      1  0.5725620000000  0.5056540000000  0.5906440000000 1.0
C      1  0.6020020000000  0.5419510000000  0.5177310000000 1.0
C      1  0.5226400000000  0.5608010000000  0.4273650000000 1.0
C      1  0.5069120000000  0.4375100000000  0.5121310000000 1.0
C      1  0.5570450000000  0.5261870000000  0.5771590000000 1.0
C      1  0.4242650000000  0.4749970000000  0.4303360000000 1.0
C      1  0.4358070000000  0.5384660000000  0.4691610000000 1.0
C      1  0.5715770000000  0.4607550000000  0.4404860000000 1.0
C      1  0.5315170000000  0.5403500000000  0.5879200000000 1.0
C      1  0.5206660000000  0.4009350000000  0.4376110000000 1.0
C      1  0.4797130000000  0.4496060000000  0.5056680000000 1.0
C      1  0.5989870000000  0.4935300000000  0.5221720000000 1.0
C      1  0.5531690000000  0.4820020000000  0.4336670000000 1.0
C      1  0.4380480000000  0.5166630000000  0.5077040000000 1.0
C      1  0.5322970000000  0.4747630000000  0.4135910000000 1.0
C      1  0.4886080000000  0.4598010000000  0.5691780000000 1.0
C      1  0.5501670000000  0.4337130000000  0.5380590000000 1.0
C      1  0.4465190000000  0.5186760000000  0.5936780000000 1.0
C      1  0.4274840000000  0.5742660000000  0.5049980000000 1.0
C      1  0.4416180000000  0.5097320000000  0.4587760000000 1.0
C      1  0.4676630000000  0.5773170000000  0.5294300000000 1.0
C      1  0.4659590000000  0.6006530000000  0.4810180000000 1.0
C      1  0.4349600000000  0.4151640000000  0.5076750000000 1.0
C      1  0.5062500000000  0.5330970000000  0.4682080000000 1.0
C      1  0.4339180000000  0.4734670000000  0.5787020000000 1.0
C      1  0.5888120000000  0.4509450000000  0.4587680000000 1.0
C      1  0.5192510000000  0.5024520000000  0.5194110000000 1.0
C      1  0.4831660000000  0.5926180000000  0.4574530000000 1.0
C      1  0.4941930000000  0.3920800000000  0.4373520000000 1.0
C      1  0.4380800000000  0.4158460000000  0.5353360000000 1.0
C      1  0.5228210000000  0.4169040000000  0.5708720000000 1.0
C      1  0.5080430000000  0.5893400000000  0.4730930000000 1.0
C      1  0.4213730000000  0.4389710000000  0.4954770000000 1.0
C      1  0.4656690000000  0.5391010000000  0.5930690000000 1.0
C      1  0.4505780000000  0.5088770000000  0.4075590000000 1.0
C      1  0.5420660000000  0.4074280000000  0.5501000000000 1.0
C      1  0.5096020000000  0.5228450000000  0.4006690000000 1.0
C      1  0.4620970000000  0.5092940000000  0.5538950000000 1.0
C      1  0.5277950000000  0.4027980000000  0.4815760000000 1.0
C      1  0.5527150000000  0.6021700000000  0.5129790000000 1.0
C      1  0.5776310000000  0.5461520000000  0.5673500000000 1.0
C      1  0.4113810000000  0.4646290000000  0.5076530000000 1.0
C      1  0.5637240000000  0.4268750000000  0.5105900000000 1.0
C      1  0.4592150000000  0.3937160000000  0.4644320000000 1.0
C      1  0.4837470000000  0.3959720000000  0.5070120000000 1.0
C      1  0.3957810000000  0.5083430000000  0.5244930000000 1.0
C      1  0.4125860000000  0.4922270000000  0.5755070000000 1.0
C      1  0.5489930000000  0.5080880000000  0.5536800000000 1.0
C      1  0.4715210000000  0.4124820000000  0.4424290000000 1.0
C      1  0.5257790000000  0.5560910000000  0.5174810000000 1.0
C      1  0.5362740000000  0.5879530000000  0.4660320000000 1.0
C      1  0.5342310000000  0.4458030000000  0.5778950000000 1.0
C      1  0.5566020000000  0.5921500000000  0.4866040000000 1.0
C      1  0.5684850000000  0.5055970000000  0.4219770000000 1.0
C      1  0.5716980000000  0.5634170000000  0.4393550000000 1.0
C      1  0.5584980000000  0.4939150000000  0.4806290000000 1.0
C      1  0.4677640000000  0.5601640000000  0.5747120000000 1.0
C      1  0.5803820000000  0.4702630000000  0.5216870000000 1.0
C      1  0.5353340000000  0.5280600000000  0.5165170000000 1.0
C      1  0.4976310000000  0.5492480000000  0.4412520000000 1.0
C      1  0.4601040000000  0.4083630000000  0.4911520000000 1.0
C      1  0.3966050000000  0.5090850000000  0.4740520000000 1.0
C      1  0.4281330000000  0.5771800000000  0.4551100000000 1.0
C      1  0.4282080000000  0.4434840000000  0.4682970000000 1.0
C      1  0.6025130000000  0.5037230000000  0.5500900000000 1.0
C      1  0.4283870000000  0.5162460000000  0.5698420000000 1.0
C      1  0.4041590000000  0.5620920000000  0.4591170000000 1.0
C      1  0.5904570000000  0.4429350000000  0.5105000000000 1.0
C      1  0.4780110000000  0.4394720000000  0.4556110000000 1.0
C      1  0.4854390000000  0.5164990000000  0.4845200000000 1.0
C      1  0.4430160000000  0.4564120000000  0.4205860000000 1.0
C      1  0.4633510000000  0.4381420000000  0.4826280000000 1.0
C      1  0.4703720000000  0.5671410000000  0.5003280000000 1.0
C      1  0.4898270000000  0.5025020000000  0.4397550000000 1.0
C      1  0.5503650000000  0.4450280000000  0.4910560000000 1.0
C      1  0.4961840000000  0.4138970000000  0.5556910000000 1.0
C      1  0.5028510000000  0.4100550000000  0.5255130000000 1.0
C      1  0.4220180000000  0.4920270000000  0.4748720000000 1.0
C      1  0.4374740000000  0.5891600000000  0.4809090000000 1.0
C      1  0.4949560000000  0.5702980000000  0.5679320000000 1.0
C      1  0.5567700000000  0.4730100000000  0.5017760000000 1.0
C      1  0.3969780000000  0.5362170000000  0.4495100000000 1.0
C      1  0.4990810000000  0.4926600000000  0.4976490000000 1.0
C      1  0.5135030000000  0.4761960000000  0.4737280000000 1.0
C      1  0.5978300000000  0.4455710000000  0.4836070000000 1.0
C      1  0.5910800000000  0.5675790000000  0.4596220000000 1.0
C      1  0.4416010000000  0.5524550000000  0.4279670000000 1.0
C      1  0.4675370000000  0.5324550000000  0.5367300000000 1.0
C      1  0.5479380000000  0.3988990000000  0.5039650000000 1.0
C      1  0.5086350000000  0.4486140000000  0.4612660000000 1.0
C      1  0.5608040000000  0.4479810000000  0.5629640000000 1.0
C      1  0.5678780000000  0.4742140000000  0.5514170000000 1.0
C      1  0.4727140000000  0.5665150000000  0.4467180000000 1.0
C      1  0.4433360000000  0.4641890000000  0.5512290000000 1.0
C      1  0.4178430000000  0.4681400000000  0.4578500000000 1.0
C      1  0.5005370000000  0.5973230000000  0.4992130000000 1.0
C      1  0.5361770000000  0.4781750000000  0.5206440000000 1.0
C      1  0.5549100000000  0.5270450000000  0.4102080000000 1.0
C      1  0.5623630000000  0.5601720000000  0.5282740000000 1.0
C      1  0.5089630000000  0.5244900000000  0.5930640000000 1.0
C      1  0.5227620000000  0.4334250000000  0.4856070000000 1.0
C      1  0.5952900000000  0.5165660000000  0.5039140000000 1.0
C      1  0.4008890000000  0.5527750000000  0.5395750000000 1.0
C      1  0.5295840000000  0.3946770000000  0.5269990000000 1.0
C      1  0.4855600000000  0.3764630000000  0.4629980000000 1.0
C      1  0.5862320000000  0.5659770000000  0.5109770000000 1.0
C      1  0.5691650000000  0.5715400000000  0.5549030000000 1.0
C      1  0.5114530000000  0.4594870000000  0.4258600000000 1.0
C      1  0.5021240000000  0.3850850000000  0.4866090000000 1.0
C      1  0.3949550000000  0.5364870000000  0.5173020000000 1.0
C      1  0.4656190000000  0.4604420000000  0.4372900000000 1.0
C      1  0.5970850000000  0.5329050000000  0.5471810000000 1.0
C      1  0.5350910000000  0.5992100000000  0.5349910000000 1.0
C      1  0.4816370000000  0.4842430000000  0.5844590000000 1.0
C      1  0.5234620000000  0.5639690000000  0.5724430000000 1.0
C      1  0.4762050000000  0.4336550000000  0.5642960000000 1.0
C      1  0.5130160000000  0.5838010000000  0.5229770000000 1.0
C      1  0.5926480000000  0.5130830000000  0.4335910000000 1.0
C      1  0.3924300000000  0.4903620000000  0.5004460000000 1.0
C      1  0.4609370000000  0.5343640000000  0.4121840000000 1.0
C      1  0.4543650000000  0.4893270000000  0.5937220000000 1.0
C      1  0.4315990000000  0.5052520000000  0.4290610000000 1.0
C      1  0.5784010000000  0.5148690000000  0.4799510000000 1.0
C      1  0.4619290000000  0.5537350000000  0.4714550000000 1.0
C      1  0.4249580000000  0.5038490000000  0.5330880000000 1.0
C      1  0.5854690000000  0.4899040000000  0.5701390000000 1.0
C      1  0.5221300000000  0.5138300000000  0.4521350000000 1.0
C      1  0.4649940000000  0.4826080000000  0.5395910000000 1.0
C      1  0.5622540000000  0.5268920000000  0.5306150000000 1.0
C      1  0.5373380000000  0.4904650000000  0.4604400000000 1.0
C      1  0.4651010000000  0.5295190000000  0.5075410000000 1.0
C      1  0.5190060000000  0.4948970000000  0.5577340000000 1.0
C      1  0.5401340000000  0.3983150000000  0.4558190000000 1.0
C      1  0.5841200000000  0.5301520000000  0.4548640000000 1.0
END
