TITL C-951338-5626-467 5.89466263638043e-08 125000 -934.893271801145 0 0 149 (C1) n - 1
REM
REM in /home/bkarasulu/work/CARBON/AIRSS/Generating-Clusters/EDIP-Nigel-Params/with-SteepDescent/Only-C1/SD-CG/HFTN-CG
REM
REM
REM
REM
REM
REM ./C.cell (11c1c37f851c82e70ff6c80c92926a4b)
REM
REM compiler GCC version 9.2.1 20190827 (Red Hat 9.2.1-1)
REM options -cpp -mtune=generic -march=x86-64 -g -O0 -fpre-include=/usr/include/finclude/math-vector-fortran.h
REM seed -807317526 -225970907 2075380658 548314061 746213374 870948296 530855039 -1731790412 1356435720 2131132055 966230585 1491391236 1543780912 605784560 -1685227460 288972529 1494880713 -1550920649 910067934 114768454 -201141633 189692511 2910577 100951010 -1003168031 1669662865 -2116472699 545504961 1972685308 880069789 -690046313 -616929009 -1311608028
REM
CELL 1.54180   50.00000   50.00000   50.00000   90.00000   90.00000   90.00000
LATT -1
SFAC C  
C      1  0.5800030000000  0.5540550000000  0.5206220000000 1.0
C      1  0.4436130000000  0.5219180000000  0.4222810000000 1.0
C      1  0.5835470000000  0.4477680000000  0.4488310000000 1.0
C      1  0.5315940000000  0.4785290000000  0.4702970000000 1.0
C      1  0.5105640000000  0.4421950000000  0.4275060000000 1.0
C      1  0.4277010000000  0.5387550000000  0.4644190000000 1.0
C      1  0.5501520000000  0.5302590000000  0.5141060000000 1.0
C      1  0.5584570000000  0.4785860000000  0.4226050000000 1.0
C      1  0.5580210000000  0.5280690000000  0.5661130000000 1.0
C      1  0.5305550000000  0.5608770000000  0.4201350000000 1.0
C      1  0.4920940000000  0.5342350000000  0.5985980000000 1.0
C      1  0.4254900000000  0.5272580000000  0.5373100000000 1.0
C      1  0.4158630000000  0.4841860000000  0.4484130000000 1.0
C      1  0.5594630000000  0.5779950000000  0.4852580000000 1.0
C      1  0.5374450000000  0.4043510000000  0.5312630000000 1.0
C      1  0.4666860000000  0.5299320000000  0.4049340000000 1.0
C      1  0.5472640000000  0.4378600000000  0.4899880000000 1.0
C      1  0.4470330000000  0.5358860000000  0.5787000000000 1.0
C      1  0.5718460000000  0.4635000000000  0.5673300000000 1.0
C      1  0.5012660000000  0.4311010000000  0.4789310000000 1.0
C      1  0.5480390000000  0.5870610000000  0.5322090000000 1.0
C      1  0.5578170000000  0.4280900000000  0.5382840000000 1.0
C      1  0.4844740000000  0.4824940000000  0.4093520000000 1.0
C      1  0.5567350000000  0.5103810000000  0.5375970000000 1.0
C      1  0.4586250000000  0.5601720000000  0.5621360000000 1.0
C      1  0.4788440000000  0.5561410000000  0.4128260000000 1.0
C      1  0.5604700000000  0.4839890000000  0.4701010000000 1.0
C      1  0.5176570000000  0.4882040000000  0.4946010000000 1.0
C      1  0.5235490000000  0.4985040000000  0.4500090000000 1.0
C      1  0.5468920000000  0.5355120000000  0.4154140000000 1.0
C      1  0.5210110000000  0.5395370000000  0.5456680000000 1.0
C      1  0.5231510000000  0.5495150000000  0.4679490000000 1.0
C      1  0.5053130000000  0.4314780000000  0.5626020000000 1.0
C      1  0.5271300000000  0.4680150000000  0.5914660000000 1.0
C      1  0.5006470000000  0.5402370000000  0.4519920000000 1.0
C      1  0.3974360000000  0.4772940000000  0.5394550000000 1.0
C      1  0.5517780000000  0.4098150000000  0.4816160000000 1.0
C      1  0.5299680000000  0.4890790000000  0.4211990000000 1.0
C      1  0.5797160000000  0.4932480000000  0.5261160000000 1.0
C      1  0.4633540000000  0.5710810000000  0.4331860000000 1.0
C      1  0.4566200000000  0.4048920000000  0.4676660000000 1.0
C      1  0.5329080000000  0.4918430000000  0.5408670000000 1.0
C      1  0.5012380000000  0.5564910000000  0.5329220000000 1.0
C      1  0.4142920000000  0.4549850000000  0.5379140000000 1.0
C      1  0.4711320000000  0.4767090000000  0.4676700000000 1.0
C      1  0.3981780000000  0.5351620000000  0.4907660000000 1.0
C      1  0.5142960000000  0.5126980000000  0.5979370000000 1.0
C      1  0.4382000000000  0.5133580000000  0.5605380000000 1.0
C      1  0.5445590000000  0.4101550000000  0.4537200000000 1.0
C      1  0.5393220000000  0.5867330000000  0.5044870000000 1.0
C      1  0.5438160000000  0.5250720000000  0.4645490000000 1.0
C      1  0.5628130000000  0.5271390000000  0.4404320000000 1.0
C      1  0.3838510000000  0.4600250000000  0.4891950000000 1.0
C      1  0.4885810000000  0.5103810000000  0.4016840000000 1.0
C      1  0.5269870000000  0.4475330000000  0.4679180000000 1.0
C      1  0.4160330000000  0.5538040000000  0.5426670000000 1.0
C      1  0.5515570000000  0.4840020000000  0.5898570000000 1.0
C      1  0.5085770000000  0.3894850000000  0.4909570000000 1.0
C      1  0.3901420000000  0.4967290000000  0.5202410000000 1.0
C      1  0.4340890000000  0.4472830000000  0.5576080000000 1.0
C      1  0.4875470000000  0.3855170000000  0.5093350000000 1.0
C      1  0.4449570000000  0.5794790000000  0.5163070000000 1.0
C      1  0.5793420000000  0.4948270000000  0.4933030000000 1.0
C      1  0.5046710000000  0.5436820000000  0.4228800000000 1.0
C      1  0.3992650000000  0.5256430000000  0.5207490000000 1.0
C      1  0.4239500000000  0.5764000000000  0.4988350000000 1.0
C      1  0.5806620000000  0.4436070000000  0.5236390000000 1.0
C      1  0.4850320000000  0.5871790000000  0.4809800000000 1.0
C      1  0.4680250000000  0.5945110000000  0.5060450000000 1.0
C      1  0.4764150000000  0.4776160000000  0.5990690000000 1.0
C      1  0.5099430000000  0.5117230000000  0.5439250000000 1.0
C      1  0.5720740000000  0.4953530000000  0.4437780000000 1.0
C      1  0.5003840000000  0.5611160000000  0.5879650000000 1.0
C      1  0.5297500000000  0.5910260000000  0.5543980000000 1.0
C      1  0.4861200000000  0.5140410000000  0.5657150000000 1.0
C      1  0.4842870000000  0.4297450000000  0.4334840000000 1.0
C      1  0.5389410000000  0.4315710000000  0.4340780000000 1.0
C      1  0.4611790000000  0.4740820000000  0.4243810000000 1.0
C      1  0.4384900000000  0.4398010000000  0.4481870000000 1.0
C      1  0.5043230000000  0.4855010000000  0.5938590000000 1.0
C      1  0.4611470000000  0.4992500000000  0.6081350000000 1.0
C      1  0.4356930000000  0.5701820000000  0.4286920000000 1.0
C      1  0.6042800000000  0.4835490000000  0.4737890000000 1.0
C      1  0.6013050000000  0.4926710000000  0.4467410000000 1.0
C      1  0.5445880000000  0.5129420000000  0.5907290000000 1.0
C      1  0.5299080000000  0.4742840000000  0.5174950000000 1.0
C      1  0.5256480000000  0.5483730000000  0.5742730000000 1.0
C      1  0.5895900000000  0.5419530000000  0.4775270000000 1.0
C      1  0.4897580000000  0.4761420000000  0.4909070000000 1.0
C      1  0.5014330000000  0.5502620000000  0.4991760000000 1.0
C      1  0.5845960000000  0.5466950000000  0.4484720000000 1.0
C      1  0.4254510000000  0.4599170000000  0.4645510000000 1.0
C      1  0.5669010000000  0.5238230000000  0.4881190000000 1.0
C      1  0.5305550000000  0.4441160000000  0.5161520000000 1.0
C      1  0.4379330000000  0.5726730000000  0.5438660000000 1.0
C      1  0.4389580000000  0.4931940000000  0.4300270000000 1.0
C      1  0.4284360000000  0.5436940000000  0.4350740000000 1.0
C      1  0.4712320000000  0.5397340000000  0.4955320000000 1.0
C      1  0.5348980000000  0.3962060000000  0.5017020000000 1.0
C      1  0.4558000000000  0.4135140000000  0.4958620000000 1.0
C      1  0.4258190000000  0.4501910000000  0.5120190000000 1.0
C      1  0.4080470000000  0.5019750000000  0.4738130000000 1.0
C      1  0.5281880000000  0.4450030000000  0.5741130000000 1.0
C      1  0.5260330000000  0.5150610000000  0.4056800000000 1.0
C      1  0.4783840000000  0.4438870000000  0.5606640000000 1.0
C      1  0.4531600000000  0.4379730000000  0.5145440000000 1.0
C      1  0.4713270000000  0.5050400000000  0.4579740000000 1.0
C      1  0.5113590000000  0.5932740000000  0.4980130000000 1.0
C      1  0.4538860000000  0.5230250000000  0.4755830000000 1.0
C      1  0.3880440000000  0.4876070000000  0.4924010000000 1.0
C      1  0.5669700000000  0.5601870000000  0.5672480000000 1.0
C      1  0.5043760000000  0.3958260000000  0.4634280000000 1.0
C      1  0.5010710000000  0.4345580000000  0.5101730000000 1.0
C      1  0.4451830000000  0.4749710000000  0.4809520000000 1.0
C      1  0.5852830000000  0.4676280000000  0.5407480000000 1.0
C      1  0.4666020000000  0.5278220000000  0.5212220000000 1.0
C      1  0.5103470000000  0.4083760000000  0.5450520000000 1.0
C      1  0.5202870000000  0.5231280000000  0.5022020000000 1.0
C      1  0.5624650000000  0.4502920000000  0.4302330000000 1.0
C      1  0.5552270000000  0.4393740000000  0.5654490000000 1.0
C      1  0.4561700000000  0.4321890000000  0.5449950000000 1.0
C      1  0.4887440000000  0.4092720000000  0.5251880000000 1.0
C      1  0.5095920000000  0.4683320000000  0.4141800000000 1.0
C      1  0.4984590000000  0.5129610000000  0.4577370000000 1.0
C      1  0.4630180000000  0.4934060000000  0.5580660000000 1.0
C      1  0.5414100000000  0.5739030000000  0.5760660000000 1.0
C      1  0.4796280000000  0.4594090000000  0.5140430000000 1.0
C      1  0.5808640000000  0.5737100000000  0.4414660000000 1.0
C      1  0.4766100000000  0.5423470000000  0.5451270000000 1.0
C      1  0.5010970000000  0.5840960000000  0.5462950000000 1.0
C      1  0.4623010000000  0.4666160000000  0.5747550000000 1.0
C      1  0.4713520000000  0.4401040000000  0.4741360000000 1.0
C      1  0.4354740000000  0.5021370000000  0.4877050000000 1.0
C      1  0.5583130000000  0.5818650000000  0.4564160000000 1.0
C      1  0.4933420000000  0.6004550000000  0.5222220000000 1.0
C      1  0.4824900000000  0.5781460000000  0.5709220000000 1.0
C      1  0.4602550000000  0.4463670000000  0.4319940000000 1.0
C      1  0.4883750000000  0.5074990000000  0.5207310000000 1.0
C      1  0.4805950000000  0.4046890000000  0.4499010000000 1.0
C      1  0.5939220000000  0.4551900000000  0.4742750000000 1.0
C      1  0.4633640000000  0.5262900000000  0.6013590000000 1.0
C      1  0.4721160000000  0.4847880000000  0.5304870000000 1.0
C      1  0.5715610000000  0.5720000000000  0.5405880000000 1.0
C      1  0.4119430000000  0.5595640000000  0.4807490000000 1.0
C      1  0.4095160000000  0.4491930000000  0.4873730000000 1.0
C      1  0.4757430000000  0.5857470000000  0.4541460000000 1.0
C      1  0.5836480000000  0.5647760000000  0.4946230000000 1.0
C      1  0.5322130000000  0.5716750000000  0.4482890000000 1.0
C      1  0.5739070000000  0.4508430000000  0.4959090000000 1.0
END
