TITL C-951337-3020-513 -4.19099766331599e-08 125000 -139.985723755523 0 0 25 (C1) n - 1
REM
REM in /home/bkarasulu/work/CARBON/AIRSS/Generating-Clusters/EDIP-Nigel-Params/with-SteepDescent/Only-C1/SD-CG/HFTN-CG
REM
REM
REM
REM
REM
REM ./C.cell (11c1c37f851c82e70ff6c80c92926a4b)
REM
REM compiler GCC version 9.2.1 20190827 (Red Hat 9.2.1-1)
REM options -cpp -mtune=generic -march=x86-64 -g -O0 -fpre-include=/usr/include/finclude/math-vector-fortran.h
REM seed 1993435972 -2003715105 -65272730 -1046939534 -385790348 -572827104 1005510423 -855226675 389598010 -404419864 -527074239 2027927828 -1448307345 2064121996 -905416507 1017994282 1740073827 -559654726 -1301095601 -839961860 926754586 -639306020 -588259560 -1739214192 761058291 -2012612821 9982063 -1944390131 1465312059 2117600389 794465343 1577950524 -330604538
REM
CELL 1.54180   50.00000   50.00000   50.00000   90.00000   90.00000   90.00000
LATT -1
SFAC C  
C      1  0.5454910000000  0.5327550000000  0.5004180000000 1.0
C      1  0.5202800000000  0.4956220000000  0.5163590000000 1.0
C      1  0.4468630000000  0.5249030000000  0.5023340000000 1.0
C      1  0.4935550000000  0.5303060000000  0.5108940000000 1.0
C      1  0.4928790000000  0.5031620000000  0.4598060000000 1.0
C      1  0.4874330000000  0.5407950000000  0.4832100000000 1.0
C      1  0.5021270000000  0.4536170000000  0.4731320000000 1.0
C      1  0.5395730000000  0.4940010000000  0.4687050000000 1.0
C      1  0.4780780000000  0.4527850000000  0.4880100000000 1.0
C      1  0.4751740000000  0.5262170000000  0.5450980000000 1.0
C      1  0.5130660000000  0.4805660000000  0.4603380000000 1.0
C      1  0.4675450000000  0.5162090000000  0.5195740000000 1.0
C      1  0.5280190000000  0.5385230000000  0.5232360000000 1.0
C      1  0.5146100000000  0.4672960000000  0.5161320000000 1.0
C      1  0.4607030000000  0.5280790000000  0.4775200000000 1.0
C      1  0.4688780000000  0.4730220000000  0.5290650000000 1.0
C      1  0.5356040000000  0.5258410000000  0.4698330000000 1.0
C      1  0.5059030000000  0.5287900000000  0.4637170000000 1.0
C      1  0.5437530000000  0.5014580000000  0.4991560000000 1.0
C      1  0.5222620000000  0.5141640000000  0.5393710000000 1.0
C      1  0.4834780000000  0.4344730000000  0.5302830000000 1.0
C      1  0.4993670000000  0.5176080000000  0.5551880000000 1.0
C      1  0.5244980000000  0.4585530000000  0.4904470000000 1.0
C      1  0.4860540000000  0.4570210000000  0.5158420000000 1.0
C      1  0.4648070000000  0.5042340000000  0.4623350000000 1.0
END
