TITL C-951335-1172-143 0.226444403296679 125000 -51.0992600891334 0 0 10 (Cs) n - 1
REM
REM in /home/bkarasulu/work/CARBON/AIRSS/Generating-Clusters/EDIP-Nigel-Params/with-SteepDescent/Only-C1/SD-CG/HFTN-CG
REM
REM
REM
REM
REM
REM ./C.cell (11c1c37f851c82e70ff6c80c92926a4b)
REM
REM compiler GCC version 9.2.1 20190827 (Red Hat 9.2.1-1)
REM options -cpp -mtune=generic -march=x86-64 -g -O0 -fpre-include=/usr/include/finclude/math-vector-fortran.h
REM seed -1436207867 -248552656 -1351586077 389621248 660914667 1464941011 1122069627 2060513521 -550750323 -111348907 286166987 1060900913 -235577066 2097186868 -1313447179 -2123866449 225691202 -2031215126 494306979 -1777822490 1420494532 -930218252 2129515577 2115280995 1058127772 1578289342 -773886450 -260607774 1546383561 386056805 -124401348 -525481168 812240308
REM
CELL 1.54180   50.00000   50.00000   50.00000   90.00000   90.00000   90.00000
LATT -1
SFAC C  
C      1  0.5211380000000  0.5618370000000  0.5160980000000 1.0
C      1  0.4811800000000  0.4807760000000  0.4874080000000 1.0
C      1  0.4817470000000  0.5624260000000  0.4928770000000 1.0
C      1  0.4959550000000  0.4430270000000  0.4942280000000 1.0
C      1  0.5019340000000  0.4942110000000  0.5008420000000 1.0
C      1  0.5016310000000  0.5489440000000  0.5038340000000 1.0
C      1  0.5172830000000  0.4531250000000  0.5078190000000 1.0
C      1  0.4747450000000  0.4548320000000  0.4819800000000 1.0
C      1  0.5020200000000  0.5215810000000  0.5024810000000 1.0
C      1  0.5223680000000  0.4792410000000  0.5124330000000 1.0
END
