TITL C-950526-5686-327 -1.41147298159588e-06 125000 -464.349119259818 0 0 75 (C1) n - 1
REM
REM in /home/bkarasulu/work/CARBON/AIRSS/Generating-Clusters/EDIP-Nigel-Params/with-SteepDescent/Only-C1/SD-CG/HFTN-CG
REM
REM
REM
REM
REM
REM ./C.cell (11c1c37f851c82e70ff6c80c92926a4b)
REM
REM compiler GCC version 9.2.1 20190827 (Red Hat 9.2.1-1)
REM options -cpp -mtune=generic -march=x86-64 -g -O0 -fpre-include=/usr/include/finclude/math-vector-fortran.h
REM seed 263101738 -2095168315 486526218 610761112 -1258499941 193399795 -1920208787 1529603591 -807874892 1662802340 786449792 1376372771 -927663921 253862818 509561983 -1326805864 -318326832 -1310751532 1492625952 -2134272459 754997925 1670949903 1098659815 -1299370464 -934766972 1706084206 2147388025 1323974498 1466065629 1204501905 1542675059 535959181 1222518514
REM
CELL 1.54180   50.00000   50.00000   50.00000   90.00000   90.00000   90.00000
LATT -1
SFAC C  
C      1  0.4638550000000  0.5417000000000  0.5473180000000 1.0
C      1  0.5611430000000  0.4882590000000  0.4766620000000 1.0
C      1  0.5134670000000  0.5324650000000  0.4210560000000 1.0
C      1  0.4795780000000  0.4567550000000  0.5681310000000 1.0
C      1  0.4718930000000  0.5275710000000  0.5025580000000 1.0
C      1  0.4934300000000  0.5015540000000  0.5558250000000 1.0
C      1  0.5129970000000  0.5155110000000  0.5127590000000 1.0
C      1  0.4675290000000  0.5157110000000  0.5629620000000 1.0
C      1  0.4999990000000  0.4767440000000  0.5735250000000 1.0
C      1  0.4481010000000  0.5104490000000  0.4473540000000 1.0
C      1  0.4274140000000  0.4596210000000  0.5126590000000 1.0
C      1  0.4624080000000  0.5604490000000  0.4683440000000 1.0
C      1  0.4317690000000  0.5206390000000  0.4685260000000 1.0
C      1  0.5276450000000  0.4641840000000  0.5678890000000 1.0
C      1  0.5024480000000  0.5653090000000  0.4909630000000 1.0
C      1  0.4487900000000  0.5326590000000  0.5214740000000 1.0
C      1  0.4280130000000  0.4890410000000  0.5081210000000 1.0
C      1  0.5696980000000  0.4818570000000  0.5047720000000 1.0
C      1  0.4475230000000  0.4475180000000  0.5318690000000 1.0
C      1  0.5365510000000  0.4765580000000  0.5413360000000 1.0
C      1  0.4756370000000  0.5185770000000  0.4729660000000 1.0
C      1  0.5566490000000  0.5303000000000  0.4481030000000 1.0
C      1  0.4690680000000  0.4291420000000  0.5178650000000 1.0
C      1  0.5855650000000  0.5321950000000  0.4843780000000 1.0
C      1  0.5012930000000  0.4847900000000  0.4265940000000 1.0
C      1  0.5112320000000  0.4732190000000  0.5265040000000 1.0
C      1  0.4354900000000  0.5067130000000  0.5292310000000 1.0
C      1  0.4743170000000  0.5510590000000  0.4431810000000 1.0
C      1  0.5074870000000  0.4347760000000  0.4671720000000 1.0
C      1  0.5665740000000  0.5196170000000  0.5421850000000 1.0
C      1  0.5396610000000  0.5593330000000  0.5532910000000 1.0
C      1  0.5339490000000  0.4464810000000  0.4693800000000 1.0
C      1  0.5191930000000  0.4234860000000  0.5363360000000 1.0
C      1  0.4882500000000  0.4159620000000  0.5366690000000 1.0
C      1  0.5796340000000  0.5054560000000  0.5195240000000 1.0
C      1  0.5407260000000  0.4736940000000  0.4612470000000 1.0
C      1  0.5293030000000  0.4881370000000  0.4375640000000 1.0
C      1  0.4908160000000  0.5540060000000  0.5396060000000 1.0
C      1  0.4663410000000  0.5257030000000  0.4309710000000 1.0
C      1  0.5174880000000  0.5186730000000  0.5570080000000 1.0
C      1  0.5673970000000  0.5546410000000  0.4858780000000 1.0
C      1  0.4311250000000  0.5515650000000  0.5073810000000 1.0
C      1  0.4785000000000  0.5781090000000  0.4833530000000 1.0
C      1  0.5355570000000  0.5165620000000  0.4330010000000 1.0
C      1  0.4928220000000  0.4294550000000  0.5647260000000 1.0
C      1  0.4914710000000  0.4939240000000  0.5233200000000 1.0
C      1  0.5142240000000  0.5474860000000  0.5578200000000 1.0
C      1  0.5032780000000  0.5563400000000  0.4379350000000 1.0
C      1  0.5474240000000  0.5197020000000  0.5035320000000 1.0
C      1  0.4854210000000  0.4452780000000  0.4961810000000 1.0
C      1  0.4295490000000  0.4462140000000  0.4871170000000 1.0
C      1  0.5556690000000  0.4614330000000  0.5218560000000 1.0
C      1  0.4733080000000  0.4743300000000  0.4955640000000 1.0
C      1  0.5492890000000  0.5496700000000  0.5084930000000 1.0
C      1  0.5185120000000  0.5564570000000  0.4665470000000 1.0
C      1  0.5218160000000  0.5065800000000  0.4827280000000 1.0
C      1  0.4506670000000  0.4617310000000  0.4752000000000 1.0
C      1  0.4487090000000  0.4948510000000  0.5524600000000 1.0
C      1  0.5066050000000  0.5269770000000  0.4640630000000 1.0
C      1  0.4832610000000  0.4742730000000  0.4477960000000 1.0
C      1  0.4909430000000  0.5130660000000  0.4173440000000 1.0
C      1  0.4963930000000  0.5428260000000  0.5114320000000 1.0
C      1  0.4388930000000  0.5465890000000  0.4802050000000 1.0
C      1  0.5380190000000  0.4409230000000  0.5071250000000 1.0
C      1  0.4878910000000  0.4891350000000  0.4740400000000 1.0
C      1  0.5717700000000  0.5143260000000  0.4672550000000 1.0
C      1  0.5408960000000  0.5060660000000  0.5454720000000 1.0
C      1  0.4187660000000  0.5017770000000  0.4848310000000 1.0
C      1  0.5499600000000  0.5561040000000  0.4614670000000 1.0
C      1  0.5239740000000  0.4345760000000  0.5652170000000 1.0
C      1  0.5117450000000  0.4545220000000  0.5064980000000 1.0
C      1  0.5600980000000  0.5495240000000  0.5362770000000 1.0
C      1  0.4598670000000  0.4673890000000  0.5493770000000 1.0
C      1  0.4588000000000  0.4372020000000  0.4627700000000 1.0
C      1  0.4844560000000  0.4445230000000  0.4518630000000 1.0
END
