TITL C-950523-3027-553 -4.81443740697289e-07 125000 -501.354910139485 0 0 82 (C1) n - 1
REM
REM in /home/bkarasulu/work/CARBON/AIRSS/Generating-Clusters/EDIP-Nigel-Params/with-SteepDescent/Only-C1/SD-CG/HFTN-CG
REM
REM
REM
REM
REM
REM ./C.cell (11c1c37f851c82e70ff6c80c92926a4b)
REM
REM compiler GCC version 9.2.1 20190827 (Red Hat 9.2.1-1)
REM options -cpp -mtune=generic -march=x86-64 -g -O0 -fpre-include=/usr/include/finclude/math-vector-fortran.h
REM seed 1789096481 -15626414 1526753756 1700467084 1814403223 -1523073719 1755704522 -607827736 -1787552234 1876986083 -457268904 -442687924 -1828622238 351653987 -202997715 -2099661102 -228513387 -1257556867 1957655647 -155302464 -119606704 1922018734 -1501190541 1832330295 251763696 -997166341 2078695117 -173249683 1901209222 -969088833 1131178579 -1302757425 -1575710423
REM
CELL 1.54180   50.00000   50.00000   50.00000   90.00000   90.00000   90.00000
LATT -1
SFAC C  
C      1  0.4604410000000  0.4288160000000  0.5325720000000 1.0
C      1  0.4921830000000  0.4054710000000  0.5090950000000 1.0
C      1  0.4976420000000  0.4738320000000  0.5762510000000 1.0
C      1  0.5453380000000  0.4490750000000  0.4461010000000 1.0
C      1  0.5334070000000  0.4571290000000  0.5079760000000 1.0
C      1  0.4945610000000  0.4995520000000  0.5288580000000 1.0
C      1  0.5236740000000  0.4451590000000  0.5544470000000 1.0
C      1  0.4496710000000  0.4878430000000  0.5637520000000 1.0
C      1  0.5337610000000  0.5603370000000  0.4550560000000 1.0
C      1  0.5160340000000  0.4532060000000  0.5801930000000 1.0
C      1  0.5161630000000  0.5066320000000  0.5081120000000 1.0
C      1  0.4877520000000  0.4665880000000  0.4779930000000 1.0
C      1  0.5415230000000  0.4613070000000  0.5376810000000 1.0
C      1  0.4403370000000  0.4691840000000  0.4757350000000 1.0
C      1  0.4544080000000  0.5176470000000  0.5623180000000 1.0
C      1  0.4629330000000  0.4603710000000  0.4944330000000 1.0
C      1  0.4794530000000  0.4820920000000  0.4316930000000 1.0
C      1  0.5677990000000  0.5284540000000  0.5297720000000 1.0
C      1  0.4246710000000  0.5188430000000  0.5148480000000 1.0
C      1  0.5735000000000  0.4669400000000  0.4823500000000 1.0
C      1  0.5336350000000  0.4873280000000  0.4925020000000 1.0
C      1  0.4606990000000  0.5409120000000  0.4938200000000 1.0
C      1  0.4772480000000  0.4914890000000  0.4619250000000 1.0
C      1  0.5625730000000  0.4718400000000  0.4545120000000 1.0
C      1  0.5446120000000  0.4961450000000  0.4560890000000 1.0
C      1  0.5150500000000  0.4244660000000  0.4724210000000 1.0
C      1  0.5689560000000  0.4990780000000  0.5272890000000 1.0
C      1  0.5081170000000  0.5586700000000  0.4987140000000 1.0
C      1  0.4707760000000  0.4098620000000  0.4908330000000 1.0
C      1  0.5710940000000  0.5191000000000  0.4843240000000 1.0
C      1  0.5513920000000  0.5366130000000  0.5535390000000 1.0
C      1  0.4939090000000  0.5832630000000  0.5091670000000 1.0
C      1  0.4877690000000  0.5297160000000  0.5357980000000 1.0
C      1  0.5056570000000  0.5900190000000  0.5336390000000 1.0
C      1  0.4481710000000  0.4969560000000  0.4706660000000 1.0
C      1  0.4952880000000  0.4451110000000  0.4577790000000 1.0
C      1  0.4769510000000  0.5206080000000  0.4264550000000 1.0
C      1  0.5255140000000  0.5225990000000  0.4139460000000 1.0
C      1  0.5553380000000  0.5450140000000  0.4460310000000 1.0
C      1  0.4390840000000  0.5339010000000  0.5390350000000 1.0
C      1  0.5030190000000  0.4406340000000  0.5334910000000 1.0
C      1  0.4445450000000  0.4540210000000  0.4522210000000 1.0
C      1  0.4818760000000  0.4088240000000  0.5359150000000 1.0
C      1  0.4882900000000  0.5432570000000  0.4805680000000 1.0
C      1  0.5587450000000  0.5666440000000  0.4963380000000 1.0
C      1  0.4792730000000  0.5290370000000  0.5734360000000 1.0
C      1  0.5441700000000  0.4298530000000  0.4684230000000 1.0
C      1  0.5288380000000  0.5532840000000  0.5440150000000 1.0
C      1  0.4578680000000  0.5612610000000  0.4533000000000 1.0
C      1  0.4597770000000  0.5326120000000  0.4467420000000 1.0
C      1  0.4631460000000  0.5426220000000  0.5237940000000 1.0
C      1  0.5025090000000  0.5357430000000  0.4233140000000 1.0
C      1  0.4568770000000  0.4313520000000  0.5030600000000 1.0
C      1  0.4753590000000  0.4537840000000  0.5399390000000 1.0
C      1  0.5074820000000  0.5589740000000  0.4413240000000 1.0
C      1  0.5508240000000  0.4878790000000  0.5469840000000 1.0
C      1  0.5088630000000  0.4784650000000  0.4254310000000 1.0
C      1  0.5645330000000  0.4929270000000  0.4976040000000 1.0
C      1  0.4860160000000  0.5665380000000  0.4607120000000 1.0
C      1  0.5421030000000  0.5104320000000  0.5663430000000 1.0
C      1  0.5637880000000  0.5400180000000  0.5030430000000 1.0
C      1  0.5151690000000  0.4225930000000  0.5014360000000 1.0
C      1  0.5564610000000  0.4440410000000  0.4923640000000 1.0
C      1  0.5087270000000  0.4938590000000  0.5570720000000 1.0
C      1  0.5335520000000  0.5662960000000  0.4836580000000 1.0
C      1  0.5274460000000  0.4998060000000  0.4306150000000 1.0
C      1  0.4680390000000  0.4760970000000  0.5209140000000 1.0
C      1  0.4923600000000  0.5184320000000  0.4623540000000 1.0
C      1  0.5622760000000  0.5200460000000  0.4571160000000 1.0
C      1  0.4445220000000  0.5161550000000  0.4926180000000 1.0
C      1  0.4708550000000  0.4653520000000  0.5678120000000 1.0
C      1  0.5170650000000  0.4565540000000  0.4415610000000 1.0
C      1  0.5053760000000  0.5174700000000  0.5742390000000 1.0
C      1  0.5140130000000  0.5393220000000  0.5216240000000 1.0
C      1  0.4548120000000  0.5690310000000  0.5316350000000 1.0
C      1  0.4693560000000  0.4529910000000  0.4388190000000 1.0
C      1  0.4469390000000  0.5657680000000  0.4818820000000 1.0
C      1  0.4078840000000  0.4958990000000  0.5205520000000 1.0
C      1  0.5268690000000  0.5811220000000  0.5477070000000 1.0
C      1  0.4635240000000  0.5837860000000  0.5074850000000 1.0
C      1  0.4172390000000  0.4714040000000  0.5296220000000 1.0
C      1  0.4425330000000  0.4846480000000  0.5351950000000 1.0
END
