TITL C-951334-9093-178 -2.24489956638794e-06 125000 -1035.5999627048 0 0 164 (C1) n - 1
REM
REM in /home/bkarasulu/work/CARBON/AIRSS/Generating-Clusters/EDIP-Nigel-Params/with-SteepDescent/Only-C1/SD-CG/HFTN-CG
REM
REM
REM
REM
REM
REM ./C.cell (11c1c37f851c82e70ff6c80c92926a4b)
REM
REM compiler GCC version 9.2.1 20190827 (Red Hat 9.2.1-1)
REM options -cpp -mtune=generic -march=x86-64 -g -O0 -fpre-include=/usr/include/finclude/math-vector-fortran.h
REM seed 469419467 -2072191804 -1816895384 -1193275823 1034618254 952565730 -1321379671 2121299018 1465870540 -960463440 1912850559 918107453 1205331559 1536300313 -1048817795 304360672 -713572456 1685835479 -2046660974 1889521552 -541232673 -1581666798 -2012039659 721651747 -1754750189 -1423287166 -2076499541 415914639 -98099093 -381252886 561372744 745497043 -948789504
REM
CELL 1.54180   50.00000   50.00000   50.00000   90.00000   90.00000   90.00000
LATT -1
SFAC C  
C      1  0.4768190000000  0.5947650000000  0.4553960000000 1.0
C      1  0.3876250000000  0.5284050000000  0.5383380000000 1.0
C      1  0.5174650000000  0.4898360000000  0.5256410000000 1.0
C      1  0.4167620000000  0.4618670000000  0.5307140000000 1.0
C      1  0.5682720000000  0.4597710000000  0.4998560000000 1.0
C      1  0.4722500000000  0.5269730000000  0.5149610000000 1.0
C      1  0.5841230000000  0.5014160000000  0.5179780000000 1.0
C      1  0.4806610000000  0.5679380000000  0.4080590000000 1.0
C      1  0.5704340000000  0.4365770000000  0.4816250000000 1.0
C      1  0.4996850000000  0.4399610000000  0.5751540000000 1.0
C      1  0.5187800000000  0.3851500000000  0.5003500000000 1.0
C      1  0.5165560000000  0.4876140000000  0.4486320000000 1.0
C      1  0.4802250000000  0.5013290000000  0.4758100000000 1.0
C      1  0.4933900000000  0.4773050000000  0.5524630000000 1.0
C      1  0.4966930000000  0.5446740000000  0.5116660000000 1.0
C      1  0.5153160000000  0.5186900000000  0.4440540000000 1.0
C      1  0.5596220000000  0.5257940000000  0.4786630000000 1.0
C      1  0.4768920000000  0.4409560000000  0.4863760000000 1.0
C      1  0.3921970000000  0.4585630000000  0.4936500000000 1.0
C      1  0.5686590000000  0.4284830000000  0.4379930000000 1.0
C      1  0.4911990000000  0.5284950000000  0.5857640000000 1.0
C      1  0.4957690000000  0.5283480000000  0.5563390000000 1.0
C      1  0.4599040000000  0.5678020000000  0.4527260000000 1.0
C      1  0.4579880000000  0.5288220000000  0.4261110000000 1.0
C      1  0.4155870000000  0.5048260000000  0.4362170000000 1.0
C      1  0.4616990000000  0.4765570000000  0.5175610000000 1.0
C      1  0.4701800000000  0.4687540000000  0.4136900000000 1.0
C      1  0.6036190000000  0.4853980000000  0.4763620000000 1.0
C      1  0.5352770000000  0.5979700000000  0.5729280000000 1.0
C      1  0.5682380000000  0.5807970000000  0.4837330000000 1.0
C      1  0.5263590000000  0.4086700000000  0.5474320000000 1.0
C      1  0.5070240000000  0.5923090000000  0.5248800000000 1.0
C      1  0.4031750000000  0.5534380000000  0.5262050000000 1.0
C      1  0.5778070000000  0.5134880000000  0.4343210000000 1.0
C      1  0.5383710000000  0.5454900000000  0.4871700000000 1.0
C      1  0.5886200000000  0.5351750000000  0.4753500000000 1.0
C      1  0.4621110000000  0.5570480000000  0.4255510000000 1.0
C      1  0.4569810000000  0.4380050000000  0.5414220000000 1.0
C      1  0.4693060000000  0.6070110000000  0.4819720000000 1.0
C      1  0.4612660000000  0.5752640000000  0.5380750000000 1.0
C      1  0.4694100000000  0.5247910000000  0.5446630000000 1.0
C      1  0.4745040000000  0.5003950000000  0.5042530000000 1.0
C      1  0.5119430000000  0.3909780000000  0.4732450000000 1.0
C      1  0.5118420000000  0.4585320000000  0.4013690000000 1.0
C      1  0.4782530000000  0.5022640000000  0.5927890000000 1.0
C      1  0.4412400000000  0.5167750000000  0.4475770000000 1.0
C      1  0.5167360000000  0.4657220000000  0.5727500000000 1.0
C      1  0.5365010000000  0.5526550000000  0.5898690000000 1.0
C      1  0.5595850000000  0.4390480000000  0.5846460000000 1.0
C      1  0.5366580000000  0.5111550000000  0.5213820000000 1.0
C      1  0.4872310000000  0.5857600000000  0.5463020000000 1.0
C      1  0.4965420000000  0.4854000000000  0.6058470000000 1.0
C      1  0.5690480000000  0.5308980000000  0.5548170000000 1.0
C      1  0.4126170000000  0.4476440000000  0.4530680000000 1.0
C      1  0.5131450000000  0.5323980000000  0.4906360000000 1.0
C      1  0.4161250000000  0.4244860000000  0.4687820000000 1.0
C      1  0.5306320000000  0.4041260000000  0.5178390000000 1.0
C      1  0.5464850000000  0.4959530000000  0.4031950000000 1.0
C      1  0.5285420000000  0.3993130000000  0.4498680000000 1.0
C      1  0.4955230000000  0.5696990000000  0.5701060000000 1.0
C      1  0.5830810000000  0.4851590000000  0.4302340000000 1.0
C      1  0.4731620000000  0.4448780000000  0.5830630000000 1.0
C      1  0.4475260000000  0.5443130000000  0.5033560000000 1.0
C      1  0.4853750000000  0.4180500000000  0.4435560000000 1.0
C      1  0.4796040000000  0.5533440000000  0.4701480000000 1.0
C      1  0.5573910000000  0.5046590000000  0.5011460000000 1.0
C      1  0.3970510000000  0.4968850000000  0.4584150000000 1.0
C      1  0.5255410000000  0.4382580000000  0.4149530000000 1.0
C      1  0.4303480000000  0.4415880000000  0.5136360000000 1.0
C      1  0.5655740000000  0.4930530000000  0.5882810000000 1.0
C      1  0.5206010000000  0.6017340000000  0.4789450000000 1.0
C      1  0.5010720000000  0.4229840000000  0.5518310000000 1.0
C      1  0.5504600000000  0.5839430000000  0.5537710000000 1.0
C      1  0.4585250000000  0.5721060000000  0.5089130000000 1.0
C      1  0.4511280000000  0.5492040000000  0.5502510000000 1.0
C      1  0.4620520000000  0.4640320000000  0.4419860000000 1.0
C      1  0.5055310000000  0.5576840000000  0.4153550000000 1.0
C      1  0.4638190000000  0.5137460000000  0.4020870000000 1.0
C      1  0.5201530000000  0.5773190000000  0.5852430000000 1.0
C      1  0.5474210000000  0.4784690000000  0.4880500000000 1.0
C      1  0.5201440000000  0.5268300000000  0.5936960000000 1.0
C      1  0.4018100000000  0.5155180000000  0.4825170000000 1.0
C      1  0.5404320000000  0.4308270000000  0.4775050000000 1.0
C      1  0.5606560000000  0.5002290000000  0.5608950000000 1.0
C      1  0.5375220000000  0.5860770000000  0.5240570000000 1.0
C      1  0.5856820000000  0.5331580000000  0.5290030000000 1.0
C      1  0.4173030000000  0.5878490000000  0.4910440000000 1.0
C      1  0.4752730000000  0.4144180000000  0.5410050000000 1.0
C      1  0.4850460000000  0.5681210000000  0.4961030000000 1.0
C      1  0.5888600000000  0.4714500000000  0.4553270000000 1.0
C      1  0.5942430000000  0.4769270000000  0.5025950000000 1.0
C      1  0.4505490000000  0.4584520000000  0.4966620000000 1.0
C      1  0.4371240000000  0.5420180000000  0.4698680000000 1.0
C      1  0.5391140000000  0.5233020000000  0.4049200000000 1.0
C      1  0.5564510000000  0.5570730000000  0.5678280000000 1.0
C      1  0.5483910000000  0.5612980000000  0.4384410000000 1.0
C      1  0.5092940000000  0.5482140000000  0.5404550000000 1.0
C      1  0.4285440000000  0.5056100000000  0.4931910000000 1.0
C      1  0.4811290000000  0.4577660000000  0.5320160000000 1.0
C      1  0.5401520000000  0.4531830000000  0.6002900000000 1.0
C      1  0.5961640000000  0.4386820000000  0.5418640000000 1.0
C      1  0.4081120000000  0.4327990000000  0.4947090000000 1.0
C      1  0.5700400000000  0.5707680000000  0.4564660000000 1.0
C      1  0.4014580000000  0.5646450000000  0.4968060000000 1.0
C      1  0.5781900000000  0.4851250000000  0.5431470000000 1.0
C      1  0.6058320000000  0.5132170000000  0.4746160000000 1.0
C      1  0.4704490000000  0.4936020000000  0.5655090000000 1.0
C      1  0.4439070000000  0.4801260000000  0.5643780000000 1.0
C      1  0.4240050000000  0.5083030000000  0.5222180000000 1.0
C      1  0.4853750000000  0.4451390000000  0.4565870000000 1.0
C      1  0.5461570000000  0.5966160000000  0.4947650000000 1.0
C      1  0.5162930000000  0.4741430000000  0.4983850000000 1.0
C      1  0.4932550000000  0.5075900000000  0.4003240000000 1.0
C      1  0.5761370000000  0.5558440000000  0.5121720000000 1.0
C      1  0.5923880000000  0.4625260000000  0.5559110000000 1.0
C      1  0.5298140000000  0.4321640000000  0.5072900000000 1.0
C      1  0.5571330000000  0.5411850000000  0.4190760000000 1.0
C      1  0.5011540000000  0.4824980000000  0.4735490000000 1.0
C      1  0.5828400000000  0.4551480000000  0.5814520000000 1.0
C      1  0.4719730000000  0.5528300000000  0.5890410000000 1.0
C      1  0.5007660000000  0.4479860000000  0.5071110000000 1.0
C      1  0.4842410000000  0.3988910000000  0.4671290000000 1.0
C      1  0.5215130000000  0.5725900000000  0.4349170000000 1.0
C      1  0.5514670000000  0.4229090000000  0.5598430000000 1.0
C      1  0.4708580000000  0.4119790000000  0.4900800000000 1.0
C      1  0.4326560000000  0.4549800000000  0.4333220000000 1.0
C      1  0.3929880000000  0.5046020000000  0.5184610000000 1.0
C      1  0.4242760000000  0.4811760000000  0.4186710000000 1.0
C      1  0.4251050000000  0.5248490000000  0.5759560000000 1.0
C      1  0.4239770000000  0.4963310000000  0.5798370000000 1.0
C      1  0.4979740000000  0.6048100000000  0.4980240000000 1.0
C      1  0.5465670000000  0.5564170000000  0.5138270000000 1.0
C      1  0.3981870000000  0.5212350000000  0.5652500000000 1.0
C      1  0.5075340000000  0.5902720000000  0.4545590000000 1.0
C      1  0.5446330000000  0.4816130000000  0.6029360000000 1.0
C      1  0.4749320000000  0.4018650000000  0.5160090000000 1.0
C      1  0.5512640000000  0.4493430000000  0.5241980000000 1.0
C      1  0.4073130000000  0.5442500000000  0.4755110000000 1.0
C      1  0.5369690000000  0.5376280000000  0.5343760000000 1.0
C      1  0.5930520000000  0.5546860000000  0.4551870000000 1.0
C      1  0.4082570000000  0.4710210000000  0.4702460000000 1.0
C      1  0.5563920000000  0.4060310000000  0.4523520000000 1.0
C      1  0.5526200000000  0.5123490000000  0.4519430000000 1.0
C      1  0.5461180000000  0.4807770000000  0.4563940000000 1.0
C      1  0.5231990000000  0.4494000000000  0.4570270000000 1.0
C      1  0.5608070000000  0.4745490000000  0.4152010000000 1.0
C      1  0.5501390000000  0.4488370000000  0.4266710000000 1.0
C      1  0.4295730000000  0.5388050000000  0.5277240000000 1.0
C      1  0.5116670000000  0.5276520000000  0.4146810000000 1.0
C      1  0.5860080000000  0.4421970000000  0.4574470000000 1.0
C      1  0.5365690000000  0.4737530000000  0.5453180000000 1.0
C      1  0.4499120000000  0.4869060000000  0.4026390000000 1.0
C      1  0.4445500000000  0.5943220000000  0.4959160000000 1.0
C      1  0.4956300000000  0.5276600000000  0.4672780000000 1.0
C      1  0.5698090000000  0.4290790000000  0.5372730000000 1.0
C      1  0.4962730000000  0.4796890000000  0.4104630000000 1.0
C      1  0.5124730000000  0.4155780000000  0.4308570000000 1.0
C      1  0.4424450000000  0.5466060000000  0.5875850000000 1.0
C      1  0.4368010000000  0.4829880000000  0.5350330000000 1.0
C      1  0.4361160000000  0.4803190000000  0.4796910000000 1.0
C      1  0.5213270000000  0.4980390000000  0.6024310000000 1.0
C      1  0.3916970000000  0.4731510000000  0.5198810000000 1.0
C      1  0.4561010000000  0.4912750000000  0.4591290000000 1.0
C      1  0.4499680000000  0.4501980000000  0.5685220000000 1.0
END
