TITL C-950526-5686-688 -1.54472840767445e-06 125000 -298.490088018757 0 0 50 (C1) n - 1
REM
REM in /home/bkarasulu/work/CARBON/AIRSS/Generating-Clusters/EDIP-Nigel-Params/with-SteepDescent/Only-C1/SD-CG/HFTN-CG
REM
REM
REM
REM
REM
REM ./C.cell (11c1c37f851c82e70ff6c80c92926a4b)
REM
REM compiler GCC version 9.2.1 20190827 (Red Hat 9.2.1-1)
REM options -cpp -mtune=generic -march=x86-64 -g -O0 -fpre-include=/usr/include/finclude/math-vector-fortran.h
REM seed -1977450066 134657243 403719254 1448007985 -708106283 -896038387 1141424618 -1744879648 370505296 -1774004315 -783217351 -728664784 75216013 1894124801 -1484935078 -723182383 2082198836 -353853878 1812661877 -1256648616 118462999 -41142052 -1118978247 -534454939 -163524884 -2081426121 1704560723 1374487141 89055474 10826276 -1002182083 -225190462 -246923603
REM
CELL 1.54180   50.00000   50.00000   50.00000   90.00000   90.00000   90.00000
LATT -1
SFAC C  
C      1  0.5597410000000  0.4442110000000  0.5201520000000 1.0
C      1  0.4852970000000  0.5565100000000  0.5043970000000 1.0
C      1  0.4601070000000  0.4965810000000  0.5411160000000 1.0
C      1  0.4417930000000  0.5623120000000  0.5319390000000 1.0
C      1  0.4792860000000  0.4602350000000  0.4649760000000 1.0
C      1  0.4650390000000  0.5688670000000  0.5202110000000 1.0
C      1  0.4940570000000  0.5045090000000  0.4844070000000 1.0
C      1  0.4987930000000  0.4401040000000  0.5054640000000 1.0
C      1  0.4395710000000  0.5164010000000  0.5469150000000 1.0
C      1  0.5510750000000  0.4423890000000  0.4735520000000 1.0
C      1  0.4365840000000  0.5354930000000  0.5264920000000 1.0
C      1  0.5345880000000  0.4626630000000  0.5617720000000 1.0
C      1  0.4704560000000  0.4324660000000  0.5077240000000 1.0
C      1  0.5112730000000  0.4778840000000  0.5642440000000 1.0
C      1  0.5079710000000  0.5218540000000  0.4338370000000 1.0
C      1  0.5285700000000  0.4802540000000  0.4534660000000 1.0
C      1  0.5104020000000  0.4916050000000  0.4320440000000 1.0
C      1  0.4799020000000  0.5264000000000  0.4425670000000 1.0
C      1  0.5458860000000  0.5048440000000  0.4857960000000 1.0
C      1  0.4680190000000  0.5466140000000  0.4602340000000 1.0
C      1  0.4863530000000  0.5114560000000  0.5359260000000 1.0
C      1  0.4406220000000  0.5261220000000  0.4994180000000 1.0
C      1  0.5106750000000  0.5040080000000  0.5506290000000 1.0
C      1  0.4805070000000  0.4876260000000  0.4379240000000 1.0
C      1  0.5503640000000  0.4498120000000  0.5444830000000 1.0
C      1  0.5331690000000  0.5532870000000  0.4868400000000 1.0
C      1  0.4521840000000  0.4531400000000  0.5151760000000 1.0
C      1  0.5307380000000  0.5234340000000  0.5553410000000 1.0
C      1  0.4919880000000  0.5240690000000  0.5087620000000 1.0
C      1  0.4872680000000  0.4631490000000  0.5559760000000 1.0
C      1  0.5195400000000  0.4887870000000  0.4818100000000 1.0
C      1  0.5770220000000  0.4988640000000  0.5079570000000 1.0
C      1  0.5408020000000  0.5291830000000  0.5299460000000 1.0
C      1  0.5309460000000  0.5353890000000  0.4461870000000 1.0
C      1  0.5505150000000  0.5058580000000  0.5161980000000 1.0
C      1  0.4866310000000  0.5635470000000  0.4755260000000 1.0
C      1  0.4637630000000  0.4774420000000  0.5630470000000 1.0
C      1  0.4723400000000  0.4887410000000  0.4675900000000 1.0
C      1  0.5455830000000  0.5319360000000  0.4715510000000 1.0
C      1  0.4431460000000  0.4907970000000  0.4695110000000 1.0
C      1  0.4516660000000  0.4819980000000  0.5162460000000 1.0
C      1  0.5670900000000  0.4511750000000  0.4944010000000 1.0
C      1  0.4889440000000  0.4611040000000  0.5261700000000 1.0
C      1  0.5210030000000  0.5434890000000  0.5125740000000 1.0
C      1  0.5282660000000  0.4509820000000  0.4602060000000 1.0
C      1  0.4392220000000  0.4979750000000  0.4958450000000 1.0
C      1  0.5779810000000  0.4766800000000  0.4918220000000 1.0
C      1  0.4450110000000  0.5410280000000  0.4759040000000 1.0
C      1  0.5142460000000  0.5633790000000  0.4670050000000 1.0
C      1  0.5040060000000  0.4533470000000  0.4787220000000 1.0
END
