TITL C-950529-3362-198 6.97536938679374e-07 125000 -1146.65626925778 0 0 182 (C1) n - 1
REM
REM in /home/bkarasulu/work/CARBON/AIRSS/Generating-Clusters/EDIP-Nigel-Params/with-SteepDescent/Only-C1/SD-CG/HFTN-CG
REM
REM
REM
REM
REM
REM ./C.cell (11c1c37f851c82e70ff6c80c92926a4b)
REM
REM compiler GCC version 9.2.1 20190827 (Red Hat 9.2.1-1)
REM options -cpp -mtune=generic -march=x86-64 -g -O0 -fpre-include=/usr/include/finclude/math-vector-fortran.h
REM seed 825345214 1235329363 1293879567 873835429 1475647071 703986996 -243762622 227926604 1596682856 1182069618 1604755770 -1723863529 1408031028 -563463027 1196628024 100916797 563443624 -730903291 -254150057 -2092103673 -687358982 -1407722752 266611628 -1883689573 -1204256156 1145999456 -652477085 236017527 1583410860 143828272 2056857014 -1557248589 -626079992
REM
CELL 1.54180   50.00000   50.00000   50.00000   90.00000   90.00000   90.00000
LATT -1
SFAC C  
C      1  0.5936430000000  0.5194990000000  0.5515530000000 1.0
C      1  0.4176790000000  0.5429760000000  0.5210790000000 1.0
C      1  0.4377310000000  0.4921980000000  0.4690780000000 1.0
C      1  0.5296230000000  0.4167270000000  0.5108190000000 1.0
C      1  0.5322990000000  0.5557030000000  0.4723960000000 1.0
C      1  0.4471000000000  0.5722900000000  0.4273240000000 1.0
C      1  0.4673180000000  0.4819900000000  0.4099120000000 1.0
C      1  0.4710870000000  0.4146780000000  0.5740240000000 1.0
C      1  0.4376430000000  0.4766250000000  0.4134310000000 1.0
C      1  0.5758890000000  0.5559920000000  0.5694340000000 1.0
C      1  0.5815790000000  0.4390710000000  0.4832910000000 1.0
C      1  0.5793010000000  0.4267080000000  0.5118310000000 1.0
C      1  0.6015970000000  0.4858000000000  0.4853550000000 1.0
C      1  0.5030490000000  0.5664360000000  0.5069390000000 1.0
C      1  0.5772200000000  0.5782060000000  0.4965210000000 1.0
C      1  0.5572720000000  0.5227210000000  0.4046850000000 1.0
C      1  0.4413120000000  0.4162310000000  0.4640670000000 1.0
C      1  0.5629200000000  0.4631110000000  0.5292040000000 1.0
C      1  0.5437240000000  0.5146890000000  0.6146760000000 1.0
C      1  0.5757030000000  0.4428320000000  0.4539650000000 1.0
C      1  0.5097270000000  0.5997680000000  0.4617230000000 1.0
C      1  0.4005890000000  0.4453160000000  0.4627490000000 1.0
C      1  0.5974820000000  0.5092470000000  0.4669860000000 1.0
C      1  0.4886970000000  0.5890640000000  0.4439750000000 1.0
C      1  0.4743480000000  0.5072380000000  0.4253520000000 1.0
C      1  0.5877000000000  0.5336680000000  0.5081270000000 1.0
C      1  0.5211120000000  0.5290780000000  0.4377140000000 1.0
C      1  0.4786570000000  0.3942220000000  0.5004060000000 1.0
C      1  0.6045660000000  0.4884770000000  0.5147860000000 1.0
C      1  0.5054620000000  0.5096220000000  0.4202100000000 1.0
C      1  0.4642070000000  0.4885250000000  0.5334310000000 1.0
C      1  0.5243410000000  0.6094470000000  0.5090980000000 1.0
C      1  0.5687270000000  0.5628140000000  0.5433740000000 1.0
C      1  0.5127280000000  0.4688120000000  0.5478350000000 1.0
C      1  0.4480950000000  0.4512830000000  0.4980970000000 1.0
C      1  0.5920700000000  0.5026750000000  0.5738570000000 1.0
C      1  0.5048710000000  0.3943530000000  0.5467810000000 1.0
C      1  0.5974230000000  0.5350440000000  0.4809550000000 1.0
C      1  0.4667840000000  0.4198670000000  0.4487110000000 1.0
C      1  0.4600060000000  0.5289670000000  0.4105040000000 1.0
C      1  0.4983820000000  0.4284180000000  0.5793840000000 1.0
C      1  0.4631570000000  0.3977390000000  0.5240060000000 1.0
C      1  0.4339510000000  0.5989110000000  0.4926610000000 1.0
C      1  0.5254090000000  0.4846450000000  0.5733800000000 1.0
C      1  0.4910210000000  0.5868460000000  0.5750810000000 1.0
C      1  0.5488290000000  0.5350500000000  0.5152030000000 1.0
C      1  0.4485810000000  0.4626150000000  0.4693170000000 1.0
C      1  0.4001330000000  0.5006230000000  0.5055950000000 1.0
C      1  0.4508250000000  0.5790210000000  0.4785780000000 1.0
C      1  0.5897770000000  0.4745270000000  0.5647230000000 1.0
C      1  0.5461200000000  0.4043120000000  0.4723880000000 1.0
C      1  0.4909590000000  0.5344720000000  0.5353190000000 1.0
C      1  0.4308660000000  0.4989260000000  0.4998320000000 1.0
C      1  0.4379460000000  0.5327690000000  0.5725460000000 1.0
C      1  0.4406490000000  0.5258140000000  0.5104880000000 1.0
C      1  0.4828550000000  0.4849630000000  0.3828010000000 1.0
C      1  0.4435390000000  0.4765650000000  0.5151990000000 1.0
C      1  0.3912180000000  0.4729430000000  0.4663680000000 1.0
C      1  0.6024800000000  0.4587020000000  0.4759730000000 1.0
C      1  0.3956930000000  0.5028320000000  0.5338530000000 1.0
C      1  0.5478560000000  0.4726860000000  0.5914390000000 1.0
C      1  0.5255710000000  0.3885980000000  0.4862780000000 1.0
C      1  0.4452340000000  0.5751160000000  0.5477220000000 1.0
C      1  0.4262610000000  0.4222740000000  0.5418860000000 1.0
C      1  0.4613460000000  0.4352890000000  0.4238370000000 1.0
C      1  0.5692730000000  0.5571310000000  0.4414660000000 1.0
C      1  0.4015940000000  0.4314170000000  0.4894710000000 1.0
C      1  0.5471420000000  0.4517320000000  0.5527120000000 1.0
C      1  0.5251850000000  0.5182730000000  0.4975780000000 1.0
C      1  0.4756990000000  0.5636180000000  0.5854230000000 1.0
C      1  0.5429670000000  0.5085280000000  0.5325280000000 1.0
C      1  0.5275640000000  0.4729140000000  0.6329830000000 1.0
C      1  0.5218620000000  0.4394500000000  0.4229420000000 1.0
C      1  0.4940200000000  0.4104160000000  0.4556550000000 1.0
C      1  0.4980520000000  0.5152940000000  0.5562170000000 1.0
C      1  0.5712930000000  0.5422910000000  0.5935330000000 1.0
C      1  0.4818770000000  0.4674830000000  0.5479050000000 1.0
C      1  0.5220380000000  0.5546560000000  0.5910670000000 1.0
C      1  0.4043180000000  0.4970740000000  0.4499870000000 1.0
C      1  0.3910690000000  0.5244660000000  0.4891440000000 1.0
C      1  0.5325760000000  0.5617980000000  0.5017620000000 1.0
C      1  0.5968840000000  0.4402400000000  0.5295200000000 1.0
C      1  0.4820310000000  0.4916300000000  0.4732140000000 1.0
C      1  0.5183940000000  0.4167100000000  0.4402710000000 1.0
C      1  0.4974850000000  0.4511940000000  0.4980370000000 1.0
C      1  0.4652640000000  0.5378440000000  0.4975150000000 1.0
C      1  0.4144150000000  0.5679350000000  0.4799430000000 1.0
C      1  0.4979110000000  0.3944080000000  0.4796010000000 1.0
C      1  0.5777540000000  0.5349280000000  0.4226840000000 1.0
C      1  0.4837560000000  0.5520710000000  0.4549650000000 1.0
C      1  0.5627910000000  0.4940190000000  0.4001410000000 1.0
C      1  0.4740490000000  0.4407130000000  0.5393600000000 1.0
C      1  0.4108910000000  0.4467530000000  0.5352640000000 1.0
C      1  0.4599460000000  0.5364900000000  0.4674820000000 1.0
C      1  0.4627150000000  0.5037390000000  0.5946380000000 1.0
C      1  0.4397460000000  0.5061280000000  0.5572890000000 1.0
C      1  0.4626560000000  0.5075670000000  0.4580160000000 1.0
C      1  0.4590910000000  0.5880300000000  0.4505990000000 1.0
C      1  0.4755430000000  0.3937010000000  0.5519610000000 1.0
C      1  0.4792670000000  0.4583070000000  0.4246510000000 1.0
C      1  0.5862310000000  0.5095270000000  0.4382060000000 1.0
C      1  0.5060930000000  0.4756050000000  0.5121240000000 1.0
C      1  0.5097430000000  0.5191400000000  0.3923660000000 1.0
C      1  0.5378000000000  0.4364900000000  0.4878330000000 1.0
C      1  0.5028170000000  0.6071260000000  0.4891370000000 1.0
C      1  0.5243740000000  0.5547650000000  0.4207570000000 1.0
C      1  0.5444550000000  0.5420320000000  0.6048690000000 1.0
C      1  0.4958700000000  0.5685290000000  0.4215670000000 1.0
C      1  0.5427250000000  0.4038400000000  0.4451350000000 1.0
C      1  0.5662140000000  0.4583370000000  0.5748940000000 1.0
C      1  0.4255480000000  0.5522990000000  0.4330710000000 1.0
C      1  0.4951400000000  0.5437710000000  0.5968060000000 1.0
C      1  0.5777800000000  0.5140110000000  0.5960970000000 1.0
C      1  0.4644140000000  0.5869790000000  0.5289080000000 1.0
C      1  0.6037980000000  0.4671030000000  0.5368540000000 1.0
C      1  0.4357530000000  0.4071140000000  0.5191660000000 1.0
C      1  0.5545340000000  0.4127250000000  0.5262720000000 1.0
C      1  0.5809710000000  0.4843270000000  0.4222200000000 1.0
C      1  0.3942350000000  0.4503810000000  0.5103110000000 1.0
C      1  0.4889380000000  0.5152250000000  0.5862230000000 1.0
C      1  0.5200700000000  0.5828810000000  0.5811000000000 1.0
C      1  0.5392850000000  0.4837090000000  0.4460900000000 1.0
C      1  0.3989990000000  0.5507270000000  0.5001320000000 1.0
C      1  0.4776090000000  0.6176510000000  0.4958610000000 1.0
C      1  0.5683570000000  0.4931040000000  0.5381170000000 1.0
C      1  0.5114700000000  0.4473520000000  0.4718830000000 1.0
C      1  0.4830350000000  0.4944460000000  0.5051830000000 1.0
C      1  0.5132700000000  0.6101390000000  0.5373050000000 1.0
C      1  0.5380870000000  0.4751880000000  0.3990090000000 1.0
C      1  0.5086660000000  0.5389420000000  0.4629680000000 1.0
C      1  0.5847130000000  0.5603460000000  0.5191900000000 1.0
C      1  0.4060410000000  0.5229790000000  0.4647330000000 1.0
C      1  0.5358700000000  0.5898870000000  0.4552950000000 1.0
C      1  0.5050040000000  0.4900720000000  0.5966840000000 1.0
C      1  0.5343610000000  0.5354410000000  0.3905980000000 1.0
C      1  0.4549870000000  0.6094880000000  0.5104030000000 1.0
C      1  0.4265220000000  0.5456620000000  0.4617270000000 1.0
C      1  0.4316870000000  0.5266500000000  0.4177940000000 1.0
C      1  0.5195720000000  0.4113400000000  0.5663510000000 1.0
C      1  0.5631380000000  0.4635790000000  0.4357470000000 1.0
C      1  0.5209900000000  0.4979900000000  0.6210320000000 1.0
C      1  0.5475020000000  0.4498850000000  0.4134930000000 1.0
C      1  0.5054980000000  0.4665490000000  0.3847990000000 1.0
C      1  0.5306220000000  0.4563940000000  0.6099050000000 1.0
C      1  0.4919030000000  0.5879070000000  0.5444020000000 1.0
C      1  0.3878010000000  0.4757970000000  0.4955930000000 1.0
C      1  0.4244320000000  0.4990580000000  0.4275270000000 1.0
C      1  0.5493390000000  0.4627140000000  0.5022610000000 1.0
C      1  0.5044160000000  0.4513680000000  0.5974500000000 1.0
C      1  0.5538300000000  0.5861420000000  0.5381770000000 1.0
C      1  0.5479030000000  0.5146500000000  0.4468050000000 1.0
C      1  0.4235730000000  0.5663030000000  0.5344180000000 1.0
C      1  0.4550090000000  0.4797040000000  0.5803510000000 1.0
C      1  0.5454700000000  0.4221970000000  0.5532610000000 1.0
C      1  0.5204220000000  0.4839140000000  0.4228130000000 1.0
C      1  0.4344170000000  0.4482250000000  0.4234390000000 1.0
C      1  0.4739810000000  0.4369440000000  0.5078540000000 1.0
C      1  0.4142110000000  0.4649630000000  0.5582490000000 1.0
C      1  0.5567070000000  0.5394720000000  0.4650170000000 1.0
C      1  0.6028460000000  0.5156140000000  0.5249750000000 1.0
C      1  0.4428560000000  0.5231800000000  0.5985390000000 1.0
C      1  0.5337040000000  0.5976950000000  0.5563900000000 1.0
C      1  0.5480420000000  0.5880220000000  0.5087820000000 1.0
C      1  0.5875240000000  0.5621380000000  0.4716950000000 1.0
C      1  0.4710310000000  0.5677150000000  0.5020670000000 1.0
C      1  0.4124720000000  0.4940430000000  0.5544210000000 1.0
C      1  0.4495010000000  0.4322910000000  0.5592390000000 1.0
C      1  0.5270320000000  0.5098900000000  0.5570010000000 1.0
C      1  0.4814940000000  0.4638910000000  0.4587210000000 1.0
C      1  0.4380990000000  0.4568420000000  0.5739760000000 1.0
C      1  0.5449080000000  0.5728560000000  0.4335560000000 1.0
C      1  0.5024690000000  0.4177520000000  0.5264180000000 1.0
C      1  0.4930470000000  0.5229400000000  0.5072720000000 1.0
C      1  0.5300040000000  0.4855460000000  0.4966490000000 1.0
C      1  0.4687640000000  0.5571010000000  0.4137980000000 1.0
C      1  0.4291000000000  0.4439200000000  0.4531160000000 1.0
C      1  0.4910920000000  0.5103740000000  0.3730740000000 1.0
C      1  0.5228560000000  0.4756880000000  0.4692170000000 1.0
C      1  0.4306480000000  0.4239680000000  0.4940210000000 1.0
C      1  0.5033280000000  0.5609840000000  0.5352790000000 1.0
C      1  0.4557850000000  0.5548530000000  0.5654770000000 1.0
C      1  0.5001330000000  0.4480400000000  0.4068440000000 1.0
END
