TITL C-951334-9093-514 -4.02813598147956e-06 125000 -805.822793868876 0 0 129 (C1) n - 1
REM
REM in /home/bkarasulu/work/CARBON/AIRSS/Generating-Clusters/EDIP-Nigel-Params/with-SteepDescent/Only-C1/SD-CG/HFTN-CG
REM
REM
REM
REM
REM
REM ./C.cell (11c1c37f851c82e70ff6c80c92926a4b)
REM
REM compiler GCC version 9.2.1 20190827 (Red Hat 9.2.1-1)
REM options -cpp -mtune=generic -march=x86-64 -g -O0 -fpre-include=/usr/include/finclude/math-vector-fortran.h
REM seed -1874945517 165292602 1777678027 -1894207065 613453876 -359191865 -1074994694 419885520 73138491 -634013926 1986855572 844955927 1200802241 -351420350 425715694 -137885276 -1154610062 -307593499 1807544005 -2033392988 -824300261 -1978225382 942167590 1597305823 118369874 -1557527601 1953471270 -2034486275 -69635312 -671346117 -1936362316 991890130 -1710646653
REM
CELL 1.54180   50.00000   50.00000   50.00000   90.00000   90.00000   90.00000
LATT -1
SFAC C  
C      1  0.5478460000000  0.5314590000000  0.5781390000000 1.0
C      1  0.5149120000000  0.4492790000000  0.4360410000000 1.0
C      1  0.4913970000000  0.4874920000000  0.4563040000000 1.0
C      1  0.4594110000000  0.4227210000000  0.5157470000000 1.0
C      1  0.4141600000000  0.4523100000000  0.5465000000000 1.0
C      1  0.4989720000000  0.5986100000000  0.4644800000000 1.0
C      1  0.5073450000000  0.5324700000000  0.5963020000000 1.0
C      1  0.4279790000000  0.4544210000000  0.4968110000000 1.0
C      1  0.4293440000000  0.5483980000000  0.5645620000000 1.0
C      1  0.5026300000000  0.5335920000000  0.5407060000000 1.0
C      1  0.5490400000000  0.4673730000000  0.4736080000000 1.0
C      1  0.4627900000000  0.4462290000000  0.5345930000000 1.0
C      1  0.4995330000000  0.5703820000000  0.4904040000000 1.0
C      1  0.4929560000000  0.3912880000000  0.5321850000000 1.0
C      1  0.5744590000000  0.4711200000000  0.5594310000000 1.0
C      1  0.4770180000000  0.6067200000000  0.4794680000000 1.0
C      1  0.4683800000000  0.3979280000000  0.5240810000000 1.0
C      1  0.5664970000000  0.4448910000000  0.5525590000000 1.0
C      1  0.5293010000000  0.4939360000000  0.5643480000000 1.0
C      1  0.4986820000000  0.5084730000000  0.5255430000000 1.0
C      1  0.4250600000000  0.5400080000000  0.4927960000000 1.0
C      1  0.5470970000000  0.5085990000000  0.5950650000000 1.0
C      1  0.5486460000000  0.5153220000000  0.4911530000000 1.0
C      1  0.4804240000000  0.4677910000000  0.5245910000000 1.0
C      1  0.5000230000000  0.5908350000000  0.5137760000000 1.0
C      1  0.5780420000000  0.4845960000000  0.5111450000000 1.0
C      1  0.4571850000000  0.5468540000000  0.4263340000000 1.0
C      1  0.4743720000000  0.4940850000000  0.5371470000000 1.0
C      1  0.4904120000000  0.4493770000000  0.5772970000000 1.0
C      1  0.4565250000000  0.4492550000000  0.4320930000000 1.0
C      1  0.5046980000000  0.4660800000000  0.5047740000000 1.0
C      1  0.5387590000000  0.5404310000000  0.4736380000000 1.0
C      1  0.5455640000000  0.5186030000000  0.5226210000000 1.0
C      1  0.4741610000000  0.5226970000000  0.4824510000000 1.0
C      1  0.4668960000000  0.4400100000000  0.5633620000000 1.0
C      1  0.5181790000000  0.4022430000000  0.5349440000000 1.0
C      1  0.4799840000000  0.5823340000000  0.5346050000000 1.0
C      1  0.5164760000000  0.5305200000000  0.4542260000000 1.0
C      1  0.4456090000000  0.5754550000000  0.4622930000000 1.0
C      1  0.5235600000000  0.3999260000000  0.4850640000000 1.0
C      1  0.5216050000000  0.5087780000000  0.6090460000000 1.0
C      1  0.5199610000000  0.5704690000000  0.5659850000000 1.0
C      1  0.5633800000000  0.5758310000000  0.4772990000000 1.0
C      1  0.3923320000000  0.4820540000000  0.5157970000000 1.0
C      1  0.4749700000000  0.4562190000000  0.4720870000000 1.0
C      1  0.5384320000000  0.5685780000000  0.5418980000000 1.0
C      1  0.4793970000000  0.4978400000000  0.5689290000000 1.0
C      1  0.4363220000000  0.5318860000000  0.4417050000000 1.0
C      1  0.4955730000000  0.4287140000000  0.4251790000000 1.0
C      1  0.4762400000000  0.5515880000000  0.4949730000000 1.0
C      1  0.5676780000000  0.4851490000000  0.3970590000000 1.0
C      1  0.4512900000000  0.5006960000000  0.4863710000000 1.0
C      1  0.4741440000000  0.5559080000000  0.5785680000000 1.0
C      1  0.5835210000000  0.5581600000000  0.5235400000000 1.0
C      1  0.5313280000000  0.4687980000000  0.5192070000000 1.0
C      1  0.4903640000000  0.5709890000000  0.5606840000000 1.0
C      1  0.4664040000000  0.5718930000000  0.4405360000000 1.0
C      1  0.4408810000000  0.5030770000000  0.4349570000000 1.0
C      1  0.5382890000000  0.4635310000000  0.5704150000000 1.0
C      1  0.5704730000000  0.5383990000000  0.5617170000000 1.0
C      1  0.5185670000000  0.5679300000000  0.4312350000000 1.0
C      1  0.5512950000000  0.5067880000000  0.4009620000000 1.0
C      1  0.4775420000000  0.5255400000000  0.4237530000000 1.0
C      1  0.4512150000000  0.5392580000000  0.5797700000000 1.0
C      1  0.5576930000000  0.4633070000000  0.5041710000000 1.0
C      1  0.4952440000000  0.5764690000000  0.4472180000000 1.0
C      1  0.5259650000000  0.5565950000000  0.4965690000000 1.0
C      1  0.4021200000000  0.4971750000000  0.4941700000000 1.0
C      1  0.5425190000000  0.5261860000000  0.4186860000000 1.0
C      1  0.5727680000000  0.4365390000000  0.5258310000000 1.0
C      1  0.5454480000000  0.5659670000000  0.4449710000000 1.0
C      1  0.5278010000000  0.5440950000000  0.5261000000000 1.0
C      1  0.4633750000000  0.4333130000000  0.4555380000000 1.0
C      1  0.4373570000000  0.4643010000000  0.5573490000000 1.0
C      1  0.4281390000000  0.5113420000000  0.5009940000000 1.0
C      1  0.4276320000000  0.4548060000000  0.4314950000000 1.0
C      1  0.4541480000000  0.5915580000000  0.4862800000000 1.0
C      1  0.5387320000000  0.4175020000000  0.4680120000000 1.0
C      1  0.5347740000000  0.4925140000000  0.4781190000000 1.0
C      1  0.5760600000000  0.4911160000000  0.5390150000000 1.0
C      1  0.5645490000000  0.4208940000000  0.4796520000000 1.0
C      1  0.5285420000000  0.5514820000000  0.5870430000000 1.0
C      1  0.4011410000000  0.4825510000000  0.4681750000000 1.0
C      1  0.5177320000000  0.5415380000000  0.4180080000000 1.0
C      1  0.4839540000000  0.4140510000000  0.4470010000000 1.0
C      1  0.5012330000000  0.4451700000000  0.4842170000000 1.0
C      1  0.5679780000000  0.5632640000000  0.5468050000000 1.0
C      1  0.5886720000000  0.5401850000000  0.5019870000000 1.0
C      1  0.5070190000000  0.4850740000000  0.6062680000000 1.0
C      1  0.5275740000000  0.4956660000000  0.5329650000000 1.0
C      1  0.4538310000000  0.4710580000000  0.4893960000000 1.0
C      1  0.5780940000000  0.5325680000000  0.4548870000000 1.0
C      1  0.4391640000000  0.5104860000000  0.5320250000000 1.0
C      1  0.5812250000000  0.5523970000000  0.4764320000000 1.0
C      1  0.4384910000000  0.4206180000000  0.4676790000000 1.0
C      1  0.4071620000000  0.4550660000000  0.4752410000000 1.0
C      1  0.4199110000000  0.4830840000000  0.4366280000000 1.0
C      1  0.5442380000000  0.5794590000000  0.4994870000000 1.0
C      1  0.4739730000000  0.4420470000000  0.4096670000000 1.0
C      1  0.4123260000000  0.4633710000000  0.5209970000000 1.0
C      1  0.5694350000000  0.4798560000000  0.4534310000000 1.0
C      1  0.4354340000000  0.5393320000000  0.5385280000000 1.0
C      1  0.5041390000000  0.4768140000000  0.4317260000000 1.0
C      1  0.4168340000000  0.4372870000000  0.4538480000000 1.0
C      1  0.4357610000000  0.4948130000000  0.5584510000000 1.0
C      1  0.5788970000000  0.5188970000000  0.5425860000000 1.0
C      1  0.5037820000000  0.5170960000000  0.5690760000000 1.0
C      1  0.5254500000000  0.4443660000000  0.4648770000000 1.0
C      1  0.4535110000000  0.5092440000000  0.5784200000000 1.0
C      1  0.4580900000000  0.5715350000000  0.5090610000000 1.0
C      1  0.5169840000000  0.4432310000000  0.5669250000000 1.0
C      1  0.5631350000000  0.4599020000000  0.4075610000000 1.0
C      1  0.5587740000000  0.4195120000000  0.5073660000000 1.0
C      1  0.5290380000000  0.5968400000000  0.5191920000000 1.0
C      1  0.5786140000000  0.4674690000000  0.4292460000000 1.0
C      1  0.5228260000000  0.4179200000000  0.5572070000000 1.0
C      1  0.5323040000000  0.4083810000000  0.5107290000000 1.0
C      1  0.5843740000000  0.5036210000000  0.4635530000000 1.0
C      1  0.5600660000000  0.5425500000000  0.4344510000000 1.0
C      1  0.4885310000000  0.5189160000000  0.4526860000000 1.0
C      1  0.5069590000000  0.4892150000000  0.4837570000000 1.0
C      1  0.4631960000000  0.5009210000000  0.4149950000000 1.0
C      1  0.4366990000000  0.4257230000000  0.4976220000000 1.0
C      1  0.4325460000000  0.5569250000000  0.5157020000000 1.0
C      1  0.4873830000000  0.4762460000000  0.5883740000000 1.0
C      1  0.4364310000000  0.5477680000000  0.4669080000000 1.0
C      1  0.4827250000000  0.4784740000000  0.4117310000000 1.0
C      1  0.5784790000000  0.5095250000000  0.4930220000000 1.0
C      1  0.4974890000000  0.5126240000000  0.4970260000000 1.0
END
