TITL C-951348-1603-71 5.31991920927274e-05 125000 -213.1457106121 0 0 37 (C1) n - 1
REM
REM in /home/bkarasulu/work/CARBON/AIRSS/Generating-Clusters/EDIP-Nigel-Params/with-SteepDescent/Only-C1/SD-CG/HFTN-CG
REM
REM
REM
REM
REM
REM ./C.cell (11c1c37f851c82e70ff6c80c92926a4b)
REM
REM compiler GCC version 9.2.1 20190827 (Red Hat 9.2.1-1)
REM options -cpp -mtune=generic -march=x86-64 -g -O0 -fpre-include=/usr/include/finclude/math-vector-fortran.h
REM seed 1712330312 -379801251 -1386451506 -826471043 576952382 -1642003199 1791761682 -2120416174 -668381055 -1205825340 1549182433 972933921 375217408 -587634876 -2140820361 230347891 883920487 1306545030 266397614 -1246989223 -1211526558 87020520 50017668 -1430631366 954808786 1034268221 609618251 -2118283093 -1996320931 -1478452089 779731701 -1567831932 -680294621
REM
CELL 1.54180   50.00000   50.00000   50.00000   90.00000   90.00000   90.00000
LATT -1
SFAC C  
C      1  0.4599620000000  0.5394090000000  0.5180340000000 1.0
C      1  0.5079870000000  0.4591580000000  0.5303000000000 1.0
C      1  0.4933800000000  0.4647800000000  0.4765470000000 1.0
C      1  0.4430730000000  0.5110650000000  0.4884560000000 1.0
C      1  0.4661130000000  0.5595230000000  0.4984920000000 1.0
C      1  0.5384870000000  0.5272490000000  0.5305890000000 1.0
C      1  0.5234450000000  0.5521090000000  0.4903320000000 1.0
C      1  0.5234700000000  0.5046710000000  0.5452870000000 1.0
C      1  0.5584110000000  0.5185520000000  0.4843220000000 1.0
C      1  0.4909820000000  0.5032170000000  0.5448880000000 1.0
C      1  0.4939570000000  0.4890080000000  0.4958990000000 1.0
C      1  0.4689290000000  0.4322050000000  0.5049430000000 1.0
C      1  0.4751360000000  0.4659050000000  0.4531830000000 1.0
C      1  0.5296290000000  0.4801890000000  0.5299570000000 1.0
C      1  0.5227000000000  0.4965470000000  0.5033020000000 1.0
C      1  0.5163400000000  0.5342230000000  0.5126670000000 1.0
C      1  0.5381820000000  0.4510580000000  0.4937720000000 1.0
C      1  0.4517090000000  0.4445810000000  0.5215670000000 1.0
C      1  0.4847090000000  0.4804220000000  0.5231400000000 1.0
C      1  0.5405830000000  0.4782430000000  0.4869910000000 1.0
C      1  0.4921940000000  0.4375360000000  0.4903940000000 1.0
C      1  0.4826500000000  0.4939920000000  0.5691340000000 1.0
C      1  0.5622480000000  0.4917270000000  0.4751440000000 1.0
C      1  0.5596640000000  0.5212120000000  0.5127740000000 1.0
C      1  0.4558890000000  0.4720910000000  0.5193900000000 1.0
C      1  0.4771670000000  0.5298170000000  0.5397130000000 1.0
C      1  0.4844420000000  0.5210400000000  0.4595000000000 1.0
C      1  0.5157890000000  0.4402560000000  0.5079010000000 1.0
C      1  0.4625930000000  0.5052150000000  0.4694490000000 1.0
C      1  0.5088520000000  0.4986240000000  0.4395470000000 1.0
C      1  0.5003690000000  0.4715730000000  0.4417000000000 1.0
C      1  0.5342390000000  0.5320530000000  0.4716650000000 1.0
C      1  0.4438920000000  0.4842830000000  0.4960940000000 1.0
C      1  0.4845570000000  0.5803550000000  0.5006580000000 1.0
C      1  0.5000160000000  0.5667250000000  0.4818250000000 1.0
C      1  0.4961580000000  0.5478870000000  0.5285850000000 1.0
C      1  0.5120990000000  0.5134990000000  0.4638570000000 1.0
END
