TITL C-950529-3362-213 -5.66370943326208e-05 125000 -284.147521460185 0 0 48 (C1) n - 1
REM
REM in /home/bkarasulu/work/CARBON/AIRSS/Generating-Clusters/EDIP-Nigel-Params/with-SteepDescent/Only-C1/SD-CG/HFTN-CG
REM
REM
REM
REM
REM
REM ./C.cell (11c1c37f851c82e70ff6c80c92926a4b)
REM
REM compiler GCC version 9.2.1 20190827 (Red Hat 9.2.1-1)
REM options -cpp -mtune=generic -march=x86-64 -g -O0 -fpre-include=/usr/include/finclude/math-vector-fortran.h
REM seed -1086971640 1782599369 -2042287668 1098418298 -1176683882 14911724 1040256674 2097029709 1530244606 1834130358 -227749670 -1988292673 -1061368174 587930255 -1564606077 -1802685166 -1500437591 1965106036 -1897453182 1344526056 -2068756707 22360069 -2022634961 44592009 -404857027 -1397177790 263462595 1810763157 -1599607474 -1401084425 -1678651247 -1121793825 -1400754228
REM
CELL 1.54180   50.00000   50.00000   50.00000   90.00000   90.00000   90.00000
LATT -1
SFAC C  
C      1  0.5562150000000  0.4645240000000  0.4980800000000 1.0
C      1  0.5268230000000  0.5383100000000  0.4522480000000 1.0
C      1  0.5314920000000  0.4856310000000  0.5644210000000 1.0
C      1  0.4386120000000  0.5322970000000  0.4779610000000 1.0
C      1  0.4876560000000  0.5025620000000  0.5054030000000 1.0
C      1  0.5161940000000  0.4685590000000  0.4659780000000 1.0
C      1  0.4999080000000  0.4330930000000  0.4961060000000 1.0
C      1  0.4644120000000  0.4575920000000  0.5628240000000 1.0
C      1  0.4594860000000  0.4817400000000  0.5726430000000 1.0
C      1  0.4759650000000  0.5387710000000  0.4691490000000 1.0
C      1  0.5114840000000  0.5694580000000  0.5178360000000 1.0
C      1  0.4635600000000  0.4844460000000  0.4369810000000 1.0
C      1  0.4402490000000  0.5009420000000  0.5187740000000 1.0
C      1  0.5455530000000  0.5343290000000  0.5167630000000 1.0
C      1  0.5090840000000  0.4459010000000  0.5426180000000 1.0
C      1  0.4761990000000  0.4430070000000  0.4642380000000 1.0
C      1  0.4824730000000  0.5328170000000  0.4390560000000 1.0
C      1  0.5109500000000  0.5386060000000  0.4784760000000 1.0
C      1  0.4478700000000  0.4864310000000  0.4951550000000 1.0
C      1  0.5006990000000  0.5223700000000  0.5702080000000 1.0
C      1  0.4684630000000  0.5630700000000  0.4894750000000 1.0
C      1  0.4681510000000  0.4574820000000  0.4427030000000 1.0
C      1  0.4398590000000  0.4958270000000  0.4466710000000 1.0
C      1  0.5053470000000  0.5105210000000  0.4841660000000 1.0
C      1  0.4829410000000  0.4428370000000  0.5507530000000 1.0
C      1  0.5183830000000  0.4354610000000  0.5174200000000 1.0
C      1  0.5861370000000  0.5053410000000  0.5067780000000 1.0
C      1  0.4928060000000  0.4563260000000  0.4821100000000 1.0
C      1  0.5092450000000  0.4964590000000  0.4579000000000 1.0
C      1  0.5741250000000  0.4812100000000  0.5128710000000 1.0
C      1  0.5611680000000  0.5158380000000  0.5013220000000 1.0
C      1  0.4762570000000  0.4760170000000  0.5003750000000 1.0
C      1  0.5343760000000  0.5094720000000  0.4478810000000 1.0
C      1  0.4480680000000  0.5451570000000  0.5020290000000 1.0
C      1  0.5234280000000  0.5110560000000  0.5571480000000 1.0
C      1  0.4470360000000  0.5057410000000  0.4721030000000 1.0
C      1  0.5448980000000  0.4745240000000  0.4734860000000 1.0
C      1  0.4664110000000  0.5075800000000  0.5783130000000 1.0
C      1  0.5440490000000  0.4427210000000  0.5099090000000 1.0
C      1  0.4871320000000  0.5729510000000  0.5074190000000 1.0
C      1  0.5069880000000  0.5462550000000  0.4335550000000 1.0
C      1  0.4753180000000  0.5256350000000  0.5590500000000 1.0
C      1  0.5564560000000  0.4975690000000  0.4610070000000 1.0
C      1  0.5405800000000  0.5280040000000  0.5433960000000 1.0
C      1  0.4587410000000  0.5226000000000  0.5181640000000 1.0
C      1  0.4870080000000  0.5027010000000  0.4374330000000 1.0
C      1  0.5266400000000  0.4599850000000  0.5586920000000 1.0
C      1  0.5251060000000  0.5502750000000  0.5029530000000 1.0
END
