TITL C-951341-1326-479 -6.85577069236286e-07 125000 -264.141150772383 0 0 44 (C1) n - 1
REM
REM in /home/bkarasulu/work/CARBON/AIRSS/Generating-Clusters/EDIP-Nigel-Params/with-SteepDescent/Only-C1/SD-CG/HFTN-CG
REM
REM
REM
REM
REM
REM ./C.cell (11c1c37f851c82e70ff6c80c92926a4b)
REM
REM compiler GCC version 9.2.1 20190827 (Red Hat 9.2.1-1)
REM options -cpp -mtune=generic -march=x86-64 -g -O0 -fpre-include=/usr/include/finclude/math-vector-fortran.h
REM seed -411864563 -1215402757 -60167667 -1549519905 -1232645813 1609074318 -341909661 -942484326 -1843251152 967608490 1466273889 1547242655 -1442923323 950664709 1398748977 -97830535 -781434106 687979471 -884478042 1790041212 -694368317 -442547181 -736122001 -1031807000 -2094382143 -1325049883 973891220 -378603041 1838820340 1017098294 632950663 -1090594820 362973001
REM
CELL 1.54180   50.00000   50.00000   50.00000   90.00000   90.00000   90.00000
LATT -1
SFAC C  
C      1  0.5270420000000  0.4925010000000  0.5347630000000 1.0
C      1  0.4716830000000  0.4671040000000  0.5459210000000 1.0
C      1  0.5443060000000  0.4705360000000  0.5437270000000 1.0
C      1  0.5101620000000  0.5566520000000  0.4668630000000 1.0
C      1  0.4816190000000  0.4474140000000  0.5260900000000 1.0
C      1  0.4332960000000  0.5164390000000  0.5113130000000 1.0
C      1  0.5158310000000  0.4876770000000  0.4506860000000 1.0
C      1  0.5281810000000  0.5537740000000  0.5259030000000 1.0
C      1  0.4481370000000  0.5161560000000  0.5364690000000 1.0
C      1  0.4949250000000  0.4952400000000  0.4943860000000 1.0
C      1  0.4867480000000  0.5403290000000  0.5229390000000 1.0
C      1  0.5436150000000  0.4539660000000  0.5201260000000 1.0
C      1  0.5394210000000  0.5342430000000  0.4753810000000 1.0
C      1  0.4901350000000  0.5015580000000  0.5649180000000 1.0
C      1  0.4906500000000  0.4866960000000  0.4645180000000 1.0
C      1  0.4732230000000  0.5062190000000  0.4491320000000 1.0
C      1  0.4862680000000  0.5483390000000  0.4524080000000 1.0
C      1  0.4710800000000  0.4977800000000  0.5394790000000 1.0
C      1  0.5053160000000  0.5725670000000  0.4891870000000 1.0
C      1  0.5487120000000  0.4596780000000  0.4699960000000 1.0
C      1  0.5432470000000  0.5091310000000  0.5165100000000 1.0
C      1  0.4573200000000  0.5421580000000  0.5276120000000 1.0
C      1  0.4990080000000  0.5240540000000  0.4994970000000 1.0
C      1  0.5431720000000  0.4855340000000  0.4561150000000 1.0
C      1  0.5163940000000  0.5115210000000  0.5562800000000 1.0
C      1  0.4407380000000  0.4768620000000  0.4836790000000 1.0
C      1  0.5619150000000  0.4964060000000  0.4980150000000 1.0
C      1  0.4570360000000  0.4543720000000  0.4816510000000 1.0
C      1  0.4803140000000  0.4583800000000  0.4642330000000 1.0
C      1  0.4631950000000  0.4414210000000  0.5055360000000 1.0
C      1  0.5287070000000  0.5313650000000  0.5036160000000 1.0
C      1  0.5156460000000  0.5398680000000  0.5490830000000 1.0
C      1  0.4435170000000  0.5042710000000  0.4875910000000 1.0
C      1  0.5038110000000  0.4784540000000  0.5183210000000 1.0
C      1  0.5006580000000  0.4392620000000  0.4659800000000 1.0
C      1  0.5274630000000  0.4409970000000  0.4689800000000 1.0
C      1  0.4615600000000  0.5482140000000  0.4668000000000 1.0
C      1  0.5027680000000  0.5674770000000  0.5166070000000 1.0
C      1  0.5161220000000  0.4520900000000  0.5103300000000 1.0
C      1  0.4887230000000  0.4720870000000  0.5697780000000 1.0
C      1  0.4884510000000  0.5258710000000  0.4352130000000 1.0
C      1  0.5555200000000  0.5088310000000  0.4711530000000 1.0
C      1  0.5599700000000  0.4659100000000  0.4972170000000 1.0
C      1  0.4543950000000  0.5205960000000  0.4660010000000 1.0
END
