TITL C-950530-3293-163 -6.35906343315882e-07 125000 -466.910329568811 0 0 75 (C1) n - 1
REM
REM in /home/bkarasulu/work/CARBON/AIRSS/Generating-Clusters/EDIP-Nigel-Params/with-SteepDescent/Only-C1/SD-CG/HFTN-CG
REM
REM
REM
REM
REM
REM ./C.cell (11c1c37f851c82e70ff6c80c92926a4b)
REM
REM compiler GCC version 9.2.1 20190827 (Red Hat 9.2.1-1)
REM options -cpp -mtune=generic -march=x86-64 -g -O0 -fpre-include=/usr/include/finclude/math-vector-fortran.h
REM seed 936449142 -665874683 -923674856 1680890669 1322129339 353139147 419666773 -1798658826 -1337244895 950878678 -1988977932 1477929951 183741785 -1465147648 1152254073 -760899736 -445165421 -1580116870 -1274783445 1688801034 786627835 -768187625 806035990 617442592 -1055670718 -722052374 1378989893 286736893 -266870817 -1490513613 -1096394700 -247415217 -2104016212
REM
CELL 1.54180   50.00000   50.00000   50.00000   90.00000   90.00000   90.00000
LATT -1
SFAC C  
C      1  0.5039660000000  0.4576110000000  0.4425160000000 1.0
C      1  0.4352650000000  0.4713960000000  0.4862560000000 1.0
C      1  0.5223330000000  0.5022100000000  0.4808960000000 1.0
C      1  0.4866380000000  0.5314450000000  0.5043320000000 1.0
C      1  0.4605570000000  0.4453750000000  0.5249130000000 1.0
C      1  0.4570540000000  0.5152010000000  0.5545230000000 1.0
C      1  0.5001380000000  0.4370620000000  0.5525040000000 1.0
C      1  0.5424490000000  0.4414380000000  0.5041470000000 1.0
C      1  0.5655510000000  0.4958770000000  0.4344040000000 1.0
C      1  0.5352630000000  0.5497140000000  0.5426150000000 1.0
C      1  0.4273900000000  0.4918030000000  0.5060310000000 1.0
C      1  0.5288830000000  0.4317010000000  0.5456470000000 1.0
C      1  0.4261730000000  0.5321040000000  0.4753560000000 1.0
C      1  0.5397580000000  0.4889980000000  0.4271150000000 1.0
C      1  0.4910120000000  0.5718620000000  0.4670780000000 1.0
C      1  0.4608020000000  0.4554650000000  0.4951040000000 1.0
C      1  0.4860960000000  0.5531880000000  0.5525930000000 1.0
C      1  0.4942390000000  0.5039250000000  0.4251220000000 1.0
C      1  0.4822200000000  0.4257680000000  0.5310180000000 1.0
C      1  0.5365720000000  0.5495290000000  0.4724890000000 1.0
C      1  0.4647810000000  0.5602810000000  0.4604760000000 1.0
C      1  0.4564530000000  0.4739750000000  0.4395860000000 1.0
C      1  0.4419240000000  0.5569630000000  0.4790540000000 1.0
C      1  0.4226420000000  0.4847460000000  0.5328790000000 1.0
C      1  0.4691280000000  0.4359120000000  0.4728380000000 1.0
C      1  0.4862690000000  0.5227190000000  0.5523570000000 1.0
C      1  0.5735710000000  0.5015420000000  0.5167160000000 1.0
C      1  0.4660980000000  0.4674460000000  0.5443400000000 1.0
C      1  0.4942340000000  0.5298980000000  0.4419040000000 1.0
C      1  0.4967060000000  0.5185350000000  0.4757090000000 1.0
C      1  0.5724840000000  0.4756150000000  0.5032980000000 1.0
C      1  0.5354440000000  0.4842390000000  0.5478750000000 1.0
C      1  0.5513700000000  0.5270520000000  0.5693190000000 1.0
C      1  0.4601470000000  0.5630140000000  0.5435760000000 1.0
C      1  0.5816560000000  0.5019440000000  0.5435520000000 1.0
C      1  0.4974000000000  0.5137950000000  0.5257590000000 1.0
C      1  0.5601620000000  0.5240210000000  0.5039330000000 1.0
C      1  0.4938740000000  0.5823880000000  0.4930710000000 1.0
C      1  0.5421520000000  0.5655180000000  0.4954740000000 1.0
C      1  0.5577720000000  0.5021120000000  0.5580030000000 1.0
C      1  0.4465060000000  0.5147610000000  0.5016780000000 1.0
C      1  0.5089130000000  0.5637360000000  0.5368740000000 1.0
C      1  0.4687280000000  0.4922060000000  0.4220320000000 1.0
C      1  0.5762780000000  0.4775610000000  0.4537510000000 1.0
C      1  0.4910010000000  0.4641130000000  0.5603150000000 1.0
C      1  0.4446030000000  0.5634530000000  0.5080120000000 1.0
C      1  0.5601900000000  0.4717080000000  0.4765110000000 1.0
C      1  0.5152210000000  0.4455270000000  0.4675240000000 1.0
C      1  0.5036750000000  0.5123750000000  0.5742770000000 1.0
C      1  0.5282240000000  0.4201880000000  0.5175370000000 1.0
C      1  0.5124120000000  0.5544230000000  0.4554640000000 1.0
C      1  0.5134440000000  0.4843720000000  0.4341930000000 1.0
C      1  0.4390270000000  0.4855560000000  0.4598130000000 1.0
C      1  0.4342230000000  0.5383340000000  0.5183650000000 1.0
C      1  0.5000870000000  0.4168660000000  0.5082000000000 1.0
C      1  0.5480320000000  0.4561470000000  0.5457210000000 1.0
C      1  0.5127060000000  0.4841100000000  0.5683570000000 1.0
C      1  0.4825910000000  0.4763230000000  0.4951710000000 1.0
C      1  0.5520770000000  0.5492470000000  0.5169270000000 1.0
C      1  0.4299000000000  0.5132770000000  0.4534570000000 1.0
C      1  0.5134240000000  0.4732950000000  0.4946440000000 1.0
C      1  0.4448310000000  0.5257650000000  0.4332080000000 1.0
C      1  0.4421670000000  0.5396690000000  0.5463880000000 1.0
C      1  0.5674120000000  0.5154770000000  0.4558120000000 1.0
C      1  0.4746250000000  0.4521570000000  0.4473110000000 1.0
C      1  0.4672070000000  0.5421400000000  0.4380410000000 1.0
C      1  0.5437890000000  0.4472720000000  0.4764010000000 1.0
C      1  0.4720240000000  0.5013520000000  0.4839170000000 1.0
C      1  0.4959900000000  0.4249730000000  0.4792370000000 1.0
C      1  0.5631920000000  0.4529280000000  0.5199800000000 1.0
C      1  0.5209990000000  0.4950420000000  0.5195820000000 1.0
C      1  0.5249330000000  0.5321560000000  0.5759120000000 1.0
C      1  0.5002900000000  0.5592970000000  0.5085330000000 1.0
C      1  0.4472810000000  0.4890340000000  0.5455550000000 1.0
C      1  0.5473720000000  0.5217710000000  0.4769240000000 1.0
END
