TITL C-951334-9093-589 1.94518044591647e-06 125000 -484.584018043103 0 0 79 (C1) n - 1
REM
REM in /home/bkarasulu/work/CARBON/AIRSS/Generating-Clusters/EDIP-Nigel-Params/with-SteepDescent/Only-C1/SD-CG/HFTN-CG
REM
REM
REM
REM
REM
REM ./C.cell (11c1c37f851c82e70ff6c80c92926a4b)
REM
REM compiler GCC version 9.2.1 20190827 (Red Hat 9.2.1-1)
REM options -cpp -mtune=generic -march=x86-64 -g -O0 -fpre-include=/usr/include/finclude/math-vector-fortran.h
REM seed -666407235 -332588491 2044423960 925082556 -1834577555 1504168245 -1931190978 -1557415685 -1605605646 -1084016234 -1408098067 1206223561 -1076933989 -1664880236 -681869816 559686861 894300909 1424951617 1392752713 1163536054 -172802155 814985407 546173871 -891921769 -677137577 142055807 -458002134 2085091662 -588149830 -46850550 -1369910230 798131594 928129220
REM
CELL 1.54180   50.00000   50.00000   50.00000   90.00000   90.00000   90.00000
LATT -1
SFAC C  
C      1  0.5598860000000  0.5491280000000  0.5360580000000 1.0
C      1  0.4254590000000  0.4691570000000  0.4991910000000 1.0
C      1  0.4572050000000  0.5336280000000  0.4759790000000 1.0
C      1  0.4776670000000  0.5267960000000  0.5208430000000 1.0
C      1  0.4507140000000  0.4606470000000  0.4583440000000 1.0
C      1  0.5128920000000  0.4475570000000  0.5078170000000 1.0
C      1  0.4419240000000  0.4882050000000  0.4598150000000 1.0
C      1  0.5566000000000  0.5234450000000  0.5531780000000 1.0
C      1  0.5365890000000  0.5062630000000  0.5378060000000 1.0
C      1  0.4541640000000  0.5075120000000  0.4409670000000 1.0
C      1  0.4288730000000  0.5161550000000  0.5050020000000 1.0
C      1  0.5435060000000  0.5559110000000  0.4627810000000 1.0
C      1  0.5174230000000  0.5400090000000  0.5427810000000 1.0
C      1  0.4718330000000  0.5138700000000  0.4943480000000 1.0
C      1  0.4254310000000  0.4942090000000  0.4843210000000 1.0
C      1  0.4759890000000  0.5713440000000  0.4889740000000 1.0
C      1  0.5364590000000  0.5624640000000  0.5449770000000 1.0
C      1  0.5291330000000  0.4415540000000  0.4837640000000 1.0
C      1  0.5414110000000  0.5090420000000  0.5088380000000 1.0
C      1  0.5139390000000  0.4491990000000  0.5573490000000 1.0
C      1  0.4435630000000  0.4241650000000  0.4981080000000 1.0
C      1  0.5467050000000  0.4734960000000  0.5397900000000 1.0
C      1  0.4512190000000  0.5074030000000  0.5549400000000 1.0
C      1  0.5653890000000  0.5360400000000  0.4582640000000 1.0
C      1  0.4389580000000  0.4596860000000  0.5516200000000 1.0
C      1  0.5475430000000  0.5692130000000  0.4893350000000 1.0
C      1  0.4578930000000  0.5571130000000  0.4430490000000 1.0
C      1  0.4915420000000  0.4651720000000  0.4202960000000 1.0
C      1  0.5006850000000  0.4755160000000  0.5073650000000 1.0
C      1  0.5535340000000  0.5072530000000  0.4545420000000 1.0
C      1  0.4617740000000  0.4400560000000  0.5441590000000 1.0
C      1  0.4851570000000  0.4579530000000  0.5523640000000 1.0
C      1  0.4599630000000  0.5460610000000  0.5361990000000 1.0
C      1  0.4291720000000  0.5047480000000  0.5331400000000 1.0
C      1  0.5133810000000  0.5214150000000  0.5824770000000 1.0
C      1  0.5160950000000  0.4299300000000  0.4405930000000 1.0
C      1  0.5242100000000  0.4815550000000  0.4455010000000 1.0
C      1  0.5795950000000  0.5361310000000  0.4847690000000 1.0
C      1  0.5191310000000  0.5251030000000  0.4193820000000 1.0
C      1  0.4512060000000  0.5655210000000  0.5053500000000 1.0
C      1  0.5376160000000  0.5036010000000  0.4272240000000 1.0
C      1  0.4497640000000  0.4815350000000  0.5712500000000 1.0
C      1  0.5218850000000  0.5353230000000  0.4664840000000 1.0
C      1  0.4426280000000  0.5337480000000  0.4401280000000 1.0
C      1  0.5688980000000  0.4753770000000  0.5184490000000 1.0
C      1  0.5234780000000  0.5806640000000  0.4978280000000 1.0
C      1  0.4986110000000  0.4899140000000  0.4609260000000 1.0
C      1  0.4343700000000  0.5445700000000  0.4930630000000 1.0
C      1  0.4917660000000  0.4148670000000  0.4798200000000 1.0
C      1  0.4805700000000  0.5627020000000  0.4595220000000 1.0
C      1  0.5036800000000  0.5405170000000  0.5158670000000 1.0
C      1  0.5155010000000  0.4227880000000  0.4673390000000 1.0
C      1  0.5872780000000  0.5081930000000  0.4902880000000 1.0
C      1  0.5782230000000  0.5022350000000  0.5169830000000 1.0
C      1  0.5180620000000  0.5217330000000  0.4946730000000 1.0
C      1  0.4702680000000  0.4566220000000  0.4379240000000 1.0
C      1  0.5298320000000  0.4468950000000  0.5327820000000 1.0
C      1  0.4976730000000  0.5414140000000  0.5668990000000 1.0
C      1  0.4846490000000  0.4783160000000  0.5304450000000 1.0
C      1  0.5017520000000  0.5345360000000  0.4432350000000 1.0
C      1  0.4395220000000  0.4484950000000  0.4837840000000 1.0
C      1  0.5620040000000  0.4702550000000  0.4905120000000 1.0
C      1  0.4913810000000  0.4262990000000  0.5055720000000 1.0
C      1  0.4681320000000  0.5406070000000  0.5638120000000 1.0
C      1  0.5413920000000  0.5256710000000  0.5776160000000 1.0
C      1  0.5568600000000  0.4441730000000  0.4822700000000 1.0
C      1  0.5608640000000  0.5482340000000  0.5053230000000 1.0
C      1  0.4977090000000  0.4991170000000  0.4887650000000 1.0
C      1  0.5264140000000  0.4749410000000  0.5670630000000 1.0
C      1  0.4646940000000  0.4313050000000  0.5157630000000 1.0
C      1  0.5727290000000  0.4898020000000  0.4713340000000 1.0
C      1  0.5037670000000  0.4949470000000  0.5711940000000 1.0
C      1  0.4851170000000  0.5073940000000  0.4416120000000 1.0
C      1  0.4277570000000  0.4756520000000  0.5283810000000 1.0
C      1  0.4955500000000  0.4944870000000  0.4170730000000 1.0
C      1  0.4779980000000  0.4746770000000  0.5774660000000 1.0
C      1  0.5179800000000  0.4552920000000  0.4286970000000 1.0
C      1  0.4997430000000  0.5689250000000  0.5064680000000 1.0
C      1  0.4800720000000  0.5045480000000  0.5417910000000 1.0
END
