TITL C-951335-1172-353 4.40088445762896e-07 125000 -340.601655431803 0 0 55 (C1) n - 1
REM
REM in /home/bkarasulu/work/CARBON/AIRSS/Generating-Clusters/EDIP-Nigel-Params/with-SteepDescent/Only-C1/SD-CG/HFTN-CG
REM
REM
REM
REM
REM
REM ./C.cell (11c1c37f851c82e70ff6c80c92926a4b)
REM
REM compiler GCC version 9.2.1 20190827 (Red Hat 9.2.1-1)
REM options -cpp -mtune=generic -march=x86-64 -g -O0 -fpre-include=/usr/include/finclude/math-vector-fortran.h
REM seed -1698325085 1837166934 994128070 1240150556 1135438757 584299254 1013072246 -1834275021 -2105194793 -417258456 -1694807282 1306206081 809486937 -165044287 1093177185 695787343 474656860 804782698 -1740340131 1357319966 -1986021800 -945751099 1334655418 1818411216 -1072435995 1748381602 -1475745080 -1961588227 -1125711346 -39928800 1294060969 598964424 -1000272347
REM
CELL 1.54180   50.00000   50.00000   50.00000   90.00000   90.00000   90.00000
LATT -1
SFAC C  
C      1  0.4920610000000  0.5127110000000  0.5733110000000 1.0
C      1  0.5391080000000  0.4489480000000  0.4752690000000 1.0
C      1  0.4461520000000  0.4515130000000  0.4774610000000 1.0
C      1  0.5580970000000  0.4955350000000  0.5209170000000 1.0
C      1  0.5618520000000  0.5236350000000  0.4799430000000 1.0
C      1  0.4283360000000  0.4929660000000  0.5067530000000 1.0
C      1  0.5167030000000  0.5412040000000  0.5417600000000 1.0
C      1  0.5347800000000  0.5624760000000  0.4562240000000 1.0
C      1  0.4539130000000  0.5103560000000  0.5410560000000 1.0
C      1  0.5760720000000  0.4727290000000  0.4836370000000 1.0
C      1  0.5398550000000  0.5359450000000  0.5239130000000 1.0
C      1  0.5453800000000  0.4907780000000  0.4462250000000 1.0
C      1  0.5165380000000  0.5081190000000  0.4852540000000 1.0
C      1  0.4667730000000  0.4291240000000  0.5154100000000 1.0
C      1  0.5556440000000  0.5172400000000  0.5382160000000 1.0
C      1  0.5575540000000  0.5188870000000  0.4503530000000 1.0
C      1  0.4689780000000  0.5531800000000  0.5491580000000 1.0
C      1  0.4857270000000  0.4762830000000  0.5475450000000 1.0
C      1  0.5112630000000  0.4531640000000  0.4692020000000 1.0
C      1  0.4861690000000  0.4686660000000  0.4313200000000 1.0
C      1  0.5105800000000  0.4709610000000  0.4458580000000 1.0
C      1  0.4654760000000  0.5268550000000  0.5647500000000 1.0
C      1  0.4491890000000  0.4990240000000  0.4865900000000 1.0
C      1  0.5077800000000  0.4881330000000  0.5034700000000 1.0
C      1  0.4473490000000  0.4462870000000  0.5052060000000 1.0
C      1  0.4559470000000  0.4802110000000  0.5437460000000 1.0
C      1  0.5132820000000  0.5135850000000  0.5514370000000 1.0
C      1  0.4978200000000  0.4982420000000  0.5295600000000 1.0
C      1  0.4472410000000  0.5579550000000  0.5314550000000 1.0
C      1  0.5541690000000  0.4670300000000  0.5267140000000 1.0
C      1  0.4770760000000  0.5191510000000  0.5217070000000 1.0
C      1  0.5247000000000  0.5573100000000  0.4816680000000 1.0
C      1  0.4900820000000  0.4842050000000  0.5755860000000 1.0
C      1  0.5098400000000  0.5228130000000  0.4378640000000 1.0
C      1  0.4813280000000  0.5311390000000  0.4465460000000 1.0
C      1  0.5362940000000  0.5390490000000  0.4404430000000 1.0
C      1  0.4640610000000  0.4746430000000  0.4754870000000 1.0
C      1  0.5351260000000  0.5316010000000  0.4934210000000 1.0
C      1  0.5647180000000  0.4535660000000  0.5034400000000 1.0
C      1  0.5022510000000  0.4519230000000  0.5387650000000 1.0
C      1  0.4380070000000  0.5411700000000  0.5105450000000 1.0
C      1  0.5575250000000  0.4671690000000  0.4616330000000 1.0
C      1  0.5726620000000  0.5000260000000  0.4959500000000 1.0
C      1  0.5301710000000  0.4571170000000  0.5377660000000 1.0
C      1  0.4675920000000  0.4820680000000  0.4467130000000 1.0
C      1  0.4935700000000  0.4647580000000  0.4910430000000 1.0
C      1  0.4776930000000  0.5411790000000  0.4744280000000 1.0
C      1  0.4909700000000  0.4431290000000  0.5129530000000 1.0
C      1  0.4279820000000  0.5170880000000  0.5251930000000 1.0
C      1  0.4901750000000  0.5461650000000  0.5294700000000 1.0
C      1  0.4970410000000  0.5593380000000  0.4831180000000 1.0
C      1  0.4608620000000  0.5254390000000  0.4952200000000 1.0
C      1  0.4389420000000  0.4692420000000  0.5219550000000 1.0
C      1  0.4643900000000  0.5092610000000  0.4415220000000 1.0
C      1  0.5171540000000  0.4997130000000  0.4558490000000 1.0
END
