TITL C-950529-3362-612 -2.62376147116406e-06 125000 -685.95098382202 0 0 111 (C1) n - 1
REM
REM in /home/bkarasulu/work/CARBON/AIRSS/Generating-Clusters/EDIP-Nigel-Params/with-SteepDescent/Only-C1/SD-CG/HFTN-CG
REM
REM
REM
REM
REM
REM ./C.cell (11c1c37f851c82e70ff6c80c92926a4b)
REM
REM compiler GCC version 9.2.1 20190827 (Red Hat 9.2.1-1)
REM options -cpp -mtune=generic -march=x86-64 -g -O0 -fpre-include=/usr/include/finclude/math-vector-fortran.h
REM seed 2054014882 -963539147 468625051 -1218389692 1503442871 -62502979 -744037665 1313380296 -308744773 1911083251 979078619 -213290039 2045151658 1057372542 -550913665 -875491432 2127740953 -2068605193 -1040527126 -2123525833 -1749951964 646704247 150990650 -1204511005 -2000326816 1669039889 282559099 1704934509 -1190440242 383932902 1839935924 620094285 1693008392
REM
CELL 1.54180   50.00000   50.00000   50.00000   90.00000   90.00000   90.00000
LATT -1
SFAC C  
C      1  0.4578150000000  0.5391310000000  0.5096780000000 1.0
C      1  0.5408380000000  0.5794090000000  0.5373480000000 1.0
C      1  0.5481590000000  0.4451990000000  0.4942660000000 1.0
C      1  0.5695210000000  0.4539160000000  0.4727750000000 1.0
C      1  0.5360860000000  0.4615990000000  0.5707530000000 1.0
C      1  0.4601950000000  0.4177550000000  0.4762800000000 1.0
C      1  0.5300650000000  0.4958210000000  0.4609830000000 1.0
C      1  0.4814840000000  0.5482400000000  0.4919630000000 1.0
C      1  0.4265470000000  0.4452670000000  0.5430640000000 1.0
C      1  0.5789020000000  0.5122930000000  0.5325450000000 1.0
C      1  0.5684210000000  0.4524980000000  0.5327550000000 1.0
C      1  0.5566520000000  0.4706380000000  0.5534500000000 1.0
C      1  0.5637790000000  0.4997340000000  0.5556430000000 1.0
C      1  0.5086300000000  0.4582980000000  0.5761140000000 1.0
C      1  0.4106280000000  0.4856540000000  0.4823560000000 1.0
C      1  0.4907370000000  0.4627270000000  0.4706900000000 1.0
C      1  0.4271240000000  0.4832910000000  0.4590180000000 1.0
C      1  0.5312440000000  0.5826450000000  0.5093230000000 1.0
C      1  0.5800590000000  0.5461250000000  0.4661310000000 1.0
C      1  0.5019420000000  0.5949500000000  0.5037560000000 1.0
C      1  0.5081270000000  0.4953890000000  0.5414380000000 1.0
C      1  0.5016370000000  0.5078200000000  0.4993540000000 1.0
C      1  0.5453730000000  0.5243520000000  0.4950280000000 1.0
C      1  0.4675870000000  0.4333040000000  0.5635340000000 1.0
C      1  0.4402600000000  0.4585260000000  0.4526460000000 1.0
C      1  0.5194200000000  0.5400590000000  0.4194910000000 1.0
C      1  0.4619250000000  0.4832310000000  0.5682660000000 1.0
C      1  0.4924680000000  0.4828070000000  0.5791490000000 1.0
C      1  0.4672140000000  0.4631410000000  0.4912220000000 1.0
C      1  0.5114360000000  0.4124010000000  0.4803730000000 1.0
C      1  0.4204470000000  0.5098920000000  0.5444880000000 1.0
C      1  0.5210090000000  0.5263190000000  0.5108460000000 1.0
C      1  0.5495720000000  0.4397820000000  0.4510370000000 1.0
C      1  0.4249630000000  0.5353560000000  0.4805950000000 1.0
C      1  0.5340920000000  0.4811230000000  0.4188850000000 1.0
C      1  0.5435620000000  0.5787400000000  0.4601970000000 1.0
C      1  0.5050270000000  0.5636100000000  0.4316370000000 1.0
C      1  0.5276430000000  0.5163210000000  0.5359470000000 1.0
C      1  0.4854110000000  0.4989960000000  0.5209700000000 1.0
C      1  0.4914240000000  0.5314960000000  0.5818250000000 1.0
C      1  0.5534510000000  0.4267690000000  0.5265610000000 1.0
C      1  0.5460350000000  0.4942390000000  0.4868100000000 1.0
C      1  0.4986660000000  0.5655880000000  0.5405610000000 1.0
C      1  0.5733050000000  0.4831070000000  0.4785450000000 1.0
C      1  0.5474710000000  0.5155140000000  0.5753760000000 1.0
C      1  0.4691040000000  0.5230610000000  0.5967210000000 1.0
C      1  0.4716730000000  0.5293280000000  0.4189270000000 1.0
C      1  0.4880330000000  0.4201930000000  0.4316450000000 1.0
C      1  0.5206360000000  0.4650710000000  0.4633800000000 1.0
C      1  0.5256750000000  0.4151520000000  0.5309450000000 1.0
C      1  0.4361580000000  0.5273750000000  0.5626610000000 1.0
C      1  0.5139910000000  0.5758870000000  0.4570960000000 1.0
C      1  0.4247440000000  0.4509180000000  0.5711310000000 1.0
C      1  0.4223970000000  0.4689830000000  0.5270450000000 1.0
C      1  0.4066490000000  0.5182010000000  0.5214290000000 1.0
C      1  0.4773280000000  0.4085430000000  0.4984570000000 1.0
C      1  0.5910710000000  0.4930970000000  0.5164480000000 1.0
C      1  0.4972320000000  0.4377930000000  0.5580830000000 1.0
C      1  0.5613550000000  0.5567040000000  0.4455310000000 1.0
C      1  0.5077170000000  0.4914580000000  0.4081520000000 1.0
C      1  0.4671700000000  0.5790980000000  0.4738840000000 1.0
C      1  0.5897580000000  0.5206920000000  0.4603660000000 1.0
C      1  0.5063780000000  0.5524320000000  0.5115620000000 1.0
C      1  0.5052800000000  0.4128480000000  0.5081560000000 1.0
C      1  0.4721330000000  0.4566330000000  0.5209270000000 1.0
C      1  0.4330660000000  0.5545270000000  0.5006680000000 1.0
C      1  0.4988480000000  0.4502040000000  0.5311380000000 1.0
C      1  0.4942450000000  0.5875210000000  0.4760520000000 1.0
C      1  0.4820850000000  0.4821460000000  0.4508770000000 1.0
C      1  0.5096040000000  0.5080870000000  0.5780040000000 1.0
C      1  0.5735150000000  0.5574220000000  0.4931100000000 1.0
C      1  0.4548150000000  0.4378390000000  0.5368390000000 1.0
C      1  0.5520800000000  0.5775950000000  0.4885730000000 1.0
C      1  0.5460100000000  0.5327600000000  0.4312770000000 1.0
C      1  0.4459110000000  0.4452100000000  0.4793150000000 1.0
C      1  0.4763190000000  0.5564750000000  0.4304270000000 1.0
C      1  0.4188370000000  0.4629040000000  0.4988360000000 1.0
C      1  0.5702620000000  0.5396800000000  0.5206110000000 1.0
C      1  0.4415790000000  0.4907200000000  0.5378870000000 1.0
C      1  0.5842300000000  0.4666630000000  0.5123390000000 1.0
C      1  0.5368630000000  0.5351230000000  0.5563550000000 1.0
C      1  0.5499470000000  0.5012930000000  0.4379370000000 1.0
C      1  0.5358450000000  0.4251930000000  0.4746550000000 1.0
C      1  0.5275980000000  0.4552850000000  0.4343490000000 1.0
C      1  0.4997170000000  0.5182340000000  0.4179180000000 1.0
C      1  0.5072590000000  0.4374690000000  0.4241140000000 1.0
C      1  0.5138530000000  0.5223430000000  0.4594690000000 1.0
C      1  0.4894280000000  0.5218100000000  0.4767770000000 1.0
C      1  0.4858570000000  0.4729190000000  0.4076980000000 1.0
C      1  0.5361770000000  0.5403770000000  0.4703130000000 1.0
C      1  0.4828450000000  0.5468720000000  0.5581520000000 1.0
C      1  0.5143340000000  0.4140120000000  0.5571260000000 1.0
C      1  0.4675730000000  0.5040720000000  0.4646420000000 1.0
C      1  0.4520380000000  0.4555030000000  0.5776110000000 1.0
C      1  0.4518820000000  0.5709030000000  0.5305270000000 1.0
C      1  0.4572720000000  0.5053910000000  0.5145390000000 1.0
C      1  0.5330580000000  0.4708780000000  0.5032040000000 1.0
C      1  0.5773290000000  0.4972810000000  0.4522340000000 1.0
C      1  0.4547760000000  0.5494920000000  0.5521400000000 1.0
C      1  0.4708350000000  0.4127780000000  0.4508450000000 1.0
C      1  0.4413050000000  0.5381490000000  0.4560660000000 1.0
C      1  0.4798430000000  0.5850370000000  0.5267100000000 1.0
C      1  0.4150380000000  0.5120300000000  0.4952150000000 1.0
C      1  0.5216500000000  0.4697870000000  0.5324670000000 1.0
C      1  0.4679080000000  0.4689500000000  0.4292580000000 1.0
C      1  0.4500870000000  0.5086580000000  0.5818830000000 1.0
C      1  0.4488110000000  0.5188400000000  0.4354090000000 1.0
C      1  0.5558290000000  0.5543910000000  0.5431520000000 1.0
C      1  0.4529840000000  0.4902400000000  0.4875240000000 1.0
C      1  0.5191740000000  0.5809590000000  0.5550080000000 1.0
C      1  0.4606460000000  0.5594380000000  0.4545280000000 1.0
END
