TITL C-951341-1326-589 3.63433401282622e-07 125000 -533.641009585378 0 0 87 (C1) n - 1
REM
REM in /home/bkarasulu/work/CARBON/AIRSS/Generating-Clusters/EDIP-Nigel-Params/with-SteepDescent/Only-C1/SD-CG/HFTN-CG
REM
REM
REM
REM
REM
REM ./C.cell (11c1c37f851c82e70ff6c80c92926a4b)
REM
REM compiler GCC version 9.2.1 20190827 (Red Hat 9.2.1-1)
REM options -cpp -mtune=generic -march=x86-64 -g -O0 -fpre-include=/usr/include/finclude/math-vector-fortran.h
REM seed -1944136151 1807300428 490046146 1737337554 -882474307 -86416742 -1602431470 -1154240715 -1058075063 -1677528140 126621391 400517423 -906680899 -903676886 -413411002 -1254604761 -1666342801 937597467 2082321855 -140540863 1893832779 1215666237 -693717473 -74103446 -868471213 -792019576 -30766364 -868708801 1495553537 1384282856 180444701 -531473328 -893675548
REM
CELL 1.54180   50.00000   50.00000   50.00000   90.00000   90.00000   90.00000
LATT -1
SFAC C  
C      1  0.5194350000000  0.4642650000000  0.5833580000000 1.0
C      1  0.4794030000000  0.5471850000000  0.5495520000000 1.0
C      1  0.5774890000000  0.4847660000000  0.5271340000000 1.0
C      1  0.5251220000000  0.4143770000000  0.4872870000000 1.0
C      1  0.4703060000000  0.4266660000000  0.4887460000000 1.0
C      1  0.4472490000000  0.4524910000000  0.4608420000000 1.0
C      1  0.5146080000000  0.5701730000000  0.5297010000000 1.0
C      1  0.5061050000000  0.4691890000000  0.4781120000000 1.0
C      1  0.4861720000000  0.5194870000000  0.4208420000000 1.0
C      1  0.5416420000000  0.4337030000000  0.4472250000000 1.0
C      1  0.5164390000000  0.5111160000000  0.5746360000000 1.0
C      1  0.5661810000000  0.4464380000000  0.4530870000000 1.0
C      1  0.4902500000000  0.4223230000000  0.5316100000000 1.0
C      1  0.5671770000000  0.4757360000000  0.4523590000000 1.0
C      1  0.4584040000000  0.4599790000000  0.5230220000000 1.0
C      1  0.4669570000000  0.4308230000000  0.5181780000000 1.0
C      1  0.5755070000000  0.4546590000000  0.5254230000000 1.0
C      1  0.4423730000000  0.5038520000000  0.4309200000000 1.0
C      1  0.5501070000000  0.5416360000000  0.4928130000000 1.0
C      1  0.5474140000000  0.5327170000000  0.4661100000000 1.0
C      1  0.5433580000000  0.5714850000000  0.5251570000000 1.0
C      1  0.4883250000000  0.5022720000000  0.5671670000000 1.0
C      1  0.4669230000000  0.4645170000000  0.5722910000000 1.0
C      1  0.4475070000000  0.5002710000000  0.5461810000000 1.0
C      1  0.4700940000000  0.4999570000000  0.4374420000000 1.0
C      1  0.4307030000000  0.5281060000000  0.4286880000000 1.0
C      1  0.5832120000000  0.5418520000000  0.5284200000000 1.0
C      1  0.5054370000000  0.4664620000000  0.5336300000000 1.0
C      1  0.5573570000000  0.4500460000000  0.5488860000000 1.0
C      1  0.4090260000000  0.5127140000000  0.4937750000000 1.0
C      1  0.4624820000000  0.5406880000000  0.5044900000000 1.0
C      1  0.5627020000000  0.4443210000000  0.5012090000000 1.0
C      1  0.4974080000000  0.4384040000000  0.4747700000000 1.0
C      1  0.5343740000000  0.5013250000000  0.5059670000000 1.0
C      1  0.4354870000000  0.4764770000000  0.4698300000000 1.0
C      1  0.5744560000000  0.5298060000000  0.5048120000000 1.0
C      1  0.4702040000000  0.4892330000000  0.5871730000000 1.0
C      1  0.4855950000000  0.4856400000000  0.4892360000000 1.0
C      1  0.5060110000000  0.5457080000000  0.4881130000000 1.0
C      1  0.5124260000000  0.4384710000000  0.5294800000000 1.0
C      1  0.4346520000000  0.5421520000000  0.5186750000000 1.0
C      1  0.5284320000000  0.4896970000000  0.4784620000000 1.0
C      1  0.5007890000000  0.5280720000000  0.4633340000000 1.0
C      1  0.4343810000000  0.5654730000000  0.5360500000000 1.0
C      1  0.4241000000000  0.5523200000000  0.4705700000000 1.0
C      1  0.4453150000000  0.4294800000000  0.4759830000000 1.0
C      1  0.5202250000000  0.5754940000000  0.4831980000000 1.0
C      1  0.5197280000000  0.4214760000000  0.4598740000000 1.0
C      1  0.5273460000000  0.5137500000000  0.4589850000000 1.0
C      1  0.4264970000000  0.5168200000000  0.5339050000000 1.0
C      1  0.5016700000000  0.4739210000000  0.4126430000000 1.0
C      1  0.4585510000000  0.5656870000000  0.5481560000000 1.0
C      1  0.5773280000000  0.4373080000000  0.4778270000000 1.0
C      1  0.4711650000000  0.5693660000000  0.4961530000000 1.0
C      1  0.4421090000000  0.5436880000000  0.4499620000000 1.0
C      1  0.4980760000000  0.4650850000000  0.5634540000000 1.0
C      1  0.5095760000000  0.5014820000000  0.4137730000000 1.0
C      1  0.5330690000000  0.5057580000000  0.4310460000000 1.0
C      1  0.4040830000000  0.5044350000000  0.5209280000000 1.0
C      1  0.4917910000000  0.5431980000000  0.4384960000000 1.0
C      1  0.5727620000000  0.4891370000000  0.4771530000000 1.0
C      1  0.5541240000000  0.4875210000000  0.4304490000000 1.0
C      1  0.5286090000000  0.4837810000000  0.5292760000000 1.0
C      1  0.5495500000000  0.4807030000000  0.5496920000000 1.0
C      1  0.5364860000000  0.4321080000000  0.5423380000000 1.0
C      1  0.4672760000000  0.5595080000000  0.4453720000000 1.0
C      1  0.5524480000000  0.5448980000000  0.5660940000000 1.0
C      1  0.5343570000000  0.4871640000000  0.5761450000000 1.0
C      1  0.4988770000000  0.5801640000000  0.5055270000000 1.0
C      1  0.4701570000000  0.4527760000000  0.4448470000000 1.0
C      1  0.5472320000000  0.5713650000000  0.4955620000000 1.0
C      1  0.4701750000000  0.5745210000000  0.4686660000000 1.0
C      1  0.4466730000000  0.4693770000000  0.5497990000000 1.0
C      1  0.4548700000000  0.5218240000000  0.4797400000000 1.0
C      1  0.5665110000000  0.5008100000000  0.5035880000000 1.0
C      1  0.5259500000000  0.5363260000000  0.5632560000000 1.0
C      1  0.4343580000000  0.5006490000000  0.4845430000000 1.0
C      1  0.4815450000000  0.4789500000000  0.5193210000000 1.0
C      1  0.5602600000000  0.5525580000000  0.5402500000000 1.0
C      1  0.4147440000000  0.5424330000000  0.4951260000000 1.0
C      1  0.5180450000000  0.5296500000000  0.5117740000000 1.0
C      1  0.4787100000000  0.4734080000000  0.4286450000000 1.0
C      1  0.5063280000000  0.5563020000000  0.5538940000000 1.0
C      1  0.4842740000000  0.5305080000000  0.5247970000000 1.0
C      1  0.4782820000000  0.5075660000000  0.4684520000000 1.0
C      1  0.5508730000000  0.4181600000000  0.4988810000000 1.0
C      1  0.4762110000000  0.5038310000000  0.5376670000000 1.0
END
