TITL C-950530-3293-643 5.63986319482713e-05 125000 -57.9199825300982 0 0 11 (C1) n - 1
REM
REM in /home/bkarasulu/work/CARBON/AIRSS/Generating-Clusters/EDIP-Nigel-Params/with-SteepDescent/Only-C1/SD-CG/HFTN-CG
REM
REM
REM
REM
REM
REM ./C.cell (11c1c37f851c82e70ff6c80c92926a4b)
REM
REM compiler GCC version 9.2.1 20190827 (Red Hat 9.2.1-1)
REM options -cpp -mtune=generic -march=x86-64 -g -O0 -fpre-include=/usr/include/finclude/math-vector-fortran.h
REM seed 1792027767 -1466123600 -1748981232 -1277610072 687109882 1828771450 666252399 1181512267 -851574007 1387840908 1055107520 1678249030 -1509065956 329342794 -838226161 1334136418 -1608683140 -140434602 898553036 -1254034676 650191515 -1338538169 913817457 -1966300088 1586577705 -1005605400 -290348421 -629988473 -916585226 1214751026 -190391334 -627002170 -1901752324
REM
CELL 1.54180   50.00000   50.00000   50.00000   90.00000   90.00000   90.00000
LATT -1
SFAC C  
C      1  0.4900050000000  0.4255330000000  0.4857240000000 1.0
C      1  0.4746820000000  0.5536770000000  0.4970950000000 1.0
C      1  0.5124700000000  0.5308600000000  0.4772000000000 1.0
C      1  0.5257880000000  0.4954440000000  0.5078430000000 1.0
C      1  0.5204850000000  0.4767430000000  0.5276380000000 1.0
C      1  0.4603430000000  0.5323040000000  0.5071880000000 1.0
C      1  0.5060060000000  0.5132840000000  0.4979280000000 1.0
C      1  0.4947250000000  0.5513170000000  0.4781440000000 1.0
C      1  0.5055280000000  0.4419940000000  0.4976680000000 1.0
C      1  0.4846510000000  0.5215570000000  0.5150630000000 1.0
C      1  0.5253170000000  0.4572860000000  0.5085100000000 1.0
END
