TITL C-951346-9544-184 -4.09222103392403e-07 125000 -273.716339866886 0 0 46 (C1) n - 1
REM
REM in /home/bkarasulu/work/CARBON/AIRSS/Generating-Clusters/EDIP-Nigel-Params/with-SteepDescent/Only-C1/SD-CG/HFTN-CG
REM
REM
REM
REM
REM
REM ./C.cell (11c1c37f851c82e70ff6c80c92926a4b)
REM
REM compiler GCC version 9.2.1 20190827 (Red Hat 9.2.1-1)
REM options -cpp -mtune=generic -march=x86-64 -g -O0 -fpre-include=/usr/include/finclude/math-vector-fortran.h
REM seed -406044711 -1295236250 1261491847 182741784 474457931 1493207225 -1641051267 -107077713 872828363 1337982843 1987747169 -2145059831 901919195 791303118 213270226 -1270410771 -523941970 -903523504 1670358625 1168573840 1660620479 714250236 -2115745867 1658441255 -311740308 799370209 -2118074697 463773899 1392770716 1370977754 -1503768195 825341018 1881052472
REM
CELL 1.54180   50.00000   50.00000   50.00000   90.00000   90.00000   90.00000
LATT -1
SFAC C  
C      1  0.4511220000000  0.5435870000000  0.4897110000000 1.0
C      1  0.5195860000000  0.5144320000000  0.4704620000000 1.0
C      1  0.5564790000000  0.4835290000000  0.5238790000000 1.0
C      1  0.5157240000000  0.4813820000000  0.5067010000000 1.0
C      1  0.4923410000000  0.5169350000000  0.4871080000000 1.0
C      1  0.5295580000000  0.4623850000000  0.4430290000000 1.0
C      1  0.4429820000000  0.5051370000000  0.5345440000000 1.0
C      1  0.4376730000000  0.4739530000000  0.5009030000000 1.0
C      1  0.5149230000000  0.4323250000000  0.4832800000000 1.0
C      1  0.5198250000000  0.5712060000000  0.5203200000000 1.0
C      1  0.4589250000000  0.4787800000000  0.5433030000000 1.0
C      1  0.4939850000000  0.4608810000000  0.4988410000000 1.0
C      1  0.4441620000000  0.4596720000000  0.5245780000000 1.0
C      1  0.5332890000000  0.5630410000000  0.4765560000000 1.0
C      1  0.4904900000000  0.5095120000000  0.4289430000000 1.0
C      1  0.5344130000000  0.4904160000000  0.4835140000000 1.0
C      1  0.5427100000000  0.5038190000000  0.5426680000000 1.0
C      1  0.4559710000000  0.5436350000000  0.5165390000000 1.0
C      1  0.5220290000000  0.4940370000000  0.5617200000000 1.0
C      1  0.5008620000000  0.5124690000000  0.5649720000000 1.0
C      1  0.4767760000000  0.5399230000000  0.4476460000000 1.0
C      1  0.4855860000000  0.5076360000000  0.5405830000000 1.0
C      1  0.4869690000000  0.4638130000000  0.5453710000000 1.0
C      1  0.5593420000000  0.4990840000000  0.4983250000000 1.0
C      1  0.5010480000000  0.5344220000000  0.4351860000000 1.0
C      1  0.5149090000000  0.5751070000000  0.4933340000000 1.0
C      1  0.4857710000000  0.4452830000000  0.5230100000000 1.0
C      1  0.4381920000000  0.5017070000000  0.5059550000000 1.0
C      1  0.5430730000000  0.4668110000000  0.4673650000000 1.0
C      1  0.5122080000000  0.4684200000000  0.5570560000000 1.0
C      1  0.5432810000000  0.4575240000000  0.5173640000000 1.0
C      1  0.4616670000000  0.4860140000000  0.4585340000000 1.0
C      1  0.4899990000000  0.5673870000000  0.4848280000000 1.0
C      1  0.5397220000000  0.4464620000000  0.4892900000000 1.0
C      1  0.5047480000000  0.5100510000000  0.5159010000000 1.0
C      1  0.4864680000000  0.4867630000000  0.4460290000000 1.0
C      1  0.5405220000000  0.5358950000000  0.4762180000000 1.0
C      1  0.4772750000000  0.5429520000000  0.4773300000000 1.0
C      1  0.5016770000000  0.4617160000000  0.4452460000000 1.0
C      1  0.4683400000000  0.4921220000000  0.4859490000000 1.0
C      1  0.4945370000000  0.4427570000000  0.4658140000000 1.0
C      1  0.4591340000000  0.4361090000000  0.5206970000000 1.0
C      1  0.5263450000000  0.5508070000000  0.5365190000000 1.0
C      1  0.5524130000000  0.5273530000000  0.5019900000000 1.0
C      1  0.4615400000000  0.5275330000000  0.5385990000000 1.0
C      1  0.5314100000000  0.5252160000000  0.5242880000000 1.0
END
