TITL C-950525-1983-428 -1.5453301814535e-06 125000 -583.609791984691 0 0 95 (C1) n - 1
REM
REM in /home/bkarasulu/work/CARBON/AIRSS/Generating-Clusters/EDIP-Nigel-Params/with-SteepDescent/Only-C1/SD-CG/HFTN-CG
REM
REM
REM
REM
REM
REM ./C.cell (11c1c37f851c82e70ff6c80c92926a4b)
REM
REM compiler GCC version 9.2.1 20190827 (Red Hat 9.2.1-1)
REM options -cpp -mtune=generic -march=x86-64 -g -O0 -fpre-include=/usr/include/finclude/math-vector-fortran.h
REM seed 1887616002 1181749252 6954986 -220096271 668493954 -1299950206 1186716222 409900543 -1522338020 1041716812 -1131502452 -507172908 -1824620728 -1978315324 145268641 -1132725173 -878216851 -714722079 -480881908 1161873762 437089449 -1428359060 1439449461 1074092884 546548520 414672661 -1242696847 1910388546 1078070102 1394497777 413515623 1688880334 -1481630474
REM
CELL 1.54180   50.00000   50.00000   50.00000   90.00000   90.00000   90.00000
LATT -1
SFAC C  
C      1  0.5177260000000  0.5303800000000  0.5141840000000 1.0
C      1  0.4847900000000  0.4537360000000  0.5586650000000 1.0
C      1  0.4491550000000  0.5241530000000  0.4201870000000 1.0
C      1  0.4441960000000  0.5635710000000  0.4639210000000 1.0
C      1  0.5535860000000  0.4881550000000  0.4534180000000 1.0
C      1  0.5529130000000  0.5180220000000  0.4551930000000 1.0
C      1  0.5032760000000  0.5757680000000  0.4999640000000 1.0
C      1  0.5293340000000  0.4562370000000  0.5736520000000 1.0
C      1  0.4963730000000  0.4922040000000  0.5817030000000 1.0
C      1  0.4349570000000  0.4711110000000  0.4348270000000 1.0
C      1  0.4480110000000  0.4765570000000  0.5681660000000 1.0
C      1  0.4897120000000  0.5054190000000  0.4804310000000 1.0
C      1  0.5396800000000  0.4390270000000  0.5537240000000 1.0
C      1  0.5438610000000  0.4945740000000  0.4963210000000 1.0
C      1  0.4654440000000  0.5441220000000  0.5025350000000 1.0
C      1  0.4890220000000  0.4602200000000  0.5143570000000 1.0
C      1  0.4905020000000  0.5180990000000  0.5928810000000 1.0
C      1  0.5337010000000  0.5739000000000  0.5007470000000 1.0
C      1  0.5833960000000  0.4930580000000  0.5234280000000 1.0
C      1  0.4494770000000  0.5474730000000  0.5461700000000 1.0
C      1  0.4684220000000  0.4828210000000  0.5105270000000 1.0
C      1  0.5302380000000  0.4464250000000  0.4392060000000 1.0
C      1  0.5641300000000  0.4802500000000  0.5440820000000 1.0
C      1  0.4933380000000  0.5744190000000  0.5289210000000 1.0
C      1  0.5491170000000  0.5614910000000  0.4779460000000 1.0
C      1  0.4740360000000  0.5141140000000  0.5144980000000 1.0
C      1  0.4720540000000  0.5570290000000  0.4567130000000 1.0
C      1  0.5145900000000  0.5334690000000  0.4223100000000 1.0
C      1  0.4629380000000  0.4192020000000  0.5002800000000 1.0
C      1  0.4241510000000  0.5157750000000  0.4312200000000 1.0
C      1  0.5036910000000  0.4674030000000  0.5393600000000 1.0
C      1  0.4698120000000  0.5299430000000  0.4423590000000 1.0
C      1  0.5419480000000  0.4731230000000  0.4311530000000 1.0
C      1  0.4898180000000  0.4706190000000  0.4442370000000 1.0
C      1  0.4392050000000  0.5006350000000  0.4721490000000 1.0
C      1  0.4788420000000  0.4320080000000  0.5203980000000 1.0
C      1  0.5079770000000  0.5298560000000  0.4823100000000 1.0
C      1  0.4665460000000  0.5096440000000  0.4630630000000 1.0
C      1  0.5902900000000  0.5210280000000  0.5227210000000 1.0
C      1  0.5237360000000  0.4826230000000  0.5815940000000 1.0
C      1  0.4930610000000  0.5448980000000  0.5544270000000 1.0
C      1  0.5660560000000  0.4462720000000  0.4788650000000 1.0
C      1  0.5333360000000  0.5633950000000  0.4536360000000 1.0
C      1  0.5088430000000  0.5378650000000  0.5802990000000 1.0
C      1  0.4970390000000  0.5551750000000  0.4178550000000 1.0
C      1  0.5208110000000  0.4269640000000  0.5340030000000 1.0
C      1  0.4367040000000  0.4464950000000  0.4967460000000 1.0
C      1  0.4635510000000  0.5274490000000  0.5898880000000 1.0
C      1  0.4271530000000  0.4552280000000  0.5262670000000 1.0
C      1  0.5448340000000  0.5017070000000  0.5779610000000 1.0
C      1  0.4480860000000  0.4565210000000  0.5471990000000 1.0
C      1  0.5327320000000  0.4873040000000  0.5385330000000 1.0
C      1  0.5737160000000  0.4741110000000  0.4701340000000 1.0
C      1  0.5091730000000  0.4589870000000  0.4914940000000 1.0
C      1  0.4885000000000  0.5532870000000  0.4841520000000 1.0
C      1  0.5727900000000  0.4927100000000  0.4941460000000 1.0
C      1  0.4235440000000  0.4931240000000  0.4478070000000 1.0
C      1  0.5197230000000  0.4293480000000  0.4840440000000 1.0
C      1  0.5548580000000  0.4457370000000  0.5088050000000 1.0
C      1  0.4449180000000  0.4773900000000  0.4930260000000 1.0
C      1  0.4862970000000  0.5057790000000  0.3947030000000 1.0
C      1  0.5270520000000  0.5699640000000  0.5482600000000 1.0
C      1  0.5349570000000  0.4226910000000  0.5089300000000 1.0
C      1  0.4251820000000  0.5095020000000  0.5165520000000 1.0
C      1  0.4390300000000  0.5201740000000  0.5403740000000 1.0
C      1  0.5631710000000  0.4502450000000  0.5391500000000 1.0
C      1  0.4399070000000  0.5483730000000  0.4879270000000 1.0
C      1  0.5280480000000  0.5345310000000  0.4491250000000 1.0
C      1  0.4158770000000  0.4816820000000  0.5185080000000 1.0
C      1  0.4992760000000  0.4439800000000  0.4384730000000 1.0
C      1  0.5416800000000  0.4338760000000  0.4640270000000 1.0
C      1  0.4892870000000  0.5732720000000  0.4381390000000 1.0
C      1  0.4626770000000  0.4290180000000  0.4738250000000 1.0
C      1  0.5600260000000  0.5328820000000  0.4805370000000 1.0
C      1  0.5336250000000  0.4682720000000  0.5067100000000 1.0
C      1  0.5123940000000  0.5823290000000  0.4512600000000 1.0
C      1  0.5854950000000  0.5268270000000  0.4947570000000 1.0
C      1  0.4948180000000  0.4158800000000  0.5377080000000 1.0
C      1  0.4258410000000  0.5221410000000  0.4890810000000 1.0
C      1  0.5347510000000  0.5547640000000  0.5231360000000 1.0
C      1  0.5009790000000  0.4794840000000  0.4702800000000 1.0
C      1  0.4607050000000  0.5006080000000  0.4051570000000 1.0
C      1  0.5108360000000  0.5092530000000  0.4072940000000 1.0
C      1  0.4667060000000  0.5472970000000  0.5695090000000 1.0
C      1  0.4850670000000  0.4276490000000  0.4570500000000 1.0
C      1  0.5368620000000  0.5105270000000  0.5191010000000 1.0
C      1  0.5368160000000  0.5302210000000  0.5754490000000 1.0
C      1  0.5698630000000  0.4903550000000  0.5710730000000 1.0
C      1  0.4648400000000  0.5626650000000  0.5252740000000 1.0
C      1  0.4392370000000  0.5026280000000  0.5621920000000 1.0
C      1  0.4962350000000  0.5225660000000  0.5330610000000 1.0
C      1  0.4753850000000  0.4720450000000  0.5790410000000 1.0
C      1  0.5469680000000  0.5522220000000  0.5599990000000 1.0
C      1  0.4596150000000  0.4770220000000  0.4228160000000 1.0
C      1  0.5270780000000  0.4876490000000  0.4127170000000 1.0
END
