TITL C-950536-5891-265 -1.20008528645309e-06 125000 -484.86110124635 0 0 78 (C1) n - 1
REM
REM in /home/bkarasulu/work/CARBON/AIRSS/Generating-Clusters/EDIP-Nigel-Params/with-SteepDescent/Only-C1/SD-CG/HFTN-CG
REM
REM
REM
REM
REM
REM ./C.cell (11c1c37f851c82e70ff6c80c92926a4b)
REM
REM compiler GCC version 9.2.1 20190827 (Red Hat 9.2.1-1)
REM options -cpp -mtune=generic -march=x86-64 -g -O0 -fpre-include=/usr/include/finclude/math-vector-fortran.h
REM seed 1975326461 1595716110 240949363 -2004326826 -558699742 -474738334 -612619177 -264660256 72733803 40542834 1040025616 -1725225434 1491951390 1815280435 -77094308 -454062364 251183491 -530678579 1510155013 1280267742 731710768 -328255546 -1567034769 1862975005 -494976207 -1004254478 -1800171304 -1149719343 -1310296971 724547885 781966178 332564178 1243051757
REM
CELL 1.54180   50.00000   50.00000   50.00000   90.00000   90.00000   90.00000
LATT -1
SFAC C  
C      1  0.4911840000000  0.5385500000000  0.4162720000000 1.0
C      1  0.5406470000000  0.4570060000000  0.4503140000000 1.0
C      1  0.5406050000000  0.4456190000000  0.4762800000000 1.0
C      1  0.5000900000000  0.4706410000000  0.5062590000000 1.0
C      1  0.4924540000000  0.5628640000000  0.4589990000000 1.0
C      1  0.5786290000000  0.5076280000000  0.5093600000000 1.0
C      1  0.4960510000000  0.5159490000000  0.5220600000000 1.0
C      1  0.5191230000000  0.4321250000000  0.5705580000000 1.0
C      1  0.5157480000000  0.4304440000000  0.4814780000000 1.0
C      1  0.5607340000000  0.5124730000000  0.5337430000000 1.0
C      1  0.5564970000000  0.5527960000000  0.5049510000000 1.0
C      1  0.5503210000000  0.4658770000000  0.4980920000000 1.0
C      1  0.4440740000000  0.4641580000000  0.4520040000000 1.0
C      1  0.5273560000000  0.5046870000000  0.5711110000000 1.0
C      1  0.5193590000000  0.4165650000000  0.5067810000000 1.0
C      1  0.4491670000000  0.5404140000000  0.4425380000000 1.0
C      1  0.5404900000000  0.5375990000000  0.4642730000000 1.0
C      1  0.4454690000000  0.5299670000000  0.4889530000000 1.0
C      1  0.5267570000000  0.4846520000000  0.5029170000000 1.0
C      1  0.4965550000000  0.5044950000000  0.4338430000000 1.0
C      1  0.4412060000000  0.5253810000000  0.5364110000000 1.0
C      1  0.4693450000000  0.4493290000000  0.4430000000000 1.0
C      1  0.4638050000000  0.5704070000000  0.5097570000000 1.0
C      1  0.4283670000000  0.5201560000000  0.5109370000000 1.0
C      1  0.5232630000000  0.5153510000000  0.5098340000000 1.0
C      1  0.4844610000000  0.4981160000000  0.4619640000000 1.0
C      1  0.5666090000000  0.4971180000000  0.4629790000000 1.0
C      1  0.5776820000000  0.5337600000000  0.4932720000000 1.0
C      1  0.5730470000000  0.4847520000000  0.4897250000000 1.0
C      1  0.5269050000000  0.5485290000000  0.5455390000000 1.0
C      1  0.4220040000000  0.4704540000000  0.4955410000000 1.0
C      1  0.4882870000000  0.5409410000000  0.5725420000000 1.0
C      1  0.4841520000000  0.4454870000000  0.4705430000000 1.0
C      1  0.5001780000000  0.4748990000000  0.5544450000000 1.0
C      1  0.5000960000000  0.4453670000000  0.5546070000000 1.0
C      1  0.4882880000000  0.4881210000000  0.5288230000000 1.0
C      1  0.4523720000000  0.4749780000000  0.5331420000000 1.0
C      1  0.5428260000000  0.5343660000000  0.5244770000000 1.0
C      1  0.4920950000000  0.5604410000000  0.5070290000000 1.0
C      1  0.4370600000000  0.4535370000000  0.4790600000000 1.0
C      1  0.5418880000000  0.4468780000000  0.5692640000000 1.0
C      1  0.4822940000000  0.5310370000000  0.5005210000000 1.0
C      1  0.4477600000000  0.4935330000000  0.4523030000000 1.0
C      1  0.4641870000000  0.5039110000000  0.5759780000000 1.0
C      1  0.4644040000000  0.5293140000000  0.4198980000000 1.0
C      1  0.4748280000000  0.4920900000000  0.4172650000000 1.0
C      1  0.4621060000000  0.5622540000000  0.4596500000000 1.0
C      1  0.5228770000000  0.5154200000000  0.4780960000000 1.0
C      1  0.4682170000000  0.4511090000000  0.5184180000000 1.0
C      1  0.5063200000000  0.5541910000000  0.4345920000000 1.0
C      1  0.4924410000000  0.4731420000000  0.4775820000000 1.0
C      1  0.5527920000000  0.4637910000000  0.5496790000000 1.0
C      1  0.4190000000000  0.4941460000000  0.5077080000000 1.0
C      1  0.4808300000000  0.5616210000000  0.5533030000000 1.0
C      1  0.5683840000000  0.5268250000000  0.4655500000000 1.0
C      1  0.4824250000000  0.4842380000000  0.5865020000000 1.0
C      1  0.5110290000000  0.4885330000000  0.5889730000000 1.0
C      1  0.5083800000000  0.5704460000000  0.4834730000000 1.0
C      1  0.4385730000000  0.5197160000000  0.4611540000000 1.0
C      1  0.4613550000000  0.4411360000000  0.4905940000000 1.0
C      1  0.5549340000000  0.4503340000000  0.5233450000000 1.0
C      1  0.5413310000000  0.4858230000000  0.4514590000000 1.0
C      1  0.4482750000000  0.5599550000000  0.4868120000000 1.0
C      1  0.5161750000000  0.5319320000000  0.5671880000000 1.0
C      1  0.5232470000000  0.4912240000000  0.4287310000000 1.0
C      1  0.5423610000000  0.4251870000000  0.5208150000000 1.0
C      1  0.5381760000000  0.5615630000000  0.4820370000000 1.0
C      1  0.4947380000000  0.5217500000000  0.4748500000000 1.0
C      1  0.4834310000000  0.4318320000000  0.5352450000000 1.0
C      1  0.4514590000000  0.5006480000000  0.5491760000000 1.0
C      1  0.5042280000000  0.5651230000000  0.5351240000000 1.0
C      1  0.5327230000000  0.5457870000000  0.4376720000000 1.0
C      1  0.5136510000000  0.4640200000000  0.4239020000000 1.0
C      1  0.4962450000000  0.4110630000000  0.5216300000000 1.0
C      1  0.4842140000000  0.4639780000000  0.4209220000000 1.0
C      1  0.5474180000000  0.4929510000000  0.5516230000000 1.0
C      1  0.4561060000000  0.5583400000000  0.5366210000000 1.0
C      1  0.4678400000000  0.5291590000000  0.5879340000000 1.0
END
