TITL C-951333-8791-583 1.61852381287883e-06 125000 -985.848960442767 0 0 159 (C1) n - 1
REM
REM in /home/bkarasulu/work/CARBON/AIRSS/Generating-Clusters/EDIP-Nigel-Params/with-SteepDescent/Only-C1/SD-CG/HFTN-CG
REM
REM
REM
REM
REM
REM ./C.cell (11c1c37f851c82e70ff6c80c92926a4b)
REM
REM compiler GCC version 9.2.1 20190827 (Red Hat 9.2.1-1)
REM options -cpp -mtune=generic -march=x86-64 -g -O0 -fpre-include=/usr/include/finclude/math-vector-fortran.h
REM seed -2119459526 -779300249 1320014404 1538381385 -958983519 -328462047 28436100 -957110308 1727056216 -593041648 1051844513 -1018081459 1353254570 168124745 1637747941 -1075484065 -719145347 1527318425 -578401659 413763401 1986963560 367303720 -1264538667 319908984 -305735698 1338056172 -1570862331 963566012 -1680507359 279797177 -1816348952 -1538289843 -1592746735
REM
CELL 1.54180   50.00000   50.00000   50.00000   90.00000   90.00000   90.00000
LATT -1
SFAC C  
C      1  0.3811380000000  0.4598320000000  0.5437530000000 1.0
C      1  0.5579830000000  0.5013980000000  0.4686600000000 1.0
C      1  0.5203210000000  0.5991900000000  0.5575700000000 1.0
C      1  0.5032690000000  0.5952990000000  0.5101000000000 1.0
C      1  0.4982650000000  0.4868990000000  0.5482730000000 1.0
C      1  0.5989210000000  0.4708760000000  0.5244900000000 1.0
C      1  0.4091570000000  0.4789680000000  0.4728200000000 1.0
C      1  0.5301310000000  0.4073610000000  0.5232530000000 1.0
C      1  0.4227650000000  0.5180970000000  0.4572400000000 1.0
C      1  0.5278500000000  0.5175370000000  0.4416310000000 1.0
C      1  0.5272720000000  0.5928380000000  0.4728650000000 1.0
C      1  0.5202840000000  0.4033520000000  0.4950110000000 1.0
C      1  0.4422490000000  0.4694080000000  0.5972700000000 1.0
C      1  0.4566410000000  0.5596160000000  0.5628380000000 1.0
C      1  0.5479020000000  0.6055220000000  0.5190630000000 1.0
C      1  0.4292350000000  0.5788010000000  0.5296050000000 1.0
C      1  0.4693840000000  0.4075110000000  0.4361880000000 1.0
C      1  0.4867800000000  0.4653840000000  0.5331220000000 1.0
C      1  0.4640380000000  0.5648760000000  0.5192470000000 1.0
C      1  0.5437490000000  0.5205400000000  0.5912200000000 1.0
C      1  0.5749110000000  0.4927760000000  0.4181580000000 1.0
C      1  0.5541980000000  0.4329660000000  0.5557690000000 1.0
C      1  0.4972990000000  0.5094090000000  0.4930260000000 1.0
C      1  0.5335650000000  0.4727290000000  0.4798260000000 1.0
C      1  0.5330880000000  0.5470080000000  0.4837860000000 1.0
C      1  0.5365380000000  0.4311880000000  0.4485040000000 1.0
C      1  0.4171810000000  0.5744620000000  0.5041000000000 1.0
C      1  0.4588690000000  0.4921030000000  0.5966660000000 1.0
C      1  0.5534180000000  0.4233530000000  0.5281280000000 1.0
C      1  0.4732350000000  0.5832870000000  0.5583960000000 1.0
C      1  0.4660970000000  0.5363020000000  0.5763890000000 1.0
C      1  0.4633300000000  0.4675240000000  0.4249630000000 1.0
C      1  0.5999470000000  0.4785630000000  0.4676720000000 1.0
C      1  0.4877990000000  0.6022870000000  0.4551470000000 1.0
C      1  0.4797080000000  0.5586110000000  0.4215100000000 1.0
C      1  0.4337710000000  0.5861860000000  0.4825030000000 1.0
C      1  0.5716060000000  0.5163870000000  0.5082540000000 1.0
C      1  0.4576310000000  0.5328430000000  0.5223790000000 1.0
C      1  0.4151260000000  0.5453310000000  0.4969770000000 1.0
C      1  0.4363940000000  0.4797760000000  0.4303170000000 1.0
C      1  0.5598620000000  0.5229470000000  0.5658870000000 1.0
C      1  0.4199900000000  0.4837980000000  0.5025150000000 1.0
C      1  0.4426480000000  0.5337580000000  0.4966960000000 1.0
C      1  0.5094290000000  0.5466460000000  0.5311020000000 1.0
C      1  0.5269860000000  0.4289340000000  0.5664720000000 1.0
C      1  0.5008550000000  0.5800800000000  0.5687640000000 1.0
C      1  0.5283060000000  0.4860310000000  0.5532150000000 1.0
C      1  0.5232270000000  0.5409750000000  0.4111080000000 1.0
C      1  0.4253420000000  0.4545900000000  0.5091390000000 1.0
C      1  0.4747620000000  0.6074630000000  0.5100800000000 1.0
C      1  0.5111850000000  0.5646860000000  0.4232080000000 1.0
C      1  0.5048830000000  0.5554840000000  0.4657640000000 1.0
C      1  0.4890590000000  0.5219460000000  0.5230080000000 1.0
C      1  0.4936580000000  0.5691090000000  0.5217890000000 1.0
C      1  0.4298680000000  0.4459460000000  0.5375750000000 1.0
C      1  0.5037290000000  0.4345970000000  0.4079240000000 1.0
C      1  0.4799500000000  0.5769670000000  0.4665660000000 1.0
C      1  0.5174250000000  0.4179090000000  0.4285240000000 1.0
C      1  0.5993280000000  0.5226640000000  0.4675350000000 1.0
C      1  0.4420910000000  0.4404600000000  0.4627310000000 1.0
C      1  0.4680920000000  0.4492220000000  0.4499100000000 1.0
C      1  0.5694490000000  0.5776110000000  0.4927060000000 1.0
C      1  0.3789470000000  0.4840550000000  0.5317530000000 1.0
C      1  0.5190380000000  0.4538930000000  0.4590760000000 1.0
C      1  0.4139580000000  0.4854480000000  0.5665550000000 1.0
C      1  0.4685670000000  0.6036400000000  0.5381520000000 1.0
C      1  0.5218210000000  0.6085140000000  0.5297730000000 1.0
C      1  0.4960220000000  0.4113530000000  0.4492610000000 1.0
C      1  0.4583330000000  0.4087030000000  0.5508470000000 1.0
C      1  0.4743780000000  0.4314700000000  0.4161020000000 1.0
C      1  0.4439640000000  0.5124710000000  0.4788020000000 1.0
C      1  0.4372980000000  0.4059490000000  0.5076960000000 1.0
C      1  0.4789580000000  0.5100190000000  0.4460210000000 1.0
C      1  0.5834560000000  0.5058460000000  0.5563690000000 1.0
C      1  0.5505310000000  0.5994980000000  0.4904120000000 1.0
C      1  0.4968870000000  0.4347590000000  0.4958430000000 1.0
C      1  0.4362700000000  0.4159580000000  0.5347880000000 1.0
C      1  0.5097840000000  0.4724620000000  0.4388920000000 1.0
C      1  0.5614920000000  0.5554600000000  0.4758750000000 1.0
C      1  0.5429200000000  0.5680120000000  0.5610660000000 1.0
C      1  0.4070340000000  0.4589760000000  0.5548060000000 1.0
C      1  0.4478000000000  0.4104200000000  0.4579410000000 1.0
C      1  0.5779920000000  0.5132930000000  0.4440810000000 1.0
C      1  0.4931950000000  0.5006770000000  0.4013760000000 1.0
C      1  0.5081190000000  0.5087530000000  0.5997190000000 1.0
C      1  0.5353290000000  0.5483280000000  0.5141390000000 1.0
C      1  0.4343140000000  0.5102510000000  0.4304700000000 1.0
C      1  0.5164720000000  0.5541280000000  0.5618830000000 1.0
C      1  0.5919480000000  0.5218130000000  0.5316820000000 1.0
C      1  0.6127950000000  0.4993680000000  0.4821800000000 1.0
C      1  0.5680190000000  0.4156920000000  0.4803920000000 1.0
C      1  0.4604120000000  0.5252440000000  0.4283690000000 1.0
C      1  0.4858980000000  0.4869090000000  0.4277070000000 1.0
C      1  0.5816440000000  0.4339020000000  0.4608590000000 1.0
C      1  0.4467200000000  0.4969510000000  0.5203360000000 1.0
C      1  0.4471050000000  0.5164370000000  0.5850580000000 1.0
C      1  0.6105320000000  0.4957820000000  0.5122180000000 1.0
C      1  0.5224980000000  0.4533940000000  0.5822300000000 1.0
C      1  0.5171460000000  0.4582310000000  0.3973130000000 1.0
C      1  0.5117640000000  0.4825610000000  0.4961440000000 1.0
C      1  0.5516210000000  0.4807830000000  0.5309930000000 1.0
C      1  0.5583860000000  0.5615830000000  0.4475400000000 1.0
C      1  0.4022220000000  0.5276710000000  0.5217360000000 1.0
C      1  0.5308210000000  0.5169960000000  0.4762940000000 1.0
C      1  0.4327260000000  0.5691770000000  0.4572160000000 1.0
C      1  0.5653450000000  0.5380100000000  0.4318520000000 1.0
C      1  0.4941350000000  0.4381290000000  0.4654010000000 1.0
C      1  0.5828940000000  0.5527090000000  0.5368850000000 1.0
C      1  0.4139540000000  0.5463390000000  0.4645930000000 1.0
C      1  0.5481740000000  0.4607570000000  0.5067480000000 1.0
C      1  0.5379070000000  0.5149560000000  0.5468900000000 1.0
C      1  0.5595730000000  0.5687340000000  0.5211000000000 1.0
C      1  0.5228540000000  0.4875950000000  0.3993130000000 1.0
C      1  0.4712910000000  0.5019040000000  0.4742250000000 1.0
C      1  0.5805900000000  0.5350970000000  0.4861170000000 1.0
C      1  0.4710850000000  0.4811920000000  0.5131750000000 1.0
C      1  0.5666660000000  0.5516790000000  0.5613090000000 1.0
C      1  0.5720540000000  0.4868290000000  0.4934570000000 1.0
C      1  0.3986820000000  0.5021650000000  0.4613840000000 1.0
C      1  0.4198870000000  0.5316670000000  0.5455950000000 1.0
C      1  0.5079920000000  0.6127410000000  0.4697310000000 1.0
C      1  0.4476300000000  0.4459100000000  0.4915340000000 1.0
C      1  0.4781170000000  0.4402420000000  0.5913740000000 1.0
C      1  0.5312750000000  0.4882460000000  0.4299070000000 1.0
C      1  0.5317110000000  0.5761060000000  0.4462940000000 1.0
C      1  0.5174540000000  0.5308910000000  0.5828830000000 1.0
C      1  0.4622460000000  0.5842640000000  0.4923890000000 1.0
C      1  0.4908130000000  0.3904770000000  0.4928280000000 1.0
C      1  0.4549200000000  0.4509000000000  0.5802890000000 1.0
C      1  0.4205370000000  0.5143630000000  0.5702010000000 1.0
C      1  0.4615890000000  0.5642110000000  0.4469950000000 1.0
C      1  0.4552910000000  0.4587800000000  0.5511030000000 1.0
C      1  0.4795090000000  0.4133350000000  0.5083850000000 1.0
C      1  0.4491610000000  0.4891420000000  0.5504080000000 1.0
C      1  0.4976240000000  0.4596690000000  0.5956710000000 1.0
C      1  0.5908170000000  0.4492670000000  0.5056770000000 1.0
C      1  0.4882730000000  0.4876900000000  0.5967240000000 1.0
C      1  0.5668470000000  0.4582520000000  0.5663140000000 1.0
C      1  0.5737890000000  0.4256990000000  0.5079250000000 1.0
C      1  0.5624240000000  0.4444590000000  0.4395590000000 1.0
C      1  0.4320690000000  0.5577550000000  0.5486600000000 1.0
C      1  0.5564620000000  0.5056210000000  0.3979870000000 1.0
C      1  0.3963120000000  0.4987980000000  0.5154090000000 1.0
C      1  0.5966130000000  0.4529660000000  0.4777080000000 1.0
C      1  0.5114810000000  0.4137020000000  0.5451310000000 1.0
C      1  0.5007140000000  0.5299320000000  0.4474190000000 1.0
C      1  0.5403160000000  0.4114220000000  0.4723120000000 1.0
C      1  0.4762250000000  0.5256140000000  0.4022790000000 1.0
C      1  0.5586660000000  0.4742160000000  0.4345570000000 1.0
C      1  0.4534940000000  0.3965050000000  0.4846870000000 1.0
C      1  0.5779090000000  0.4779060000000  0.5457450000000 1.0
C      1  0.4670970000000  0.4668350000000  0.4898310000000 1.0
C      1  0.5443280000000  0.5217440000000  0.5185900000000 1.0
C      1  0.4829630000000  0.4108200000000  0.5375870000000 1.0
C      1  0.4761560000000  0.5076530000000  0.5530720000000 1.0
C      1  0.5457730000000  0.4700950000000  0.5830250000000 1.0
C      1  0.5098330000000  0.4568230000000  0.5132710000000 1.0
C      1  0.4235250000000  0.4632480000000  0.4522650000000 1.0
C      1  0.5506480000000  0.5328880000000  0.4073590000000 1.0
END
