TITL C-950528-5794-348 -7.89726725765665e-07 125000 -881.236273365282 0 0 141 (C1) n - 1
REM
REM in /home/bkarasulu/work/CARBON/AIRSS/Generating-Clusters/EDIP-Nigel-Params/with-SteepDescent/Only-C1/SD-CG/HFTN-CG
REM
REM
REM
REM
REM
REM ./C.cell (11c1c37f851c82e70ff6c80c92926a4b)
REM
REM compiler GCC version 9.2.1 20190827 (Red Hat 9.2.1-1)
REM options -cpp -mtune=generic -march=x86-64 -g -O0 -fpre-include=/usr/include/finclude/math-vector-fortran.h
REM seed -589128069 418951326 1630302860 1864850066 -1345613085 1909323439 -697743563 -2077782413 -1192021712 602305522 -2065961100 1895342937 -1552904927 1506766337 1035968648 -37422681 -1645520228 392664728 778161800 -961378561 -212493970 799985958 -358730222 -242517141 -1056198427 1929641168 525015072 -663470888 -1322606447 328584090 -900416934 426413547 835358116
REM
CELL 1.54180   50.00000   50.00000   50.00000   90.00000   90.00000   90.00000
LATT -1
SFAC C  
C      1  0.4168120000000  0.5039950000000  0.5405750000000 1.0
C      1  0.5194260000000  0.4536190000000  0.5716140000000 1.0
C      1  0.4790580000000  0.4389560000000  0.5647470000000 1.0
C      1  0.4731720000000  0.5236970000000  0.5482690000000 1.0
C      1  0.5309120000000  0.5919300000000  0.4823570000000 1.0
C      1  0.4619960000000  0.5192100000000  0.4192790000000 1.0
C      1  0.4692630000000  0.4665120000000  0.5396790000000 1.0
C      1  0.5476330000000  0.5697770000000  0.5472380000000 1.0
C      1  0.4863380000000  0.4930790000000  0.5791090000000 1.0
C      1  0.5413650000000  0.5174290000000  0.4564380000000 1.0
C      1  0.4195440000000  0.5458130000000  0.4755600000000 1.0
C      1  0.4878540000000  0.5536770000000  0.4469620000000 1.0
C      1  0.4489120000000  0.5330280000000  0.5680870000000 1.0
C      1  0.5890610000000  0.4734200000000  0.4976990000000 1.0
C      1  0.5498450000000  0.4648290000000  0.4543080000000 1.0
C      1  0.4979160000000  0.4208850000000  0.5504680000000 1.0
C      1  0.4408400000000  0.4866140000000  0.4442300000000 1.0
C      1  0.4961540000000  0.4628180000000  0.4161760000000 1.0
C      1  0.4766260000000  0.4369040000000  0.4521660000000 1.0
C      1  0.5591740000000  0.5089810000000  0.4796610000000 1.0
C      1  0.5659070000000  0.4312860000000  0.4764970000000 1.0
C      1  0.4235590000000  0.5301960000000  0.5519640000000 1.0
C      1  0.4634900000000  0.4827860000000  0.5624460000000 1.0
C      1  0.5844460000000  0.5042780000000  0.4655340000000 1.0
C      1  0.5280080000000  0.4761430000000  0.6025230000000 1.0
C      1  0.5076960000000  0.4794900000000  0.4670570000000 1.0
C      1  0.4600210000000  0.5177330000000  0.4739070000000 1.0
C      1  0.4679150000000  0.5561080000000  0.5074690000000 1.0
C      1  0.5248420000000  0.5345970000000  0.4067410000000 1.0
C      1  0.4499380000000  0.4426720000000  0.4391580000000 1.0
C      1  0.4683240000000  0.4673930000000  0.4896830000000 1.0
C      1  0.6026380000000  0.4999390000000  0.4902460000000 1.0
C      1  0.4364950000000  0.4087310000000  0.5309980000000 1.0
C      1  0.5014630000000  0.5105890000000  0.5596080000000 1.0
C      1  0.4146530000000  0.4733570000000  0.4505380000000 1.0
C      1  0.5840710000000  0.5046260000000  0.5614500000000 1.0
C      1  0.4234890000000  0.5736190000000  0.4756760000000 1.0
C      1  0.5314520000000  0.4293470000000  0.4349690000000 1.0
C      1  0.4575770000000  0.4695560000000  0.4226300000000 1.0
C      1  0.4920990000000  0.5216210000000  0.4440860000000 1.0
C      1  0.4070020000000  0.5076980000000  0.5136470000000 1.0
C      1  0.4165490000000  0.5338650000000  0.5036960000000 1.0
C      1  0.4494370000000  0.4415780000000  0.5703620000000 1.0
C      1  0.4563780000000  0.4091560000000  0.4912620000000 1.0
C      1  0.4852420000000  0.4204780000000  0.5247780000000 1.0
C      1  0.4627610000000  0.4028840000000  0.5193030000000 1.0
C      1  0.4494130000000  0.5774190000000  0.4658410000000 1.0
C      1  0.4060800000000  0.4838850000000  0.4982220000000 1.0
C      1  0.4872990000000  0.4135750000000  0.4392790000000 1.0
C      1  0.5469800000000  0.4188100000000  0.4988960000000 1.0
C      1  0.4948260000000  0.5697880000000  0.4705410000000 1.0
C      1  0.5146570000000  0.4954000000000  0.5370510000000 1.0
C      1  0.4651960000000  0.5462580000000  0.4075400000000 1.0
C      1  0.4981030000000  0.5003340000000  0.5110740000000 1.0
C      1  0.5162390000000  0.4547350000000  0.5064960000000 1.0
C      1  0.5878810000000  0.4545680000000  0.4750570000000 1.0
C      1  0.5794030000000  0.4753860000000  0.4543390000000 1.0
C      1  0.4812200000000  0.5649580000000  0.5872450000000 1.0
C      1  0.5021790000000  0.4711730000000  0.5906300000000 1.0
C      1  0.4969140000000  0.5559740000000  0.5200500000000 1.0
C      1  0.5091590000000  0.5933720000000  0.4650570000000 1.0
C      1  0.4418060000000  0.5337640000000  0.4568670000000 1.0
C      1  0.4282410000000  0.4140170000000  0.4940130000000 1.0
C      1  0.5705810000000  0.5859680000000  0.5073810000000 1.0
C      1  0.4493380000000  0.5172400000000  0.5947090000000 1.0
C      1  0.4463800000000  0.5667300000000  0.5259350000000 1.0
C      1  0.4920560000000  0.5544460000000  0.4012630000000 1.0
C      1  0.4140430000000  0.4539920000000  0.5371430000000 1.0
C      1  0.4932330000000  0.4626230000000  0.4463380000000 1.0
C      1  0.5684780000000  0.4417780000000  0.5345860000000 1.0
C      1  0.5801750000000  0.5253290000000  0.4204240000000 1.0
C      1  0.5443010000000  0.4621550000000  0.3979560000000 1.0
C      1  0.4573190000000  0.5575910000000  0.4436380000000 1.0
C      1  0.5741960000000  0.5531550000000  0.4564680000000 1.0
C      1  0.4678420000000  0.4942680000000  0.4042510000000 1.0
C      1  0.4948700000000  0.5392940000000  0.5925640000000 1.0
C      1  0.4721000000000  0.5778210000000  0.4865170000000 1.0
C      1  0.3996160000000  0.4843080000000  0.4712610000000 1.0
C      1  0.5541710000000  0.4865540000000  0.4113010000000 1.0
C      1  0.4783830000000  0.5143400000000  0.5988410000000 1.0
C      1  0.5229330000000  0.4455140000000  0.4104880000000 1.0
C      1  0.4311800000000  0.4320380000000  0.5482400000000 1.0
C      1  0.4603330000000  0.5276780000000  0.5005910000000 1.0
C      1  0.5690080000000  0.5617520000000  0.4912030000000 1.0
C      1  0.4360940000000  0.4922180000000  0.5967880000000 1.0
C      1  0.4949320000000  0.5475400000000  0.5491330000000 1.0
C      1  0.5315300000000  0.5578510000000  0.4270400000000 1.0
C      1  0.5013050000000  0.4280030000000  0.5005600000000 1.0
C      1  0.4234140000000  0.4624710000000  0.5093760000000 1.0
C      1  0.4569610000000  0.4890000000000  0.4697280000000 1.0
C      1  0.4970380000000  0.4909240000000  0.4033220000000 1.0
C      1  0.4535330000000  0.4735530000000  0.5150330000000 1.0
C      1  0.5125060000000  0.5093740000000  0.4645360000000 1.0
C      1  0.5331670000000  0.4768630000000  0.4316040000000 1.0
C      1  0.5096940000000  0.5120780000000  0.4202320000000 1.0
C      1  0.5990590000000  0.5069350000000  0.5380230000000 1.0
C      1  0.5476410000000  0.4252610000000  0.5269700000000 1.0
C      1  0.4568490000000  0.5799200000000  0.5497170000000 1.0
C      1  0.4842200000000  0.5904030000000  0.5446400000000 1.0
C      1  0.5414950000000  0.5205240000000  0.5743580000000 1.0
C      1  0.5434820000000  0.5340290000000  0.5221630000000 1.0
C      1  0.5697900000000  0.5501190000000  0.5465190000000 1.0
C      1  0.4365280000000  0.5148770000000  0.4343090000000 1.0
C      1  0.4995130000000  0.5808050000000  0.5690280000000 1.0
C      1  0.5211470000000  0.5438900000000  0.5035920000000 1.0
C      1  0.5269950000000  0.5672230000000  0.5681730000000 1.0
C      1  0.5139910000000  0.4080000000000  0.4422890000000 1.0
C      1  0.5029020000000  0.5669910000000  0.4249790000000 1.0
C      1  0.5976980000000  0.5193410000000  0.5126320000000 1.0
C      1  0.5407970000000  0.5093680000000  0.5379300000000 1.0
C      1  0.4973930000000  0.4751610000000  0.4943670000000 1.0
C      1  0.5467660000000  0.4599080000000  0.5876220000000 1.0
C      1  0.4697740000000  0.5083970000000  0.5202160000000 1.0
C      1  0.5602030000000  0.4836600000000  0.4984050000000 1.0
C      1  0.4253120000000  0.4465480000000  0.4567860000000 1.0
C      1  0.5420100000000  0.4607350000000  0.4871350000000 1.0
C      1  0.5479950000000  0.5884300000000  0.5246240000000 1.0
C      1  0.4933890000000  0.5938450000000  0.5153970000000 1.0
C      1  0.5232310000000  0.5414420000000  0.5818710000000 1.0
C      1  0.4548720000000  0.5624570000000  0.5740990000000 1.0
C      1  0.5722880000000  0.5378370000000  0.5101080000000 1.0
C      1  0.5235470000000  0.4649050000000  0.5411490000000 1.0
C      1  0.5214440000000  0.4071830000000  0.4917350000000 1.0
C      1  0.5202270000000  0.3962720000000  0.4663110000000 1.0
C      1  0.5438370000000  0.5485760000000  0.4544520000000 1.0
C      1  0.5681900000000  0.5281290000000  0.5668720000000 1.0
C      1  0.4163970000000  0.4779800000000  0.5547650000000 1.0
C      1  0.5552680000000  0.4658120000000  0.5436870000000 1.0
C      1  0.5654550000000  0.4730170000000  0.5703430000000 1.0
C      1  0.5382680000000  0.5623940000000  0.4826770000000 1.0
C      1  0.5536390000000  0.5145220000000  0.4232400000000 1.0
C      1  0.4258760000000  0.4411990000000  0.4867050000000 1.0
C      1  0.5881420000000  0.5290710000000  0.4469510000000 1.0
C      1  0.5256420000000  0.4206510000000  0.5440250000000 1.0
C      1  0.4223610000000  0.5494320000000  0.5287380000000 1.0
C      1  0.5235590000000  0.5980030000000  0.5102170000000 1.0
C      1  0.5090220000000  0.5199760000000  0.4920410000000 1.0
C      1  0.4740140000000  0.4335570000000  0.4827550000000 1.0
C      1  0.4386220000000  0.4732040000000  0.5749340000000 1.0
C      1  0.5600640000000  0.4893630000000  0.5275610000000 1.0
C      1  0.5574230000000  0.4278860000000  0.4473930000000 1.0
END
