TITL C-950525-1983-490 1.32187859771396e-07 125000 -494.103938685475 0 0 80 (C1) n - 1
REM
REM in /home/bkarasulu/work/CARBON/AIRSS/Generating-Clusters/EDIP-Nigel-Params/with-SteepDescent/Only-C1/SD-CG/HFTN-CG
REM
REM
REM
REM
REM
REM ./C.cell (11c1c37f851c82e70ff6c80c92926a4b)
REM
REM compiler GCC version 9.2.1 20190827 (Red Hat 9.2.1-1)
REM options -cpp -mtune=generic -march=x86-64 -g -O0 -fpre-include=/usr/include/finclude/math-vector-fortran.h
REM seed 414700542 1120571608 -1498012604 1349985728 -1735388560 1696484700 1295387863 2121853588 1635675332 2045125673 309085616 428493127 -877354306 2022321926 -1890509856 -1940484147 -1746488927 -729101684 -1892093348 1411017628 -894506680 89907060 363034204 -713951126 797860873 610534246 916166279 1468278184 -1097301637 811470131 -591987465 -1124222949 -1027223041
REM
CELL 1.54180   50.00000   50.00000   50.00000   90.00000   90.00000   90.00000
LATT -1
SFAC C  
C      1  0.4910360000000  0.4782160000000  0.5335020000000 1.0
C      1  0.4410810000000  0.5606240000000  0.5109710000000 1.0
C      1  0.5578200000000  0.5334200000000  0.4826440000000 1.0
C      1  0.5265830000000  0.5536430000000  0.5580730000000 1.0
C      1  0.5130950000000  0.5697910000000  0.4822840000000 1.0
C      1  0.4770350000000  0.5038180000000  0.5312540000000 1.0
C      1  0.5350770000000  0.5051470000000  0.5656420000000 1.0
C      1  0.4371120000000  0.5539390000000  0.4829290000000 1.0
C      1  0.5398930000000  0.4932400000000  0.4799850000000 1.0
C      1  0.4942730000000  0.4919290000000  0.4415920000000 1.0
C      1  0.4611590000000  0.4488860000000  0.5672340000000 1.0
C      1  0.5237690000000  0.5558180000000  0.4541490000000 1.0
C      1  0.4839490000000  0.5661920000000  0.5393370000000 1.0
C      1  0.5529630000000  0.5472890000000  0.5076390000000 1.0
C      1  0.5220580000000  0.5154910000000  0.4165180000000 1.0
C      1  0.5520580000000  0.5475120000000  0.4567710000000 1.0
C      1  0.5768260000000  0.4852440000000  0.4751200000000 1.0
C      1  0.5025700000000  0.5285020000000  0.4728030000000 1.0
C      1  0.4321960000000  0.5372600000000  0.5268340000000 1.0
C      1  0.4669960000000  0.5078000000000  0.5003960000000 1.0
C      1  0.4846930000000  0.5194280000000  0.5802360000000 1.0
C      1  0.4759700000000  0.4692050000000  0.5791250000000 1.0
C      1  0.4600940000000  0.5647110000000  0.4663920000000 1.0
C      1  0.5638650000000  0.5207200000000  0.4410990000000 1.0
C      1  0.4424740000000  0.4400160000000  0.4872620000000 1.0
C      1  0.4900460000000  0.5307920000000  0.4440140000000 1.0
C      1  0.5381220000000  0.4680950000000  0.4623740000000 1.0
C      1  0.5106000000000  0.4421570000000  0.4960110000000 1.0
C      1  0.5452570000000  0.4782900000000  0.5559680000000 1.0
C      1  0.5108860000000  0.5423370000000  0.4258630000000 1.0
C      1  0.5241230000000  0.4574560000000  0.5619470000000 1.0
C      1  0.5051440000000  0.4561690000000  0.4352390000000 1.0
C      1  0.5110510000000  0.5545930000000  0.5333920000000 1.0
C      1  0.4378600000000  0.4754490000000  0.4606080000000 1.0
C      1  0.4380960000000  0.5241240000000  0.4806680000000 1.0
C      1  0.5006060000000  0.5278080000000  0.5240300000000 1.0
C      1  0.5741460000000  0.5051970000000  0.5284420000000 1.0
C      1  0.4533810000000  0.5047770000000  0.5515710000000 1.0
C      1  0.5729210000000  0.4595390000000  0.5151130000000 1.0
C      1  0.4851530000000  0.5322490000000  0.4982510000000 1.0
C      1  0.4747950000000  0.4274290000000  0.5225400000000 1.0
C      1  0.5612440000000  0.5315860000000  0.5319120000000 1.0
C      1  0.4235190000000  0.4837540000000  0.4850270000000 1.0
C      1  0.4631750000000  0.5432130000000  0.4450780000000 1.0
C      1  0.4555360000000  0.4436800000000  0.5403200000000 1.0
C      1  0.5589870000000  0.4419110000000  0.4984790000000 1.0
C      1  0.4316390000000  0.4901910000000  0.5369290000000 1.0
C      1  0.5073490000000  0.5018600000000  0.5732170000000 1.0
C      1  0.5042160000000  0.4690430000000  0.4098290000000 1.0
C      1  0.5076010000000  0.4993930000000  0.4697820000000 1.0
C      1  0.5552690000000  0.4815060000000  0.5273880000000 1.0
C      1  0.4280650000000  0.4596870000000  0.5007360000000 1.0
C      1  0.4857500000000  0.4863220000000  0.4866320000000 1.0
C      1  0.5037130000000  0.4967580000000  0.4043310000000 1.0
C      1  0.4636790000000  0.4971070000000  0.5794320000000 1.0
C      1  0.5205760000000  0.4358110000000  0.5446000000000 1.0
C      1  0.5770600000000  0.5133670000000  0.4689070000000 1.0
C      1  0.4470820000000  0.5335450000000  0.5521390000000 1.0
C      1  0.4999470000000  0.4753510000000  0.5623050000000 1.0
C      1  0.4512310000000  0.4950760000000  0.4442990000000 1.0
C      1  0.5320880000000  0.4865650000000  0.5078410000000 1.0
C      1  0.5050160000000  0.4721750000000  0.5070710000000 1.0
C      1  0.4895650000000  0.4313600000000  0.4765040000000 1.0
C      1  0.4704700000000  0.5654970000000  0.5122480000000 1.0
C      1  0.4388220000000  0.4640970000000  0.5266850000000 1.0
C      1  0.4252040000000  0.5093030000000  0.5142780000000 1.0
C      1  0.4442620000000  0.5214870000000  0.4519780000000 1.0
C      1  0.5278230000000  0.5642910000000  0.5088330000000 1.0
C      1  0.5911450000000  0.4770960000000  0.4988620000000 1.0
C      1  0.5459230000000  0.4739830000000  0.4347740000000 1.0
C      1  0.4831280000000  0.4477390000000  0.4522060000000 1.0
C      1  0.5426630000000  0.5311500000000  0.5542290000000 1.0
C      1  0.5059240000000  0.4269880000000  0.5223760000000 1.0
C      1  0.5374540000000  0.4429290000000  0.4806000000000 1.0
C      1  0.4663830000000  0.4268620000000  0.4939980000000 1.0
C      1  0.4677940000000  0.4686500000000  0.4675870000000 1.0
C      1  0.4831470000000  0.5742030000000  0.4855580000000 1.0
C      1  0.5416580000000  0.5025850000000  0.4343720000000 1.0
C      1  0.5978010000000  0.5010680000000  0.5132200000000 1.0
C      1  0.4712610000000  0.5485100000000  0.5596160000000 1.0
END
