TITL C-950534-5965-404 -1.78567864748284e-06 125000 -609.349557312916 0 0 97 (C1) n - 1
REM
REM in /home/bkarasulu/work/CARBON/AIRSS/Generating-Clusters/EDIP-Nigel-Params/with-SteepDescent/Only-C1/SD-CG/HFTN-CG
REM
REM
REM
REM
REM
REM ./C.cell (11c1c37f851c82e70ff6c80c92926a4b)
REM
REM compiler GCC version 9.2.1 20190827 (Red Hat 9.2.1-1)
REM options -cpp -mtune=generic -march=x86-64 -g -O0 -fpre-include=/usr/include/finclude/math-vector-fortran.h
REM seed -715113486 -916634788 363635389 -1909793701 1417596012 1905376227 -1428053105 110058272 1191710251 2107096589 -1108509023 -688652046 14510332 -160304324 60491662 -321588559 -1156401193 -2035719052 665267132 523381096 2109334476 -19112049 424133805 -772904953 -1016430153 528621533 1133504852 536508195 -1224248472 -1228405273 521162412 1135035368 674369328
REM
CELL 1.54180   50.00000   50.00000   50.00000   90.00000   90.00000   90.00000
LATT -1
SFAC C  
C      1  0.4648130000000  0.4136640000000  0.4653490000000 1.0
C      1  0.5140440000000  0.5016970000000  0.4699340000000 1.0
C      1  0.5416940000000  0.4221150000000  0.5276520000000 1.0
C      1  0.4486490000000  0.4592950000000  0.4620890000000 1.0
C      1  0.5102550000000  0.5218830000000  0.4132440000000 1.0
C      1  0.5525350000000  0.4393330000000  0.5077660000000 1.0
C      1  0.5143700000000  0.4862610000000  0.5423270000000 1.0
C      1  0.4276270000000  0.5273590000000  0.5011870000000 1.0
C      1  0.4738820000000  0.4905130000000  0.4308310000000 1.0
C      1  0.4858630000000  0.5632410000000  0.4276470000000 1.0
C      1  0.4289120000000  0.5044590000000  0.4594390000000 1.0
C      1  0.4493640000000  0.4849280000000  0.4484150000000 1.0
C      1  0.5037620000000  0.4214340000000  0.4958960000000 1.0
C      1  0.4670530000000  0.5264890000000  0.4550470000000 1.0
C      1  0.5715090000000  0.5380250000000  0.4983890000000 1.0
C      1  0.5234760000000  0.4928240000000  0.5722560000000 1.0
C      1  0.5893750000000  0.4951860000000  0.4757790000000 1.0
C      1  0.5408580000000  0.5439900000000  0.4665240000000 1.0
C      1  0.5699240000000  0.4774790000000  0.5699540000000 1.0
C      1  0.5176310000000  0.4057660000000  0.5178120000000 1.0
C      1  0.5214190000000  0.4361990000000  0.5489870000000 1.0
C      1  0.4754740000000  0.5370180000000  0.5406500000000 1.0
C      1  0.5485430000000  0.4748590000000  0.4672970000000 1.0
C      1  0.4815280000000  0.4879660000000  0.5448600000000 1.0
C      1  0.4678290000000  0.5390720000000  0.4262390000000 1.0
C      1  0.4824740000000  0.4972850000000  0.4733280000000 1.0
C      1  0.4873850000000  0.5856090000000  0.5206240000000 1.0
C      1  0.4365170000000  0.4571460000000  0.5462740000000 1.0
C      1  0.4689980000000  0.4677050000000  0.5650250000000 1.0
C      1  0.4948720000000  0.5536530000000  0.5550710000000 1.0
C      1  0.5293230000000  0.5223930000000  0.5715370000000 1.0
C      1  0.4370060000000  0.5075980000000  0.5459660000000 1.0
C      1  0.4745470000000  0.4283910000000  0.5325280000000 1.0
C      1  0.5000670000000  0.4910020000000  0.5907010000000 1.0
C      1  0.4808520000000  0.5150330000000  0.4149690000000 1.0
C      1  0.5363450000000  0.5716500000000  0.5137690000000 1.0
C      1  0.5356000000000  0.4500410000000  0.5879610000000 1.0
C      1  0.4201300000000  0.5024940000000  0.4877950000000 1.0
C      1  0.5120450000000  0.5475440000000  0.4279840000000 1.0
C      1  0.5376180000000  0.5049690000000  0.5256290000000 1.0
C      1  0.4997620000000  0.4151110000000  0.5409120000000 1.0
C      1  0.4848940000000  0.5734710000000  0.4571620000000 1.0
C      1  0.4744400000000  0.5047130000000  0.5013120000000 1.0
C      1  0.4229650000000  0.4771760000000  0.5023510000000 1.0
C      1  0.4518260000000  0.5695360000000  0.4869530000000 1.0
C      1  0.5605950000000  0.4602040000000  0.4901370000000 1.0
C      1  0.4593760000000  0.4409040000000  0.5537810000000 1.0
C      1  0.4506860000000  0.5537480000000  0.5358950000000 1.0
C      1  0.5704920000000  0.4979140000000  0.5227830000000 1.0
C      1  0.5111610000000  0.4457790000000  0.4584960000000 1.0
C      1  0.4883730000000  0.5454030000000  0.4688720000000 1.0
C      1  0.5830590000000  0.5239220000000  0.5195820000000 1.0
C      1  0.5453340000000  0.4751300000000  0.5817470000000 1.0
C      1  0.5218620000000  0.4758570000000  0.4250640000000 1.0
C      1  0.5794680000000  0.4807000000000  0.4989460000000 1.0
C      1  0.4832440000000  0.5153740000000  0.5840520000000 1.0
C      1  0.4950360000000  0.5487520000000  0.4968220000000 1.0
C      1  0.5017900000000  0.4663780000000  0.4795600000000 1.0
C      1  0.4629120000000  0.4369110000000  0.4499060000000 1.0
C      1  0.4389340000000  0.4810260000000  0.5286390000000 1.0
C      1  0.5602030000000  0.5638110000000  0.5010660000000 1.0
C      1  0.4314850000000  0.4539970000000  0.4855940000000 1.0
C      1  0.5089570000000  0.4437970000000  0.5838370000000 1.0
C      1  0.5634600000000  0.5009980000000  0.4627270000000 1.0
C      1  0.4881910000000  0.4640640000000  0.5876720000000 1.0
C      1  0.4297930000000  0.5322980000000  0.5300380000000 1.0
C      1  0.5796300000000  0.4860910000000  0.5468710000000 1.0
C      1  0.5350930000000  0.5561990000000  0.5368030000000 1.0
C      1  0.4922770000000  0.4686310000000  0.4231690000000 1.0
C      1  0.5168590000000  0.4590480000000  0.5305810000000 1.0
C      1  0.4368140000000  0.4308290000000  0.5007800000000 1.0
C      1  0.5366980000000  0.5656340000000  0.4283670000000 1.0
C      1  0.5563560000000  0.5457080000000  0.4407530000000 1.0
C      1  0.4585730000000  0.5756200000000  0.5152480000000 1.0
C      1  0.5293160000000  0.5109050000000  0.4968870000000 1.0
C      1  0.4373480000000  0.5329340000000  0.4575600000000 1.0
C      1  0.5302220000000  0.5839100000000  0.4498650000000 1.0
C      1  0.4678980000000  0.4829090000000  0.5193190000000 1.0
C      1  0.5379820000000  0.5293310000000  0.5444090000000 1.0
C      1  0.4868780000000  0.5274830000000  0.5146620000000 1.0
C      1  0.5190750000000  0.4207130000000  0.4711290000000 1.0
C      1  0.4585230000000  0.4163900000000  0.5114550000000 1.0
C      1  0.5089580000000  0.5755610000000  0.5000240000000 1.0
C      1  0.4599310000000  0.5857850000000  0.4656290000000 1.0
C      1  0.4893560000000  0.4427960000000  0.4376890000000 1.0
C      1  0.5523930000000  0.5225350000000  0.4822240000000 1.0
C      1  0.4678070000000  0.5126490000000  0.5568150000000 1.0
C      1  0.5342100000000  0.4598540000000  0.4465840000000 1.0
C      1  0.5094270000000  0.5870560000000  0.4692040000000 1.0
C      1  0.5546710000000  0.5147600000000  0.4356200000000 1.0
C      1  0.4765110000000  0.4090580000000  0.4902990000000 1.0
C      1  0.5040170000000  0.5375250000000  0.5788180000000 1.0
C      1  0.5016910000000  0.4511920000000  0.5056940000000 1.0
C      1  0.4950600000000  0.5814200000000  0.5479390000000 1.0
C      1  0.4324250000000  0.5483790000000  0.4821140000000 1.0
C      1  0.5276610000000  0.5040050000000  0.4280680000000 1.0
C      1  0.5138740000000  0.5345480000000  0.4567800000000 1.0
END
