TITL C-951335-1172-245 -2.5952988027743e-06 125000 -1044.13170693668 0 0 168 (C1) n - 1
REM
REM in /home/bkarasulu/work/CARBON/AIRSS/Generating-Clusters/EDIP-Nigel-Params/with-SteepDescent/Only-C1/SD-CG/HFTN-CG
REM
REM
REM
REM
REM
REM ./C.cell (11c1c37f851c82e70ff6c80c92926a4b)
REM
REM compiler GCC version 9.2.1 20190827 (Red Hat 9.2.1-1)
REM options -cpp -mtune=generic -march=x86-64 -g -O0 -fpre-include=/usr/include/finclude/math-vector-fortran.h
REM seed -864539453 -1808843848 -1416145546 -1683837332 -1620702895 -1962148048 -1578675511 -2081254957 -958278847 2016503552 -670619198 -127920546 1653766863 -196379512 1703185300 -1309805957 1344346948 1742515307 -393636734 1077532421 -1631495401 -294898953 1810411235 1566290212 -563017749 637467772 1144613251 273439790 -231208878 -2053159779 -1913609680 433319804 -2020760960
REM
CELL 1.54180   50.00000   50.00000   50.00000   90.00000   90.00000   90.00000
LATT -1
SFAC C  
C      1  0.5028520000000  0.4717760000000  0.5439060000000 1.0
C      1  0.4655760000000  0.5711940000000  0.4291080000000 1.0
C      1  0.5126290000000  0.4484790000000  0.4104810000000 1.0
C      1  0.5283260000000  0.5706240000000  0.5021400000000 1.0
C      1  0.4065740000000  0.5326010000000  0.5637580000000 1.0
C      1  0.4243590000000  0.5583110000000  0.4563820000000 1.0
C      1  0.5388680000000  0.5930470000000  0.4564020000000 1.0
C      1  0.4582100000000  0.5978470000000  0.5162670000000 1.0
C      1  0.6065730000000  0.4710540000000  0.4457380000000 1.0
C      1  0.3891180000000  0.4894580000000  0.4993050000000 1.0
C      1  0.5277800000000  0.4071220000000  0.5434080000000 1.0
C      1  0.5416450000000  0.5434110000000  0.5954320000000 1.0
C      1  0.4613170000000  0.3993520000000  0.4734140000000 1.0
C      1  0.6023440000000  0.4894640000000  0.4857290000000 1.0
C      1  0.4993060000000  0.4587820000000  0.5932590000000 1.0
C      1  0.4180600000000  0.4788680000000  0.4532780000000 1.0
C      1  0.5572330000000  0.4207210000000  0.5040850000000 1.0
C      1  0.6039910000000  0.4939720000000  0.5364010000000 1.0
C      1  0.5826110000000  0.5065950000000  0.4184640000000 1.0
C      1  0.4510380000000  0.4955700000000  0.4147270000000 1.0
C      1  0.4474330000000  0.4876750000000  0.4581820000000 1.0
C      1  0.5664490000000  0.5322220000000  0.5453750000000 1.0
C      1  0.5376360000000  0.4008960000000  0.5159940000000 1.0
C      1  0.5175010000000  0.4193250000000  0.4197760000000 1.0
C      1  0.4239260000000  0.5341670000000  0.5854070000000 1.0
C      1  0.4285850000000  0.5766910000000  0.5602670000000 1.0
C      1  0.4936150000000  0.5728970000000  0.5909380000000 1.0
C      1  0.4491470000000  0.4464090000000  0.4226040000000 1.0
C      1  0.5005560000000  0.6032780000000  0.4917540000000 1.0
C      1  0.4983660000000  0.4067050000000  0.5417180000000 1.0
C      1  0.5453250000000  0.5557450000000  0.5497550000000 1.0
C      1  0.5328700000000  0.5680550000000  0.4727430000000 1.0
C      1  0.5901110000000  0.5567250000000  0.4590760000000 1.0
C      1  0.4405740000000  0.5080750000000  0.5365600000000 1.0
C      1  0.4672030000000  0.4656070000000  0.4633810000000 1.0
C      1  0.4583040000000  0.5352400000000  0.5060990000000 1.0
C      1  0.4502930000000  0.5230790000000  0.5814680000000 1.0
C      1  0.4726520000000  0.5416840000000  0.5308710000000 1.0
C      1  0.4004590000000  0.5042100000000  0.5543720000000 1.0
C      1  0.5316240000000  0.4566790000000  0.5392540000000 1.0
C      1  0.5012980000000  0.5916180000000  0.5434490000000 1.0
C      1  0.5623010000000  0.5741700000000  0.5305680000000 1.0
C      1  0.4587120000000  0.4588080000000  0.4897680000000 1.0
C      1  0.4384050000000  0.5159860000000  0.5090120000000 1.0
C      1  0.4929270000000  0.5288440000000  0.4265280000000 1.0
C      1  0.5160270000000  0.5278340000000  0.5939350000000 1.0
C      1  0.4901530000000  0.4263490000000  0.4534740000000 1.0
C      1  0.4310390000000  0.5942420000000  0.5131360000000 1.0
C      1  0.4140410000000  0.5271140000000  0.4971680000000 1.0
C      1  0.4423660000000  0.4787970000000  0.5361890000000 1.0
C      1  0.5784330000000  0.5475910000000  0.5210680000000 1.0
C      1  0.4338350000000  0.4725310000000  0.4241940000000 1.0
C      1  0.5136310000000  0.3978900000000  0.4989620000000 1.0
C      1  0.5396410000000  0.4524780000000  0.4560300000000 1.0
C      1  0.4716760000000  0.5936650000000  0.5413580000000 1.0
C      1  0.5639050000000  0.4753210000000  0.5719490000000 1.0
C      1  0.4923190000000  0.5440050000000  0.5912840000000 1.0
C      1  0.4991600000000  0.4988670000000  0.4732880000000 1.0
C      1  0.5281890000000  0.5088890000000  0.4020650000000 1.0
C      1  0.5072090000000  0.4347830000000  0.5782500000000 1.0
C      1  0.4503620000000  0.4504490000000  0.5847450000000 1.0
C      1  0.3980440000000  0.5645520000000  0.5254360000000 1.0
C      1  0.4869670000000  0.4254000000000  0.5602910000000 1.0
C      1  0.5039730000000  0.4289380000000  0.4798100000000 1.0
C      1  0.4236700000000  0.5533730000000  0.4863340000000 1.0
C      1  0.5453950000000  0.5368440000000  0.4025480000000 1.0
C      1  0.5076510000000  0.5614300000000  0.4579390000000 1.0
C      1  0.5238590000000  0.5127620000000  0.5453580000000 1.0
C      1  0.5511460000000  0.5069460000000  0.5377680000000 1.0
C      1  0.5643370000000  0.4146350000000  0.4751490000000 1.0
C      1  0.5164920000000  0.6037190000000  0.5190550000000 1.0
C      1  0.4021710000000  0.5131930000000  0.4506790000000 1.0
C      1  0.5176660000000  0.5427830000000  0.4365710000000 1.0
C      1  0.5214650000000  0.5035380000000  0.5758670000000 1.0
C      1  0.5572850000000  0.4777870000000  0.5439880000000 1.0
C      1  0.4494350000000  0.4973970000000  0.5926930000000 1.0
C      1  0.5061810000000  0.4960630000000  0.5276110000000 1.0
C      1  0.4545360000000  0.5870770000000  0.5636800000000 1.0
C      1  0.5824200000000  0.4244090000000  0.5178650000000 1.0
C      1  0.4676740000000  0.5444370000000  0.4186810000000 1.0
C      1  0.5531420000000  0.4507090000000  0.5844920000000 1.0
C      1  0.4869590000000  0.5018240000000  0.5043480000000 1.0
C      1  0.5644590000000  0.5223390000000  0.5919500000000 1.0
C      1  0.5031510000000  0.5344960000000  0.4992370000000 1.0
C      1  0.4789990000000  0.4872610000000  0.4073310000000 1.0
C      1  0.4126930000000  0.4682490000000  0.5299510000000 1.0
C      1  0.5969310000000  0.5350380000000  0.4749000000000 1.0
C      1  0.4900020000000  0.4049000000000  0.5141220000000 1.0
C      1  0.5740700000000  0.5355960000000  0.4149990000000 1.0
C      1  0.5483840000000  0.5136110000000  0.4761290000000 1.0
C      1  0.5390470000000  0.4867230000000  0.4189790000000 1.0
C      1  0.5411260000000  0.5679680000000  0.5763930000000 1.0
C      1  0.5457590000000  0.4013890000000  0.4585550000000 1.0
C      1  0.5813630000000  0.4561900000000  0.4430660000000 1.0
C      1  0.4101360000000  0.5581980000000  0.5497000000000 1.0
C      1  0.4625740000000  0.4395730000000  0.4488240000000 1.0
C      1  0.5591310000000  0.4995280000000  0.4362520000000 1.0
C      1  0.4962710000000  0.5867210000000  0.4456980000000 1.0
C      1  0.5307990000000  0.5282700000000  0.4927060000000 1.0
C      1  0.5837090000000  0.5283860000000  0.5692780000000 1.0
C      1  0.4874520000000  0.3987590000000  0.4458070000000 1.0
C      1  0.5201260000000  0.5417990000000  0.5429580000000 1.0
C      1  0.5336200000000  0.4230790000000  0.4445200000000 1.0
C      1  0.4716170000000  0.6018790000000  0.4918460000000 1.0
C      1  0.4847870000000  0.5152280000000  0.4522490000000 1.0
C      1  0.5137160000000  0.5833220000000  0.5717330000000 1.0
C      1  0.3998250000000  0.5091110000000  0.4797340000000 1.0
C      1  0.5014880000000  0.4810800000000  0.5732240000000 1.0
C      1  0.5336280000000  0.4359740000000  0.5635380000000 1.0
C      1  0.4683110000000  0.5844020000000  0.5875650000000 1.0
C      1  0.4581600000000  0.4313240000000  0.5629390000000 1.0
C      1  0.3907010000000  0.4602680000000  0.4928250000000 1.0
C      1  0.4987480000000  0.5095080000000  0.4055430000000 1.0
C      1  0.5424880000000  0.4477990000000  0.5064520000000 1.0
C      1  0.6174110000000  0.4692860000000  0.4723740000000 1.0
C      1  0.5714080000000  0.4535520000000  0.4171160000000 1.0
C      1  0.4683960000000  0.5329860000000  0.6001250000000 1.0
C      1  0.4856200000000  0.4592450000000  0.4007020000000 1.0
C      1  0.4365630000000  0.4760810000000  0.5794840000000 1.0
C      1  0.5161700000000  0.4622220000000  0.6161460000000 1.0
C      1  0.4894790000000  0.5504010000000  0.4784570000000 1.0
C      1  0.4627610000000  0.4018230000000  0.5029180000000 1.0
C      1  0.5200620000000  0.4674670000000  0.4364720000000 1.0
C      1  0.4647110000000  0.4771750000000  0.5116040000000 1.0
C      1  0.5113660000000  0.6056200000000  0.4633700000000 1.0
C      1  0.4985650000000  0.3980170000000  0.4202230000000 1.0
C      1  0.4474100000000  0.5764960000000  0.4505930000000 1.0
C      1  0.5780020000000  0.4349360000000  0.4611240000000 1.0
C      1  0.6023560000000  0.5093230000000  0.5602120000000 1.0
C      1  0.4005300000000  0.4569500000000  0.5546630000000 1.0
C      1  0.5014330000000  0.5531250000000  0.5241630000000 1.0
C      1  0.5907160000000  0.5074490000000  0.4654310000000 1.0
C      1  0.4079210000000  0.4798290000000  0.5717440000000 1.0
C      1  0.6065850000000  0.5061100000000  0.5098980000000 1.0
C      1  0.4964000000000  0.4733990000000  0.4596220000000 1.0
C      1  0.5425910000000  0.4663850000000  0.6092490000000 1.0
C      1  0.4561540000000  0.5960990000000  0.4690730000000 1.0
C      1  0.5689290000000  0.5474080000000  0.4427200000000 1.0
C      1  0.4597640000000  0.5437440000000  0.4769900000000 1.0
C      1  0.5247360000000  0.4492580000000  0.4827750000000 1.0
C      1  0.5488020000000  0.4947660000000  0.5888880000000 1.0
C      1  0.4468050000000  0.5238450000000  0.4285130000000 1.0
C      1  0.6033650000000  0.5004980000000  0.4386430000000 1.0
C      1  0.5324430000000  0.4522130000000  0.3893070000000 1.0
C      1  0.4130000000000  0.5751370000000  0.5043100000000 1.0
C      1  0.3970170000000  0.4457420000000  0.5176430000000 1.0
C      1  0.4564950000000  0.5174510000000  0.4569040000000 1.0
C      1  0.5464740000000  0.5917640000000  0.5133310000000 1.0
C      1  0.4409450000000  0.4205650000000  0.5122400000000 1.0
C      1  0.4119070000000  0.4552570000000  0.4732650000000 1.0
C      1  0.4361360000000  0.4390240000000  0.4870100000000 1.0
C      1  0.5864110000000  0.4699470000000  0.5347000000000 1.0
C      1  0.4640750000000  0.4418550000000  0.3996290000000 1.0
C      1  0.5647040000000  0.4676990000000  0.5014880000000 1.0
C      1  0.4194830000000  0.5342080000000  0.4385670000000 1.0
C      1  0.4611060000000  0.5229100000000  0.5516160000000 1.0
C      1  0.5989130000000  0.5343600000000  0.5043110000000 1.0
C      1  0.5405830000000  0.5835100000000  0.4289590000000 1.0
C      1  0.4456680000000  0.4349540000000  0.5371760000000 1.0
C      1  0.3876980000000  0.4979080000000  0.5280670000000 1.0
C      1  0.4721730000000  0.4549440000000  0.6016150000000 1.0
C      1  0.4448870000000  0.4216610000000  0.4644360000000 1.0
C      1  0.5891070000000  0.4510900000000  0.5110520000000 1.0
C      1  0.5608840000000  0.4825570000000  0.4721530000000 1.0
C      1  0.5470500000000  0.5257290000000  0.4487080000000 1.0
C      1  0.5292460000000  0.5604700000000  0.4152670000000 1.0
C      1  0.5523320000000  0.4668150000000  0.4020130000000 1.0
C      1  0.4758460000000  0.4591150000000  0.5340780000000 1.0
END
