TITL C-950533-5798-68 -5.63700923776904e-07 125000 -659.603913462233 0 0 105 (C1) n - 1
REM
REM in /home/bkarasulu/work/CARBON/AIRSS/Generating-Clusters/EDIP-Nigel-Params/with-SteepDescent/Only-C1/SD-CG/HFTN-CG
REM
REM
REM
REM
REM
REM ./C.cell (11c1c37f851c82e70ff6c80c92926a4b)
REM
REM compiler GCC version 9.2.1 20190827 (Red Hat 9.2.1-1)
REM options -cpp -mtune=generic -march=x86-64 -g -O0 -fpre-include=/usr/include/finclude/math-vector-fortran.h
REM seed 1711204466 403476791 568910159 1900668395 1187894107 -576265103 -615547218 -69219109 -863764868 -2032369587 -256188309 1226493789 -1478092092 15533116 1943818985 860464021 1889384734 952865974 1275252705 -1575199520 -1088072023 1178659923 1151118538 1031477961 -2093639073 991928827 1088914843 1400659894 1247512815 -860423721 -1078892759 -1926901192 1492072364
REM
CELL 1.54180   50.00000   50.00000   50.00000   90.00000   90.00000   90.00000
LATT -1
SFAC C  
C      1  0.4805040000000  0.5674950000000  0.4519160000000 1.0
C      1  0.5421900000000  0.5306320000000  0.4343890000000 1.0
C      1  0.5034400000000  0.5496510000000  0.5343440000000 1.0
C      1  0.4705970000000  0.5448810000000  0.4933250000000 1.0
C      1  0.4902910000000  0.4584530000000  0.5062050000000 1.0
C      1  0.5349220000000  0.4411020000000  0.5719530000000 1.0
C      1  0.4845470000000  0.4450130000000  0.4384950000000 1.0
C      1  0.5433050000000  0.5206010000000  0.5072210000000 1.0
C      1  0.5581220000000  0.5483170000000  0.5046840000000 1.0
C      1  0.4891440000000  0.5297950000000  0.4759790000000 1.0
C      1  0.4677450000000  0.5914100000000  0.5235310000000 1.0
C      1  0.4393900000000  0.5125620000000  0.5708320000000 1.0
C      1  0.5421820000000  0.4901940000000  0.5774700000000 1.0
C      1  0.4260820000000  0.5686350000000  0.5198030000000 1.0
C      1  0.5250000000000  0.5158720000000  0.4824960000000 1.0
C      1  0.5355120000000  0.5026290000000  0.4276380000000 1.0
C      1  0.5349800000000  0.5171940000000  0.5816390000000 1.0
C      1  0.4789560000000  0.4292810000000  0.5695110000000 1.0
C      1  0.4924560000000  0.4298710000000  0.5449150000000 1.0
C      1  0.4496850000000  0.4473300000000  0.5292810000000 1.0
C      1  0.5450850000000  0.5687530000000  0.5243570000000 1.0
C      1  0.4163850000000  0.5011060000000  0.5235770000000 1.0
C      1  0.5062830000000  0.4587460000000  0.3973120000000 1.0
C      1  0.5476730000000  0.5554380000000  0.4786730000000 1.0
C      1  0.5194310000000  0.4639420000000  0.4675480000000 1.0
C      1  0.4701440000000  0.5427170000000  0.5417790000000 1.0
C      1  0.4711700000000  0.5483530000000  0.4301380000000 1.0
C      1  0.5333780000000  0.4899910000000  0.4700490000000 1.0
C      1  0.4335030000000  0.4543200000000  0.5055520000000 1.0
C      1  0.5606830000000  0.4877980000000  0.5555750000000 1.0
C      1  0.4513760000000  0.4958990000000  0.5478010000000 1.0
C      1  0.5303600000000  0.4309630000000  0.4282610000000 1.0
C      1  0.5894180000000  0.5092580000000  0.5226740000000 1.0
C      1  0.5592570000000  0.4653470000000  0.5378470000000 1.0
C      1  0.4588840000000  0.5360910000000  0.5702200000000 1.0
C      1  0.4580070000000  0.4222580000000  0.4756090000000 1.0
C      1  0.4987490000000  0.4075100000000  0.4844530000000 1.0
C      1  0.5034280000000  0.5482530000000  0.5817070000000 1.0
C      1  0.5215210000000  0.5226220000000  0.5322780000000 1.0
C      1  0.4149880000000  0.5082800000000  0.5531270000000 1.0
C      1  0.5757530000000  0.5111500000000  0.5477220000000 1.0
C      1  0.5792250000000  0.5006570000000  0.4731340000000 1.0
C      1  0.4720010000000  0.4566370000000  0.5736150000000 1.0
C      1  0.4724260000000  0.4695120000000  0.4828610000000 1.0
C      1  0.5086410000000  0.5629240000000  0.4546680000000 1.0
C      1  0.4177550000000  0.4793010000000  0.5024180000000 1.0
C      1  0.5570480000000  0.4899220000000  0.4528040000000 1.0
C      1  0.5425160000000  0.5594270000000  0.5532460000000 1.0
C      1  0.5874150000000  0.5440090000000  0.4954510000000 1.0
C      1  0.4691910000000  0.5138260000000  0.4584130000000 1.0
C      1  0.4498180000000  0.5315600000000  0.4418030000000 1.0
C      1  0.5222220000000  0.4228440000000  0.4958790000000 1.0
C      1  0.4968210000000  0.5044910000000  0.5223160000000 1.0
C      1  0.4430490000000  0.4691740000000  0.4330850000000 1.0
C      1  0.5668670000000  0.4694070000000  0.5108100000000 1.0
C      1  0.5375960000000  0.4466430000000  0.4500940000000 1.0
C      1  0.4313670000000  0.4644110000000  0.4579810000000 1.0
C      1  0.4751710000000  0.5951110000000  0.4954470000000 1.0
C      1  0.4525000000000  0.5215690000000  0.5032130000000 1.0
C      1  0.4654540000000  0.5705430000000  0.4782740000000 1.0
C      1  0.4484080000000  0.4505500000000  0.4797140000000 1.0
C      1  0.4759030000000  0.4350340000000  0.5202420000000 1.0
C      1  0.5064860000000  0.4407240000000  0.4189520000000 1.0
C      1  0.4541730000000  0.5666250000000  0.5282100000000 1.0
C      1  0.5031980000000  0.5028130000000  0.4209910000000 1.0
C      1  0.5631270000000  0.4605750000000  0.4483190000000 1.0
C      1  0.4733440000000  0.4128520000000  0.4991150000000 1.0
C      1  0.4225230000000  0.5256050000000  0.5098420000000 1.0
C      1  0.5836450000000  0.5292660000000  0.4688690000000 1.0
C      1  0.5203330000000  0.5592330000000  0.4812360000000 1.0
C      1  0.5001600000000  0.4756630000000  0.5275010000000 1.0
C      1  0.5024250000000  0.5956250000000  0.5075670000000 1.0
C      1  0.5456950000000  0.4194320000000  0.5264170000000 1.0
C      1  0.6043320000000  0.5310120000000  0.5137620000000 1.0
C      1  0.4653510000000  0.4590140000000  0.4196940000000 1.0
C      1  0.4365250000000  0.5710090000000  0.4713840000000 1.0
C      1  0.4868950000000  0.4944480000000  0.4444680000000 1.0
C      1  0.4121050000000  0.5458210000000  0.5261270000000 1.0
C      1  0.5156900000000  0.4510390000000  0.4938370000000 1.0
C      1  0.4792720000000  0.4198850000000  0.4556620000000 1.0
C      1  0.5603060000000  0.4214580000000  0.5019800000000 1.0
C      1  0.4932480000000  0.4756110000000  0.5839560000000 1.0
C      1  0.5804530000000  0.4506470000000  0.4679450000000 1.0
C      1  0.4871720000000  0.5027050000000  0.5892230000000 1.0
C      1  0.5135070000000  0.5623090000000  0.5597200000000 1.0
C      1  0.4909500000000  0.4681320000000  0.4576480000000 1.0
C      1  0.5486990000000  0.4402250000000  0.5463910000000 1.0
C      1  0.4314030000000  0.5482100000000  0.4555930000000 1.0
C      1  0.5565920000000  0.5363210000000  0.4596900000000 1.0
C      1  0.4855410000000  0.4766510000000  0.4041770000000 1.0
C      1  0.4530150000000  0.4659910000000  0.5526740000000 1.0
C      1  0.5182140000000  0.5475300000000  0.4312200000000 1.0
C      1  0.5080180000000  0.4555180000000  0.5489390000000 1.0
C      1  0.5235740000000  0.4674600000000  0.5826190000000 1.0
C      1  0.4257830000000  0.4887580000000  0.4746100000000 1.0
C      1  0.4543720000000  0.4987080000000  0.4811830000000 1.0
C      1  0.5428920000000  0.5284360000000  0.5553470000000 1.0
C      1  0.4957050000000  0.5335500000000  0.4178250000000 1.0
C      1  0.4992080000000  0.5067730000000  0.4932930000000 1.0
C      1  0.4823650000000  0.5303510000000  0.5868160000000 1.0
C      1  0.5702190000000  0.4982450000000  0.5028130000000 1.0
C      1  0.4211330000000  0.5778260000000  0.4936860000000 1.0
C      1  0.5160550000000  0.5696150000000  0.5101280000000 1.0
C      1  0.4678580000000  0.5147170000000  0.5287950000000 1.0
C      1  0.5725180000000  0.4463500000000  0.4944230000000 1.0
END
