TITL C-950532-2784-384 -2.05373870180301e-06 125000 -1246.52327467663 0 0 197 (C1) n - 1
REM
REM in /home/bkarasulu/work/CARBON/AIRSS/Generating-Clusters/EDIP-Nigel-Params/with-SteepDescent/Only-C1/SD-CG/HFTN-CG
REM
REM
REM
REM
REM
REM ./C.cell (11c1c37f851c82e70ff6c80c92926a4b)
REM
REM compiler GCC version 9.2.1 20190827 (Red Hat 9.2.1-1)
REM options -cpp -mtune=generic -march=x86-64 -g -O0 -fpre-include=/usr/include/finclude/math-vector-fortran.h
REM seed -1033553018 -1658938759 1630396714 1000324056 835267475 -1591450061 441495223 816960998 -1145493758 2041449678 77076002 -495810501 668089735 -1919186931 -688663641 1080226604 35736198 -624425151 -1562295151 1603996582 745856353 1849993125 -1115707598 -1131867819 -1439898760 -299353862 269639472 1295942448 1974436040 30139366 -1764034665 1332906651 -1992839814
REM
CELL 1.54180   50.00000   50.00000   50.00000   90.00000   90.00000   90.00000
LATT -1
SFAC C  
C      1  0.4718890000000  0.5671670000000  0.5294470000000 1.0
C      1  0.5364930000000  0.4014250000000  0.4997450000000 1.0
C      1  0.4724850000000  0.4347000000000  0.4739460000000 1.0
C      1  0.6090300000000  0.5404170000000  0.5035020000000 1.0
C      1  0.6095470000000  0.5256550000000  0.5299870000000 1.0
C      1  0.5121120000000  0.4916140000000  0.3842470000000 1.0
C      1  0.5612420000000  0.5800170000000  0.4521820000000 1.0
C      1  0.5506360000000  0.5033010000000  0.4780080000000 1.0
C      1  0.6050490000000  0.5158960000000  0.4849390000000 1.0
C      1  0.5164990000000  0.4788840000000  0.5045040000000 1.0
C      1  0.5909780000000  0.4806810000000  0.5469220000000 1.0
C      1  0.5196770000000  0.4641150000000  0.3865440000000 1.0
C      1  0.4400450000000  0.5045870000000  0.5126120000000 1.0
C      1  0.4068500000000  0.5428380000000  0.4909570000000 1.0
C      1  0.4380680000000  0.4678640000000  0.4480460000000 1.0
C      1  0.4491400000000  0.4358510000000  0.5701650000000 1.0
C      1  0.5080890000000  0.4984660000000  0.4367900000000 1.0
C      1  0.4387670000000  0.5852940000000  0.5005190000000 1.0
C      1  0.4190400000000  0.4391430000000  0.5606920000000 1.0
C      1  0.5766870000000  0.4180650000000  0.5062990000000 1.0
C      1  0.4253800000000  0.4978020000000  0.4869610000000 1.0
C      1  0.5089360000000  0.4367970000000  0.5288290000000 1.0
C      1  0.5360370000000  0.4339740000000  0.4219320000000 1.0
C      1  0.4816510000000  0.6100490000000  0.4937460000000 1.0
C      1  0.4566670000000  0.5856460000000  0.5470950000000 1.0
C      1  0.5215010000000  0.5258230000000  0.5830890000000 1.0
C      1  0.4639210000000  0.4753810000000  0.3812080000000 1.0
C      1  0.4125550000000  0.4901670000000  0.5553620000000 1.0
C      1  0.4980070000000  0.4469820000000  0.3830980000000 1.0
C      1  0.5378460000000  0.4773340000000  0.5280440000000 1.0
C      1  0.6030460000000  0.5154040000000  0.4540640000000 1.0
C      1  0.4567070000000  0.6084440000000  0.5089800000000 1.0
C      1  0.4826660000000  0.4875330000000  0.4267700000000 1.0
C      1  0.5302490000000  0.4615980000000  0.6197970000000 1.0
C      1  0.4590180000000  0.5086720000000  0.5577650000000 1.0
C      1  0.4315380000000  0.4691000000000  0.4787610000000 1.0
C      1  0.4307330000000  0.4235680000000  0.4651830000000 1.0
C      1  0.5003240000000  0.5264890000000  0.5380030000000 1.0
C      1  0.4705500000000  0.5080040000000  0.5098370000000 1.0
C      1  0.4997960000000  0.5748250000000  0.4539210000000 1.0
C      1  0.3863350000000  0.4743860000000  0.4574190000000 1.0
C      1  0.5263700000000  0.6083430000000  0.4782620000000 1.0
C      1  0.5455070000000  0.5754720000000  0.4271900000000 1.0
C      1  0.4962280000000  0.4101480000000  0.5795500000000 1.0
C      1  0.4724660000000  0.4589360000000  0.5163780000000 1.0
C      1  0.5390240000000  0.5419230000000  0.5201600000000 1.0
C      1  0.5661610000000  0.4686460000000  0.4093930000000 1.0
C      1  0.5079250000000  0.4662980000000  0.6361110000000 1.0
C      1  0.5213620000000  0.5379270000000  0.3979420000000 1.0
C      1  0.5082460000000  0.5071910000000  0.5612850000000 1.0
C      1  0.4751410000000  0.4045250000000  0.4430420000000 1.0
C      1  0.4782270000000  0.6118990000000  0.4648740000000 1.0
C      1  0.5522610000000  0.5418720000000  0.4729420000000 1.0
C      1  0.4981870000000  0.5579270000000  0.5429510000000 1.0
C      1  0.4868340000000  0.4339460000000  0.4434450000000 1.0
C      1  0.4374680000000  0.4682890000000  0.6052150000000 1.0
C      1  0.5850300000000  0.4527240000000  0.5394780000000 1.0
C      1  0.5191990000000  0.3949300000000  0.5732310000000 1.0
C      1  0.4554300000000  0.5936680000000  0.4542650000000 1.0
C      1  0.4852580000000  0.5346230000000  0.4376070000000 1.0
C      1  0.4319510000000  0.5907930000000  0.4719930000000 1.0
C      1  0.5239410000000  0.5950520000000  0.4225230000000 1.0
C      1  0.5848960000000  0.5355800000000  0.4402850000000 1.0
C      1  0.5908920000000  0.4431670000000  0.5121590000000 1.0
C      1  0.4909560000000  0.5384020000000  0.4043700000000 1.0
C      1  0.5749880000000  0.4323080000000  0.4568240000000 1.0
C      1  0.5250060000000  0.4020810000000  0.4511160000000 1.0
C      1  0.4748980000000  0.5442760000000  0.4841520000000 1.0
C      1  0.4396320000000  0.5536260000000  0.4309630000000 1.0
C      1  0.5758260000000  0.5553510000000  0.4602080000000 1.0
C      1  0.4146540000000  0.5813830000000  0.5199800000000 1.0
C      1  0.4510320000000  0.5797990000000  0.4267200000000 1.0
C      1  0.5231270000000  0.5973390000000  0.5280710000000 1.0
C      1  0.5505790000000  0.5345950000000  0.5701920000000 1.0
C      1  0.4740600000000  0.5590430000000  0.4572440000000 1.0
C      1  0.5038260000000  0.5465030000000  0.4908100000000 1.0
C      1  0.5654500000000  0.5801740000000  0.5494440000000 1.0
C      1  0.5015260000000  0.5765640000000  0.4243160000000 1.0
C      1  0.5464290000000  0.4834900000000  0.6113820000000 1.0
C      1  0.4272520000000  0.5758570000000  0.5467810000000 1.0
C      1  0.5068350000000  0.5516420000000  0.5855930000000 1.0
C      1  0.4367010000000  0.5163670000000  0.4654370000000 1.0
C      1  0.4575190000000  0.4092470000000  0.5151350000000 1.0
C      1  0.5040430000000  0.4577330000000  0.5528610000000 1.0
C      1  0.4223710000000  0.5349370000000  0.4461460000000 1.0
C      1  0.4829590000000  0.4953710000000  0.5739680000000 1.0
C      1  0.4657600000000  0.5172750000000  0.4670980000000 1.0
C      1  0.5676250000000  0.4362390000000  0.5567170000000 1.0
C      1  0.4402760000000  0.4891430000000  0.5416780000000 1.0
C      1  0.5211930000000  0.4811510000000  0.5517860000000 1.0
C      1  0.3873030000000  0.4744610000000  0.4855570000000 1.0
C      1  0.4699390000000  0.4129520000000  0.5648080000000 1.0
C      1  0.5956630000000  0.5390620000000  0.5520380000000 1.0
C      1  0.5180090000000  0.5349380000000  0.4453400000000 1.0
C      1  0.4873270000000  0.4734840000000  0.6187070000000 1.0
C      1  0.6092860000000  0.4645710000000  0.4596070000000 1.0
C      1  0.5390240000000  0.5079880000000  0.6223190000000 1.0
C      1  0.4953900000000  0.4361180000000  0.4978310000000 1.0
C      1  0.4979770000000  0.3904840000000  0.4575580000000 1.0
C      1  0.3961080000000  0.5007170000000  0.4978520000000 1.0
C      1  0.3962730000000  0.5575310000000  0.5132630000000 1.0
C      1  0.5635590000000  0.4264280000000  0.4287650000000 1.0
C      1  0.5019370000000  0.4305630000000  0.5986360000000 1.0
C      1  0.4747630000000  0.4029650000000  0.5381630000000 1.0
C      1  0.5619720000000  0.4757430000000  0.5879830000000 1.0
C      1  0.6084990000000  0.4899060000000  0.4997820000000 1.0
C      1  0.5831530000000  0.4439230000000  0.4145820000000 1.0
C      1  0.4817900000000  0.4655340000000  0.5702610000000 1.0
C      1  0.5463820000000  0.3981430000000  0.4739710000000 1.0
C      1  0.4014530000000  0.4676110000000  0.4343300000000 1.0
C      1  0.5615620000000  0.5272640000000  0.4235800000000 1.0
C      1  0.4785720000000  0.5566230000000  0.5820870000000 1.0
C      1  0.4324890000000  0.5328770000000  0.5729480000000 1.0
C      1  0.4303020000000  0.4191600000000  0.5163760000000 1.0
C      1  0.4346000000000  0.5360030000000  0.5164470000000 1.0
C      1  0.5414810000000  0.4388350000000  0.4907820000000 1.0
C      1  0.4619640000000  0.5045840000000  0.4144310000000 1.0
C      1  0.4913840000000  0.3940400000000  0.4856050000000 1.0
C      1  0.3953600000000  0.5370140000000  0.5366280000000 1.0
C      1  0.5778170000000  0.4931730000000  0.5703780000000 1.0
C      1  0.4602600000000  0.5142470000000  0.6071320000000 1.0
C      1  0.5488950000000  0.5649210000000  0.5687830000000 1.0
C      1  0.4874660000000  0.5004210000000  0.6057810000000 1.0
C      1  0.5849690000000  0.5614890000000  0.5081360000000 1.0
C      1  0.5532110000000  0.4489500000000  0.5796270000000 1.0
C      1  0.5301470000000  0.3997680000000  0.5481380000000 1.0
C      1  0.5222850000000  0.5739700000000  0.5765260000000 1.0
C      1  0.5398370000000  0.4418260000000  0.5225810000000 1.0
C      1  0.5488370000000  0.5896500000000  0.4776400000000 1.0
C      1  0.5536240000000  0.5969390000000  0.5272860000000 1.0
C      1  0.5712080000000  0.4870140000000  0.4345030000000 1.0
C      1  0.5227470000000  0.5022090000000  0.4880690000000 1.0
C      1  0.4269580000000  0.4408400000000  0.4419940000000 1.0
C      1  0.4201050000000  0.5070630000000  0.5791570000000 1.0
C      1  0.5053250000000  0.4974090000000  0.4649280000000 1.0
C      1  0.5218680000000  0.5554270000000  0.4688030000000 1.0
C      1  0.4566990000000  0.5383030000000  0.5901440000000 1.0
C      1  0.4759730000000  0.5837390000000  0.5702840000000 1.0
C      1  0.5152090000000  0.5150220000000  0.6093680000000 1.0
C      1  0.5173500000000  0.4293850000000  0.4434170000000 1.0
C      1  0.4713180000000  0.5196270000000  0.3905130000000 1.0
C      1  0.4520540000000  0.4026450000000  0.4642640000000 1.0
C      1  0.6041920000000  0.4975420000000  0.5268130000000 1.0
C      1  0.4757820000000  0.5798980000000  0.4094260000000 1.0
C      1  0.4717900000000  0.4489730000000  0.3773400000000 1.0
C      1  0.4814660000000  0.4531340000000  0.5978690000000 1.0
C      1  0.6005030000000  0.4883650000000  0.4421780000000 1.0
C      1  0.5372780000000  0.5450750000000  0.4229020000000 1.0
C      1  0.5378040000000  0.4592290000000  0.4086100000000 1.0
C      1  0.5049740000000  0.5921250000000  0.5610160000000 1.0
C      1  0.4516890000000  0.4602630000000  0.5394490000000 1.0
C      1  0.5605990000000  0.4993940000000  0.5301000000000 1.0
C      1  0.4017360000000  0.4520030000000  0.4967910000000 1.0
C      1  0.4137330000000  0.4908550000000  0.4196510000000 1.0
C      1  0.5621900000000  0.5405600000000  0.5014070000000 1.0
C      1  0.4182840000000  0.4290850000000  0.4912960000000 1.0
C      1  0.5467880000000  0.5239560000000  0.5422800000000 1.0
C      1  0.4056440000000  0.4636370000000  0.5660170000000 1.0
C      1  0.4636430000000  0.3951810000000  0.4909120000000 1.0
C      1  0.4704050000000  0.4688810000000  0.4467940000000 1.0
C      1  0.5048190000000  0.4064500000000  0.5327230000000 1.0
C      1  0.4726710000000  0.5236030000000  0.5352930000000 1.0
C      1  0.5553940000000  0.4799360000000  0.4593870000000 1.0
C      1  0.5104150000000  0.3953270000000  0.5064790000000 1.0
C      1  0.4745440000000  0.5587220000000  0.3900610000000 1.0
C      1  0.5311840000000  0.4398070000000  0.6002990000000 1.0
C      1  0.5156430000000  0.5261490000000  0.5072490000000 1.0
C      1  0.5324620000000  0.5121300000000  0.3894360000000 1.0
C      1  0.5594410000000  0.5063130000000  0.4025350000000 1.0
C      1  0.5548060000000  0.4176010000000  0.5367250000000 1.0
C      1  0.5701650000000  0.5103260000000  0.5015370000000 1.0
C      1  0.4239450000000  0.5457820000000  0.5460550000000 1.0
C      1  0.4264190000000  0.4433520000000  0.5326890000000 1.0
C      1  0.4401490000000  0.4861660000000  0.4077490000000 1.0
C      1  0.5661770000000  0.5878310000000  0.5015360000000 1.0
C      1  0.4583550000000  0.6125610000000  0.5365640000000 1.0
C      1  0.5984790000000  0.4640260000000  0.4896540000000 1.0
C      1  0.4375420000000  0.4958900000000  0.5999960000000 1.0
C      1  0.4047890000000  0.5514070000000  0.4637170000000 1.0
C      1  0.5102930000000  0.6102720000000  0.5028290000000 1.0
C      1  0.5733920000000  0.4101890000000  0.4769250000000 1.0
C      1  0.5072030000000  0.6072210000000  0.4552580000000 1.0
C      1  0.4094200000000  0.5786240000000  0.4612780000000 1.0
C      1  0.4556990000000  0.5570950000000  0.5060880000000 1.0
C      1  0.4082980000000  0.5171080000000  0.4283820000000 1.0
C      1  0.4784250000000  0.4889520000000  0.4714780000000 1.0
C      1  0.5787010000000  0.5230950000000  0.5733850000000 1.0
C      1  0.5635010000000  0.4550100000000  0.4739420000000 1.0
C      1  0.4839710000000  0.4968360000000  0.3761810000000 1.0
C      1  0.5161820000000  0.4538140000000  0.4871110000000 1.0
C      1  0.4875540000000  0.4837320000000  0.5144500000000 1.0
C      1  0.5864910000000  0.5636500000000  0.5382470000000 1.0
C      1  0.4595040000000  0.4602130000000  0.4886380000000 1.0
C      1  0.4528120000000  0.4461280000000  0.5979740000000 1.0
C      1  0.3943470000000  0.5075700000000  0.5282370000000 1.0
C      1  0.5203820000000  0.5675010000000  0.5261210000000 1.0
C      1  0.6019340000000  0.4401570000000  0.4460640000000 1.0
END
