TITL C-951347-9520-683 3.50198072486695e-06 125000 -715.753163289194 0 0 116 (C1) n - 1
REM
REM in /home/bkarasulu/work/CARBON/AIRSS/Generating-Clusters/EDIP-Nigel-Params/with-SteepDescent/Only-C1/SD-CG/HFTN-CG
REM
REM
REM
REM
REM
REM ./C.cell (11c1c37f851c82e70ff6c80c92926a4b)
REM
REM compiler GCC version 9.2.1 20190827 (Red Hat 9.2.1-1)
REM options -cpp -mtune=generic -march=x86-64 -g -O0 -fpre-include=/usr/include/finclude/math-vector-fortran.h
REM seed -583483122 -798511589 207773371 2067456821 650915607 1041190308 368805413 2085559346 -1952175167 794822119 1347737288 -585614602 -1956212743 -1753111303 1210666663 -382122127 713905861 -229626173 -164222856 89223686 1790268609 1325571358 -1356436862 1699161656 20591514 -83545018 415235418 1083342643 817483218 -1625377038 617851599 -1692612950 -250271353
REM
CELL 1.54180   50.00000   50.00000   50.00000   90.00000   90.00000   90.00000
LATT -1
SFAC C  
C      1  0.4532300000000  0.4447210000000  0.4474330000000 1.0
C      1  0.4064940000000  0.4515780000000  0.5632520000000 1.0
C      1  0.4683820000000  0.5248210000000  0.4538570000000 1.0
C      1  0.4829970000000  0.4174410000000  0.4729620000000 1.0
C      1  0.4174030000000  0.4195440000000  0.5261780000000 1.0
C      1  0.5839990000000  0.4614840000000  0.5184250000000 1.0
C      1  0.4236830000000  0.5397780000000  0.5369770000000 1.0
C      1  0.4600050000000  0.5281600000000  0.5860280000000 1.0
C      1  0.4816470000000  0.5442120000000  0.4745120000000 1.0
C      1  0.5304040000000  0.4608210000000  0.4267500000000 1.0
C      1  0.4386530000000  0.5763520000000  0.5082020000000 1.0
C      1  0.4096350000000  0.4861250000000  0.4605080000000 1.0
C      1  0.5793600000000  0.5344140000000  0.5324930000000 1.0
C      1  0.4953570000000  0.3992590000000  0.5185760000000 1.0
C      1  0.5365500000000  0.5479490000000  0.5574210000000 1.0
C      1  0.4828630000000  0.4672820000000  0.4180040000000 1.0
C      1  0.5756090000000  0.4694720000000  0.4655000000000 1.0
C      1  0.5529160000000  0.5513440000000  0.4673240000000 1.0
C      1  0.4730800000000  0.5735490000000  0.4708880000000 1.0
C      1  0.5746980000000  0.5176170000000  0.4501210000000 1.0
C      1  0.5597310000000  0.4428140000000  0.4963550000000 1.0
C      1  0.4505240000000  0.4985910000000  0.5898290000000 1.0
C      1  0.5201360000000  0.5908960000000  0.4776940000000 1.0
C      1  0.5333830000000  0.4578630000000  0.4980740000000 1.0
C      1  0.5605080000000  0.4906970000000  0.4487890000000 1.0
C      1  0.5226610000000  0.5047010000000  0.4858380000000 1.0
C      1  0.5203120000000  0.4420870000000  0.5181510000000 1.0
C      1  0.4663540000000  0.4905880000000  0.4149050000000 1.0
C      1  0.5308850000000  0.4431220000000  0.5703860000000 1.0
C      1  0.4892320000000  0.5792130000000  0.4426630000000 1.0
C      1  0.4882380000000  0.4274650000000  0.5576020000000 1.0
C      1  0.5736740000000  0.4387900000000  0.5375870000000 1.0
C      1  0.4698500000000  0.4431210000000  0.4247950000000 1.0
C      1  0.4620050000000  0.5756620000000  0.5258080000000 1.0
C      1  0.5087890000000  0.5174890000000  0.4114180000000 1.0
C      1  0.4431620000000  0.5731770000000  0.4791740000000 1.0
C      1  0.5923710000000  0.5059340000000  0.4971840000000 1.0
C      1  0.5618990000000  0.4183620000000  0.5174830000000 1.0
C      1  0.4150820000000  0.4914710000000  0.5331420000000 1.0
C      1  0.5331880000000  0.4947960000000  0.4600000000000 1.0
C      1  0.5346100000000  0.5692830000000  0.5377410000000 1.0
C      1  0.4257010000000  0.5039630000000  0.4467550000000 1.0
C      1  0.5749830000000  0.5559590000000  0.5145040000000 1.0
C      1  0.5448970000000  0.5034920000000  0.5894990000000 1.0
C      1  0.4824600000000  0.4221910000000  0.5307470000000 1.0
C      1  0.4927670000000  0.5674960000000  0.5610070000000 1.0
C      1  0.5466090000000  0.5876110000000  0.4922700000000 1.0
C      1  0.4347390000000  0.4574210000000  0.5628680000000 1.0
C      1  0.5637400000000  0.5385050000000  0.4324910000000 1.0
C      1  0.5869260000000  0.5257060000000  0.4765210000000 1.0
C      1  0.4690630000000  0.5373210000000  0.4253950000000 1.0
C      1  0.4468350000000  0.5455650000000  0.5658960000000 1.0
C      1  0.4747600000000  0.4838390000000  0.6021800000000 1.0
C      1  0.4643170000000  0.5648990000000  0.5532740000000 1.0
C      1  0.4980520000000  0.5023930000000  0.6006410000000 1.0
C      1  0.5676800000000  0.5778060000000  0.4733480000000 1.0
C      1  0.4398830000000  0.5243630000000  0.4620750000000 1.0
C      1  0.5306580000000  0.4140620000000  0.5148220000000 1.0
C      1  0.5136650000000  0.4880440000000  0.5276340000000 1.0
C      1  0.5032430000000  0.4444650000000  0.5739080000000 1.0
C      1  0.4898660000000  0.4449520000000  0.4821760000000 1.0
C      1  0.5105470000000  0.4686000000000  0.4068390000000 1.0
C      1  0.4478330000000  0.4409330000000  0.4967870000000 1.0
C      1  0.5855450000000  0.4782040000000  0.4931410000000 1.0
C      1  0.4838040000000  0.4908350000000  0.4554180000000 1.0
C      1  0.4893680000000  0.5588930000000  0.4210110000000 1.0
C      1  0.5159720000000  0.5454220000000  0.4154460000000 1.0
C      1  0.5313470000000  0.5047720000000  0.5647770000000 1.0
C      1  0.5129210000000  0.5137270000000  0.5414750000000 1.0
C      1  0.5669300000000  0.5126910000000  0.5753250000000 1.0
C      1  0.4410650000000  0.4927810000000  0.4263690000000 1.0
C      1  0.4661690000000  0.4659970000000  0.4646820000000 1.0
C      1  0.5325590000000  0.4863550000000  0.5064680000000 1.0
C      1  0.4867810000000  0.4742230000000  0.5253680000000 1.0
C      1  0.4800500000000  0.5154070000000  0.4099800000000 1.0
C      1  0.5863590000000  0.5551890000000  0.4871800000000 1.0
C      1  0.5631880000000  0.5342540000000  0.5568930000000 1.0
C      1  0.4897540000000  0.5236070000000  0.5810900000000 1.0
C      1  0.5284480000000  0.4052290000000  0.4838930000000 1.0
C      1  0.4524880000000  0.4231680000000  0.4711940000000 1.0
C      1  0.5243450000000  0.4956720000000  0.4012520000000 1.0
C      1  0.5276280000000  0.5354630000000  0.4912230000000 1.0
C      1  0.4099520000000  0.4969990000000  0.5068100000000 1.0
C      1  0.5167910000000  0.5712660000000  0.4543300000000 1.0
C      1  0.4263040000000  0.4230840000000  0.5002580000000 1.0
C      1  0.4917360000000  0.4455030000000  0.5144700000000 1.0
C      1  0.4918940000000  0.4725380000000  0.5773510000000 1.0
C      1  0.4762610000000  0.4835440000000  0.5539740000000 1.0
C      1  0.4282810000000  0.5475860000000  0.4760940000000 1.0
C      1  0.4195660000000  0.4447160000000  0.5385970000000 1.0
C      1  0.4868990000000  0.5114060000000  0.5545670000000 1.0
C      1  0.5976220000000  0.5151080000000  0.5233940000000 1.0
C      1  0.5489350000000  0.5674180000000  0.5133410000000 1.0
C      1  0.4710230000000  0.4888710000000  0.5042430000000 1.0
C      1  0.4909790000000  0.5018960000000  0.4837660000000 1.0
C      1  0.5344490000000  0.4276530000000  0.4632620000000 1.0
C      1  0.5099300000000  0.5453870000000  0.4685550000000 1.0
C      1  0.4990730000000  0.3975920000000  0.4888810000000 1.0
C      1  0.5059280000000  0.5737530000000  0.5355140000000 1.0
C      1  0.5098740000000  0.5474700000000  0.5748850000000 1.0
C      1  0.4599140000000  0.5136360000000  0.5142110000000 1.0
C      1  0.5520280000000  0.4805230000000  0.4212120000000 1.0
C      1  0.4918800000000  0.5896100000000  0.4893560000000 1.0
C      1  0.4868290000000  0.5884980000000  0.5178060000000 1.0
C      1  0.4199570000000  0.5549930000000  0.5126980000000 1.0
C      1  0.4810320000000  0.5341150000000  0.5043790000000 1.0
C      1  0.4350330000000  0.5131210000000  0.5320220000000 1.0
C      1  0.5548950000000  0.4438440000000  0.5581940000000 1.0
C      1  0.5154130000000  0.4737180000000  0.4507900000000 1.0
C      1  0.5648170000000  0.4387210000000  0.4660290000000 1.0
C      1  0.5094870000000  0.5387350000000  0.5187700000000 1.0
C      1  0.4490940000000  0.4705050000000  0.4895800000000 1.0
C      1  0.4470320000000  0.4844620000000  0.5627160000000 1.0
C      1  0.5405160000000  0.5561810000000  0.4281940000000 1.0
C      1  0.5178050000000  0.4516560000000  0.4723730000000 1.0
C      1  0.4212720000000  0.4823640000000  0.4855250000000 1.0
END
