TITL C-950525-1983-78 -8.46711963675539e-08 125000 -1053.93684872853 0 0 169 (C1) n - 1
REM
REM in /home/bkarasulu/work/CARBON/AIRSS/Generating-Clusters/EDIP-Nigel-Params/with-SteepDescent/Only-C1/SD-CG/HFTN-CG
REM
REM
REM
REM
REM
REM ./C.cell (11c1c37f851c82e70ff6c80c92926a4b)
REM
REM compiler GCC version 9.2.1 20190827 (Red Hat 9.2.1-1)
REM options -cpp -mtune=generic -march=x86-64 -g -O0 -fpre-include=/usr/include/finclude/math-vector-fortran.h
REM seed 638679785 970060658 1003007362 755106802 26207125 -494426931 1629152490 -891870230 754962647 1229529356 2028039501 -1387803504 -2125320054 -1652534385 83028213 -228174049 241191881 -628861061 458538988 1288564046 134265721 -114177675 1419529315 -1756936077 1883321958 1757105260 838433905 1592671937 169626111 1364264148 -910534634 -2015388285 -179516666
REM
CELL 1.54180   50.00000   50.00000   50.00000   90.00000   90.00000   90.00000
LATT -1
SFAC C  
C      1  0.4997700000000  0.5604230000000  0.4759720000000 1.0
C      1  0.5428120000000  0.5473330000000  0.5276280000000 1.0
C      1  0.5375040000000  0.4090020000000  0.4514320000000 1.0
C      1  0.4056430000000  0.4479990000000  0.5329750000000 1.0
C      1  0.4258810000000  0.4907290000000  0.4544540000000 1.0
C      1  0.5203710000000  0.5352770000000  0.4794060000000 1.0
C      1  0.5140860000000  0.5517470000000  0.5400660000000 1.0
C      1  0.4234700000000  0.5308550000000  0.5548110000000 1.0
C      1  0.6040680000000  0.5587640000000  0.4936700000000 1.0
C      1  0.5789760000000  0.4213830000000  0.4706310000000 1.0
C      1  0.5060240000000  0.4484410000000  0.6024990000000 1.0
C      1  0.4671380000000  0.4445880000000  0.5331050000000 1.0
C      1  0.4959290000000  0.5119790000000  0.5136850000000 1.0
C      1  0.4810820000000  0.5380970000000  0.5087980000000 1.0
C      1  0.5166420000000  0.5685380000000  0.5656300000000 1.0
C      1  0.5887250000000  0.4675930000000  0.4719010000000 1.0
C      1  0.5103650000000  0.4856930000000  0.4065800000000 1.0
C      1  0.4862970000000  0.6188600000000  0.4666420000000 1.0
C      1  0.4646340000000  0.4509410000000  0.4858140000000 1.0
C      1  0.5843670000000  0.5185430000000  0.4717700000000 1.0
C      1  0.4338790000000  0.4804740000000  0.4123990000000 1.0
C      1  0.5511650000000  0.4006310000000  0.5010360000000 1.0
C      1  0.5115410000000  0.5160150000000  0.5738960000000 1.0
C      1  0.4443970000000  0.5264710000000  0.4797820000000 1.0
C      1  0.5467030000000  0.5561940000000  0.4146650000000 1.0
C      1  0.4503340000000  0.4978550000000  0.4730120000000 1.0
C      1  0.5502070000000  0.4554400000000  0.5770250000000 1.0
C      1  0.4914320000000  0.4751160000000  0.4480930000000 1.0
C      1  0.4185920000000  0.5337750000000  0.4665830000000 1.0
C      1  0.5037410000000  0.4694600000000  0.5616180000000 1.0
C      1  0.4416590000000  0.5678730000000  0.5267870000000 1.0
C      1  0.5290520000000  0.5923860000000  0.5519190000000 1.0
C      1  0.5259300000000  0.4630380000000  0.3955580000000 1.0
C      1  0.4769100000000  0.4058000000000  0.5023500000000 1.0
C      1  0.5665690000000  0.4171440000000  0.5201280000000 1.0
C      1  0.3983180000000  0.4966720000000  0.4928710000000 1.0
C      1  0.5233800000000  0.3947030000000  0.5095700000000 1.0
C      1  0.5232150000000  0.5969790000000  0.4394000000000 1.0
C      1  0.4806310000000  0.4002800000000  0.5332450000000 1.0
C      1  0.4452320000000  0.5469200000000  0.4223760000000 1.0
C      1  0.4776390000000  0.4635370000000  0.6016030000000 1.0
C      1  0.4807030000000  0.4774210000000  0.4060060000000 1.0
C      1  0.4908350000000  0.5571210000000  0.3902630000000 1.0
C      1  0.5719140000000  0.5783290000000  0.5176300000000 1.0
C      1  0.5814810000000  0.5734060000000  0.4808330000000 1.0
C      1  0.5602020000000  0.5290310000000  0.5453290000000 1.0
C      1  0.5044860000000  0.4683020000000  0.5305010000000 1.0
C      1  0.4061770000000  0.5556790000000  0.4836150000000 1.0
C      1  0.4356800000000  0.5830140000000  0.4541260000000 1.0
C      1  0.5052820000000  0.6158680000000  0.5115840000000 1.0
C      1  0.5430840000000  0.5977370000000  0.4610690000000 1.0
C      1  0.5438760000000  0.4298770000000  0.4304160000000 1.0
C      1  0.5287140000000  0.4844300000000  0.5250400000000 1.0
C      1  0.5550980000000  0.5511280000000  0.4432610000000 1.0
C      1  0.5437280000000  0.5373890000000  0.4987080000000 1.0
C      1  0.6092390000000  0.5167200000000  0.5161580000000 1.0
C      1  0.4202810000000  0.4253970000000  0.5169170000000 1.0
C      1  0.4989970000000  0.5660180000000  0.4168290000000 1.0
C      1  0.5694480000000  0.4974520000000  0.5159480000000 1.0
C      1  0.6008550000000  0.4650480000000  0.4986830000000 1.0
C      1  0.4878760000000  0.4129730000000  0.4403170000000 1.0
C      1  0.4100780000000  0.4698840000000  0.4948570000000 1.0
C      1  0.4595160000000  0.4178860000000  0.4479140000000 1.0
C      1  0.4742420000000  0.5844320000000  0.4933680000000 1.0
C      1  0.4951500000000  0.5647430000000  0.5189320000000 1.0
C      1  0.4567750000000  0.4447880000000  0.5908380000000 1.0
C      1  0.5454180000000  0.4976120000000  0.5474500000000 1.0
C      1  0.4529270000000  0.4871050000000  0.5601240000000 1.0
C      1  0.4255530000000  0.5786790000000  0.4803210000000 1.0
C      1  0.5395690000000  0.5008990000000  0.4473780000000 1.0
C      1  0.5346550000000  0.5525720000000  0.5846780000000 1.0
C      1  0.5352160000000  0.5331670000000  0.4019630000000 1.0
C      1  0.5398300000000  0.4943270000000  0.4770360000000 1.0
C      1  0.5171220000000  0.5760010000000  0.4965790000000 1.0
C      1  0.4660080000000  0.5237180000000  0.4150420000000 1.0
C      1  0.5087380000000  0.4046080000000  0.4599770000000 1.0
C      1  0.4576660000000  0.4950800000000  0.4083470000000 1.0
C      1  0.5445430000000  0.4332270000000  0.5594230000000 1.0
C      1  0.3762720000000  0.4836490000000  0.5515040000000 1.0
C      1  0.5312950000000  0.6004720000000  0.4878330000000 1.0
C      1  0.4729820000000  0.4257630000000  0.5751050000000 1.0
C      1  0.4969880000000  0.4335060000000  0.4216090000000 1.0
C      1  0.5312490000000  0.4414690000000  0.4844350000000 1.0
C      1  0.4790120000000  0.5849780000000  0.4283600000000 1.0
C      1  0.5096150000000  0.4434670000000  0.4626140000000 1.0
C      1  0.5046480000000  0.5092990000000  0.4843630000000 1.0
C      1  0.4783430000000  0.5524730000000  0.5805870000000 1.0
C      1  0.5467140000000  0.4665290000000  0.4856620000000 1.0
C      1  0.5025440000000  0.3971390000000  0.4887560000000 1.0
C      1  0.4538410000000  0.5721240000000  0.4356140000000 1.0
C      1  0.4183480000000  0.4391610000000  0.5589030000000 1.0
C      1  0.4379940000000  0.5141970000000  0.5236080000000 1.0
C      1  0.4629310000000  0.4202620000000  0.5475280000000 1.0
C      1  0.4991980000000  0.5269280000000  0.5476430000000 1.0
C      1  0.4537560000000  0.4423990000000  0.4316290000000 1.0
C      1  0.5310240000000  0.5326120000000  0.4503540000000 1.0
C      1  0.4949350000000  0.6034240000000  0.4447910000000 1.0
C      1  0.4819760000000  0.5808260000000  0.5756850000000 1.0
C      1  0.5251140000000  0.4908790000000  0.5686540000000 1.0
C      1  0.4250340000000  0.4168650000000  0.4881830000000 1.0
C      1  0.5328960000000  0.4619050000000  0.6009520000000 1.0
C      1  0.5618530000000  0.5754560000000  0.4596590000000 1.0
C      1  0.5010190000000  0.4366400000000  0.5749360000000 1.0
C      1  0.4454490000000  0.4747970000000  0.4953250000000 1.0
C      1  0.4722790000000  0.5357040000000  0.5579710000000 1.0
C      1  0.5787600000000  0.4945660000000  0.5819570000000 1.0
C      1  0.4513800000000  0.5364180000000  0.5069240000000 1.0
C      1  0.4457470000000  0.5202850000000  0.5959120000000 1.0
C      1  0.4188570000000  0.5527790000000  0.5349610000000 1.0
C      1  0.4357160000000  0.4572200000000  0.5744150000000 1.0
C      1  0.4290870000000  0.4563530000000  0.4265800000000 1.0
C      1  0.5188340000000  0.4382300000000  0.5165450000000 1.0
C      1  0.5600540000000  0.5132250000000  0.4911120000000 1.0
C      1  0.4232220000000  0.5403190000000  0.4386370000000 1.0
C      1  0.3936190000000  0.4505440000000  0.4808200000000 1.0
C      1  0.5900670000000  0.4465610000000  0.5206760000000 1.0
C      1  0.5780480000000  0.5353330000000  0.4489450000000 1.0
C      1  0.5435570000000  0.5126480000000  0.6110700000000 1.0
C      1  0.5263850000000  0.5784000000000  0.4158120000000 1.0
C      1  0.5481740000000  0.4379010000000  0.5304520000000 1.0
C      1  0.5735420000000  0.4709360000000  0.5681460000000 1.0
C      1  0.5686610000000  0.4457970000000  0.4318250000000 1.0
C      1  0.5510700000000  0.4172920000000  0.4764810000000 1.0
C      1  0.4481630000000  0.5184080000000  0.5668380000000 1.0
C      1  0.5175300000000  0.4842860000000  0.4352960000000 1.0
C      1  0.5234730000000  0.4388750000000  0.4112740000000 1.0
C      1  0.4873080000000  0.5298500000000  0.3939130000000 1.0
C      1  0.5529700000000  0.4699710000000  0.5140980000000 1.0
C      1  0.5133290000000  0.5154770000000  0.3965060000000 1.0
C      1  0.4827040000000  0.6124920000000  0.4935040000000 1.0
C      1  0.5203630000000  0.4178100000000  0.5623650000000 1.0
C      1  0.6079570000000  0.5290800000000  0.4884660000000 1.0
C      1  0.4815970000000  0.5021540000000  0.4614330000000 1.0
C      1  0.4042070000000  0.5076480000000  0.4660740000000 1.0
C      1  0.4461120000000  0.5792570000000  0.5010360000000 1.0
C      1  0.4879650000000  0.5105090000000  0.5909830000000 1.0
C      1  0.4796620000000  0.4829760000000  0.5778260000000 1.0
C      1  0.5051190000000  0.6034750000000  0.5381450000000 1.0
C      1  0.5851140000000  0.4436250000000  0.4558480000000 1.0
C      1  0.5105650000000  0.4087550000000  0.5342710000000 1.0
C      1  0.4159900000000  0.4626580000000  0.4515800000000 1.0
C      1  0.5019000000000  0.5444980000000  0.4402610000000 1.0
C      1  0.4825630000000  0.4868570000000  0.5200250000000 1.0
C      1  0.5910410000000  0.5341600000000  0.5331590000000 1.0
C      1  0.4533890000000  0.4862470000000  0.5254600000000 1.0
C      1  0.5377420000000  0.4854230000000  0.6157890000000 1.0
C      1  0.5886920000000  0.4929830000000  0.4573140000000 1.0
C      1  0.5976570000000  0.4888510000000  0.5183990000000 1.0
C      1  0.5695960000000  0.4709920000000  0.4196250000000 1.0
C      1  0.4759700000000  0.4361030000000  0.5080440000000 1.0
C      1  0.3907820000000  0.5045060000000  0.5404750000000 1.0
C      1  0.4058910000000  0.5137830000000  0.5163630000000 1.0
C      1  0.4653680000000  0.5388930000000  0.6026110000000 1.0
C      1  0.4332300000000  0.4156350000000  0.5447370000000 1.0
C      1  0.4897490000000  0.4604240000000  0.4738640000000 1.0
C      1  0.5948170000000  0.5612770000000  0.5217270000000 1.0
C      1  0.4822360000000  0.5926880000000  0.5502560000000 1.0
C      1  0.3847660000000  0.4676670000000  0.5308510000000 1.0
C      1  0.4075620000000  0.4292740000000  0.4695740000000 1.0
C      1  0.4755550000000  0.4503620000000  0.4147830000000 1.0
C      1  0.5593720000000  0.5392900000000  0.5741380000000 1.0
C      1  0.5907070000000  0.4629030000000  0.5457130000000 1.0
C      1  0.4818690000000  0.5232870000000  0.4401000000000 1.0
C      1  0.5520120000000  0.5840420000000  0.5365820000000 1.0
C      1  0.5679860000000  0.4942260000000  0.4355410000000 1.0
C      1  0.4011240000000  0.5441750000000  0.5121570000000 1.0
C      1  0.5215210000000  0.5300960000000  0.5998390000000 1.0
C      1  0.5665080000000  0.5174240000000  0.5929230000000 1.0
C      1  0.4529000000000  0.4142860000000  0.4778580000000 1.0
END
