TITL C-950531-5884-595 1.05098767856175e-07 125000 -835.579616659121 0 0 134 (C1) n - 1
REM
REM in /home/bkarasulu/work/CARBON/AIRSS/Generating-Clusters/EDIP-Nigel-Params/with-SteepDescent/Only-C1/SD-CG/HFTN-CG
REM
REM
REM
REM
REM
REM ./C.cell (11c1c37f851c82e70ff6c80c92926a4b)
REM
REM compiler GCC version 9.2.1 20190827 (Red Hat 9.2.1-1)
REM options -cpp -mtune=generic -march=x86-64 -g -O0 -fpre-include=/usr/include/finclude/math-vector-fortran.h
REM seed 1179057041 975973093 -1603851107 -49156322 -1537595015 -160884780 -482845810 -610815746 516531273 630200698 195385693 1637499525 -60879378 696081168 -1329256275 -354199666 1480383664 -431547549 -2126896095 -1069465799 224908715 184942995 -540911792 -1204067669 69238213 1259396403 -571222299 1052476401 -1020732981 -500344417 -989306984 340387836 -376350527
REM
CELL 1.54180   50.00000   50.00000   50.00000   90.00000   90.00000   90.00000
LATT -1
SFAC C  
C      1  0.5674720000000  0.4307750000000  0.5133730000000 1.0
C      1  0.4309040000000  0.5569020000000  0.5074330000000 1.0
C      1  0.4539930000000  0.4881490000000  0.5336220000000 1.0
C      1  0.4943420000000  0.4537050000000  0.4790500000000 1.0
C      1  0.4546430000000  0.4723910000000  0.5744410000000 1.0
C      1  0.5517230000000  0.5151620000000  0.4913410000000 1.0
C      1  0.5360220000000  0.5013890000000  0.4496370000000 1.0
C      1  0.5372250000000  0.4965290000000  0.5855580000000 1.0
C      1  0.5624300000000  0.4315080000000  0.4488670000000 1.0
C      1  0.4875180000000  0.5810080000000  0.5056920000000 1.0
C      1  0.4934880000000  0.5594550000000  0.4862650000000 1.0
C      1  0.4319960000000  0.4926030000000  0.4370850000000 1.0
C      1  0.5523800000000  0.4578900000000  0.4221340000000 1.0
C      1  0.4448110000000  0.5202420000000  0.4054160000000 1.0
C      1  0.4283040000000  0.4588750000000  0.5331450000000 1.0
C      1  0.5638910000000  0.5653870000000  0.4581270000000 1.0
C      1  0.5010450000000  0.4546890000000  0.5308620000000 1.0
C      1  0.5368390000000  0.4665980000000  0.4953400000000 1.0
C      1  0.4427520000000  0.4330680000000  0.4660130000000 1.0
C      1  0.4133970000000  0.5158860000000  0.5061760000000 1.0
C      1  0.5765580000000  0.5097500000000  0.5558420000000 1.0
C      1  0.5579020000000  0.5738860000000  0.4845890000000 1.0
C      1  0.5892860000000  0.4705110000000  0.4568980000000 1.0
C      1  0.5386280000000  0.4256710000000  0.5236520000000 1.0
C      1  0.4550520000000  0.5672390000000  0.4609770000000 1.0
C      1  0.4616710000000  0.4441360000000  0.5767880000000 1.0
C      1  0.4023720000000  0.4999240000000  0.5280560000000 1.0
C      1  0.5344890000000  0.4607560000000  0.5898300000000 1.0
C      1  0.4488670000000  0.4267680000000  0.5591080000000 1.0
C      1  0.4651550000000  0.4921520000000  0.4579050000000 1.0
C      1  0.4779530000000  0.5333030000000  0.4863030000000 1.0
C      1  0.5163570000000  0.4111250000000  0.5073740000000 1.0
C      1  0.5464400000000  0.5442340000000  0.5429450000000 1.0
C      1  0.5930960000000  0.4667800000000  0.5302760000000 1.0
C      1  0.5508320000000  0.5132570000000  0.5388730000000 1.0
C      1  0.4157320000000  0.5467490000000  0.4335860000000 1.0
C      1  0.4607070000000  0.5909150000000  0.5077960000000 1.0
C      1  0.5855700000000  0.5248090000000  0.4515770000000 1.0
C      1  0.4916540000000  0.5721270000000  0.4589090000000 1.0
C      1  0.5014460000000  0.5111790000000  0.4063690000000 1.0
C      1  0.5104880000000  0.5932960000000  0.5580680000000 1.0
C      1  0.5056250000000  0.4607950000000  0.5886870000000 1.0
C      1  0.3933290000000  0.4846510000000  0.4689510000000 1.0
C      1  0.4411360000000  0.5628130000000  0.4322910000000 1.0
C      1  0.4719950000000  0.5252840000000  0.4395170000000 1.0
C      1  0.5306980000000  0.5427600000000  0.4265360000000 1.0
C      1  0.5031890000000  0.4380450000000  0.4284680000000 1.0
C      1  0.4496390000000  0.4914230000000  0.4838820000000 1.0
C      1  0.4773870000000  0.5212280000000  0.5794110000000 1.0
C      1  0.5731500000000  0.5548230000000  0.5330910000000 1.0
C      1  0.5292710000000  0.5004050000000  0.4031820000000 1.0
C      1  0.4790960000000  0.4649080000000  0.4534030000000 1.0
C      1  0.5360180000000  0.4163740000000  0.4570620000000 1.0
C      1  0.4808520000000  0.4229780000000  0.4399180000000 1.0
C      1  0.4560870000000  0.4380290000000  0.4409340000000 1.0
C      1  0.5995150000000  0.5179030000000  0.4770210000000 1.0
C      1  0.5437430000000  0.5153010000000  0.4247340000000 1.0
C      1  0.5051530000000  0.4935210000000  0.5093890000000 1.0
C      1  0.4907280000000  0.5498910000000  0.5370640000000 1.0
C      1  0.5798450000000  0.4786200000000  0.5059860000000 1.0
C      1  0.5380810000000  0.5625440000000  0.4466570000000 1.0
C      1  0.4991810000000  0.5727560000000  0.5740270000000 1.0
C      1  0.5650970000000  0.4543710000000  0.4944640000000 1.0
C      1  0.5297960000000  0.4553280000000  0.5230320000000 1.0
C      1  0.5317820000000  0.4231890000000  0.5544600000000 1.0
C      1  0.4650590000000  0.4224430000000  0.5135150000000 1.0
C      1  0.4690010000000  0.4933410000000  0.5893560000000 1.0
C      1  0.4208820000000  0.5016910000000  0.4814860000000 1.0
C      1  0.4259380000000  0.4555380000000  0.4727020000000 1.0
C      1  0.4878790000000  0.4676120000000  0.5061390000000 1.0
C      1  0.4039720000000  0.4702200000000  0.5194050000000 1.0
C      1  0.4428750000000  0.4309710000000  0.5322680000000 1.0
C      1  0.5077140000000  0.4917710000000  0.4573890000000 1.0
C      1  0.4378480000000  0.5564150000000  0.5355980000000 1.0
C      1  0.5742210000000  0.5094040000000  0.4279890000000 1.0
C      1  0.4068370000000  0.5436720000000  0.4997670000000 1.0
C      1  0.4856180000000  0.4125880000000  0.4675270000000 1.0
C      1  0.5592750000000  0.5001910000000  0.5133000000000 1.0
C      1  0.5926710000000  0.5323200000000  0.5329960000000 1.0
C      1  0.5312280000000  0.4948610000000  0.5538760000000 1.0
C      1  0.4179790000000  0.5046200000000  0.5536490000000 1.0
C      1  0.4593330000000  0.5432240000000  0.4178820000000 1.0
C      1  0.5203680000000  0.5580070000000  0.5288430000000 1.0
C      1  0.4578050000000  0.5365920000000  0.4649740000000 1.0
C      1  0.4594450000000  0.4764330000000  0.5073870000000 1.0
C      1  0.4983890000000  0.5107180000000  0.4821180000000 1.0
C      1  0.4009930000000  0.4629500000000  0.4903550000000 1.0
C      1  0.4686720000000  0.5683190000000  0.5707960000000 1.0
C      1  0.5006960000000  0.5295790000000  0.5959880000000 1.0
C      1  0.5052600000000  0.5007220000000  0.5391750000000 1.0
C      1  0.5141330000000  0.5049180000000  0.6032280000000 1.0
C      1  0.4633320000000  0.4223440000000  0.4840170000000 1.0
C      1  0.4859250000000  0.5218320000000  0.5482800000000 1.0
C      1  0.4858760000000  0.4895290000000  0.4190990000000 1.0
C      1  0.4193710000000  0.5189220000000  0.4220230000000 1.0
C      1  0.4642800000000  0.5698710000000  0.5402800000000 1.0
C      1  0.5771440000000  0.4470450000000  0.4683200000000 1.0
C      1  0.5974460000000  0.5341050000000  0.5025190000000 1.0
C      1  0.5191400000000  0.4666690000000  0.4717850000000 1.0
C      1  0.5028810000000  0.5368630000000  0.4205000000000 1.0
C      1  0.5772730000000  0.4788290000000  0.5515390000000 1.0
C      1  0.4600740000000  0.5161150000000  0.5366970000000 1.0
C      1  0.4396360000000  0.5308800000000  0.5523210000000 1.0
C      1  0.5128760000000  0.4193380000000  0.4782420000000 1.0
C      1  0.5592750000000  0.5185950000000  0.5822820000000 1.0
C      1  0.5008000000000  0.4637720000000  0.4149950000000 1.0
C      1  0.5755980000000  0.5650300000000  0.5057850000000 1.0
C      1  0.4935990000000  0.4834410000000  0.6019400000000 1.0
C      1  0.4057450000000  0.5466820000000  0.4708920000000 1.0
C      1  0.5217080000000  0.5534340000000  0.4982290000000 1.0
C      1  0.4423890000000  0.5774590000000  0.4895270000000 1.0
C      1  0.5311240000000  0.5886600000000  0.4843840000000 1.0
C      1  0.4271740000000  0.5263470000000  0.4644900000000 1.0
C      1  0.5297080000000  0.4266730000000  0.4282750000000 1.0
C      1  0.4561930000000  0.4923850000000  0.4147280000000 1.0
C      1  0.5744790000000  0.4786970000000  0.4324230000000 1.0
C      1  0.5240010000000  0.5877320000000  0.5342170000000 1.0
C      1  0.5885360000000  0.4388310000000  0.5301540000000 1.0
C      1  0.4552310000000  0.5412480000000  0.5782260000000 1.0
C      1  0.5285340000000  0.4710700000000  0.4077950000000 1.0
C      1  0.5451220000000  0.5443700000000  0.5737570000000 1.0
C      1  0.5603090000000  0.5011150000000  0.4677110000000 1.0
C      1  0.5471800000000  0.4682280000000  0.5467560000000 1.0
C      1  0.5124000000000  0.5971200000000  0.5088540000000 1.0
C      1  0.5012160000000  0.4293840000000  0.5499800000000 1.0
C      1  0.4283640000000  0.4758990000000  0.5604500000000 1.0
C      1  0.4909400000000  0.4120160000000  0.5251310000000 1.0
C      1  0.5188370000000  0.5821260000000  0.4570470000000 1.0
C      1  0.5165470000000  0.5498980000000  0.5827790000000 1.0
C      1  0.5243600000000  0.5238930000000  0.4936760000000 1.0
C      1  0.5463600000000  0.4463910000000  0.5674760000000 1.0
C      1  0.4138470000000  0.4720320000000  0.4492530000000 1.0
C      1  0.5951950000000  0.4884030000000  0.4807580000000 1.0
C      1  0.4900640000000  0.4388920000000  0.5772330000000 1.0
END
