TITL C-950531-5884-311 -8.07992936860698e-07 125000 -527.781221839653 0 0 84 (C1) n - 1
REM
REM in /home/bkarasulu/work/CARBON/AIRSS/Generating-Clusters/EDIP-Nigel-Params/with-SteepDescent/Only-C1/SD-CG/HFTN-CG
REM
REM
REM
REM
REM
REM ./C.cell (11c1c37f851c82e70ff6c80c92926a4b)
REM
REM compiler GCC version 9.2.1 20190827 (Red Hat 9.2.1-1)
REM options -cpp -mtune=generic -march=x86-64 -g -O0 -fpre-include=/usr/include/finclude/math-vector-fortran.h
REM seed 87322867 -2108787971 754429918 -670963637 -204711874 -2098457319 -1819605698 829457236 1570365056 1589201141 1807550290 -1424693870 336818430 -1017757217 -1058983586 762405872 1133973029 1647074731 -124048281 -740627207 -1933867426 1095354454 -1956221107 -1705479111 67086515 2119585944 1057762568 -863281253 848864641 -1972963747 -590303787 1487900506 398005184
REM
CELL 1.54180   50.00000   50.00000   50.00000   90.00000   90.00000   90.00000
LATT -1
SFAC C  
C      1  0.5272760000000  0.4575710000000  0.5443030000000 1.0
C      1  0.4775790000000  0.5338150000000  0.4400550000000 1.0
C      1  0.4376180000000  0.4811230000000  0.5327190000000 1.0
C      1  0.4674100000000  0.4208970000000  0.5366740000000 1.0
C      1  0.5144150000000  0.5206510000000  0.5632620000000 1.0
C      1  0.4985600000000  0.5189250000000  0.4824620000000 1.0
C      1  0.4966080000000  0.5184650000000  0.5374370000000 1.0
C      1  0.5303750000000  0.4957670000000  0.5098320000000 1.0
C      1  0.5556310000000  0.4979640000000  0.5518590000000 1.0
C      1  0.4604230000000  0.5577100000000  0.5048500000000 1.0
C      1  0.4646320000000  0.5311280000000  0.5881060000000 1.0
C      1  0.4924070000000  0.5778020000000  0.4792230000000 1.0
C      1  0.4581960000000  0.5081360000000  0.5697210000000 1.0
C      1  0.5132350000000  0.5673340000000  0.4326150000000 1.0
C      1  0.5203920000000  0.5809730000000  0.4739180000000 1.0
C      1  0.4564370000000  0.5153170000000  0.4575250000000 1.0
C      1  0.5307910000000  0.5248760000000  0.4423840000000 1.0
C      1  0.5377840000000  0.5670890000000  0.4914070000000 1.0
C      1  0.5107150000000  0.4733650000000  0.4664280000000 1.0
C      1  0.4225280000000  0.5139340000000  0.5013970000000 1.0
C      1  0.4548300000000  0.4422430000000  0.4491980000000 1.0
C      1  0.5754200000000  0.5336720000000  0.5030530000000 1.0
C      1  0.4511050000000  0.5451720000000  0.5286460000000 1.0
C      1  0.5592770000000  0.4696240000000  0.4811040000000 1.0
C      1  0.5749970000000  0.5500910000000  0.5258980000000 1.0
C      1  0.5486370000000  0.5470710000000  0.5356440000000 1.0
C      1  0.5203420000000  0.4314130000000  0.5050650000000 1.0
C      1  0.5800510000000  0.5053690000000  0.5064970000000 1.0
C      1  0.5349520000000  0.4883260000000  0.4804360000000 1.0
C      1  0.4856610000000  0.4817800000000  0.5752930000000 1.0
C      1  0.4791600000000  0.4478490000000  0.4334180000000 1.0
C      1  0.4447720000000  0.4371160000000  0.4923020000000 1.0
C      1  0.4779980000000  0.5517440000000  0.5722140000000 1.0
C      1  0.5020030000000  0.5184380000000  0.4511650000000 1.0
C      1  0.4775070000000  0.4774260000000  0.4305050000000 1.0
C      1  0.5015080000000  0.4540040000000  0.5062760000000 1.0
C      1  0.5816630000000  0.4922490000000  0.4795310000000 1.0
C      1  0.4519900000000  0.4893240000000  0.4413850000000 1.0
C      1  0.5261660000000  0.4845540000000  0.4236380000000 1.0
C      1  0.5266390000000  0.5518650000000  0.5153540000000 1.0
C      1  0.4891040000000  0.4889480000000  0.5381160000000 1.0
C      1  0.4666500000000  0.4812890000000  0.4930040000000 1.0
C      1  0.5620410000000  0.4607590000000  0.5113570000000 1.0
C      1  0.4589210000000  0.4415070000000  0.5554180000000 1.0
C      1  0.5368790000000  0.5098890000000  0.4179440000000 1.0
C      1  0.5538450000000  0.5625610000000  0.4654860000000 1.0
C      1  0.4653380000000  0.4831110000000  0.5222150000000 1.0
C      1  0.4853140000000  0.5719600000000  0.5061880000000 1.0
C      1  0.4715210000000  0.5672440000000  0.4601950000000 1.0
C      1  0.5237650000000  0.4361150000000  0.4666610000000 1.0
C      1  0.4865480000000  0.4610080000000  0.4831840000000 1.0
C      1  0.5432520000000  0.4653300000000  0.4347620000000 1.0
C      1  0.4834560000000  0.4539500000000  0.5648540000000 1.0
C      1  0.5134270000000  0.5229890000000  0.5098600000000 1.0
C      1  0.4341550000000  0.5301940000000  0.4726360000000 1.0
C      1  0.5370190000000  0.4782080000000  0.5645950000000 1.0
C      1  0.4500740000000  0.4218810000000  0.5150000000000 1.0
C      1  0.5137130000000  0.4934540000000  0.5756610000000 1.0
C      1  0.5052570000000  0.5685510000000  0.5257800000000 1.0
C      1  0.5435030000000  0.4414300000000  0.5233720000000 1.0
C      1  0.4473530000000  0.5566900000000  0.4785410000000 1.0
C      1  0.4292810000000  0.5260550000000  0.5283850000000 1.0
C      1  0.5118530000000  0.4748510000000  0.5242300000000 1.0
C      1  0.4969760000000  0.4203870000000  0.5340270000000 1.0
C      1  0.5448900000000  0.5126940000000  0.4650540000000 1.0
C      1  0.5025730000000  0.4361450000000  0.4462780000000 1.0
C      1  0.4377810000000  0.4673740000000  0.4550710000000 1.0
C      1  0.4214780000000  0.4837920000000  0.5057040000000 1.0
C      1  0.4343300000000  0.5054010000000  0.5501320000000 1.0
C      1  0.4726220000000  0.5361890000000  0.5465770000000 1.0
C      1  0.5766750000000  0.5420430000000  0.4746760000000 1.0
C      1  0.5481240000000  0.4513230000000  0.4586340000000 1.0
C      1  0.4686170000000  0.4362470000000  0.4748320000000 1.0
C      1  0.5027350000000  0.4885180000000  0.4416420000000 1.0
C      1  0.5365010000000  0.5537800000000  0.4409990000000 1.0
C      1  0.5735300000000  0.5150630000000  0.4618800000000 1.0
C      1  0.5589260000000  0.4905350000000  0.5223300000000 1.0
C      1  0.4396430000000  0.4683010000000  0.4859950000000 1.0
C      1  0.4360140000000  0.4566270000000  0.5483660000000 1.0
C      1  0.5020130000000  0.5400140000000  0.5824870000000 1.0
C      1  0.4715570000000  0.5082190000000  0.4820950000000 1.0
C      1  0.5063970000000  0.4391410000000  0.5546640000000 1.0
C      1  0.5432310000000  0.5253720000000  0.5554900000000 1.0
C      1  0.4854290000000  0.5626860000000  0.4328230000000 1.0
END
