TITL C-951341-1326-511 1.65484716862167e-06 125000 -497.867743097884 0 0 81 (C1) n - 1
REM
REM in /home/bkarasulu/work/CARBON/AIRSS/Generating-Clusters/EDIP-Nigel-Params/with-SteepDescent/Only-C1/SD-CG/HFTN-CG
REM
REM
REM
REM
REM
REM ./C.cell (11c1c37f851c82e70ff6c80c92926a4b)
REM
REM compiler GCC version 9.2.1 20190827 (Red Hat 9.2.1-1)
REM options -cpp -mtune=generic -march=x86-64 -g -O0 -fpre-include=/usr/include/finclude/math-vector-fortran.h
REM seed 1350048650 1219908248 1253843193 -441209824 900907489 472238432 -1859819936 -72822574 -925217705 -1081539827 1783342919 1157447675 -2109149240 -239490420 -1479664075 2107249349 1762976013 -143876445 569610466 905282736 1576325670 -1168271397 -960598204 -2137773256 311768634 1435238777 1037959502 -1532874046 554598188 -1269743014 -1416258509 1595781623 -1390145681
REM
CELL 1.54180   50.00000   50.00000   50.00000   90.00000   90.00000   90.00000
LATT -1
SFAC C  
C      1  0.4886690000000  0.4742280000000  0.5232470000000 1.0
C      1  0.5635300000000  0.5525840000000  0.5327700000000 1.0
C      1  0.5338390000000  0.5339980000000  0.4498630000000 1.0
C      1  0.4950200000000  0.5019900000000  0.5326150000000 1.0
C      1  0.5244670000000  0.5602110000000  0.5013880000000 1.0
C      1  0.4888490000000  0.5686650000000  0.5292750000000 1.0
C      1  0.4694140000000  0.5128550000000  0.4842720000000 1.0
C      1  0.5658600000000  0.5527880000000  0.4801920000000 1.0
C      1  0.4552480000000  0.4867260000000  0.4381540000000 1.0
C      1  0.4839340000000  0.4888560000000  0.4395100000000 1.0
C      1  0.5853880000000  0.5106420000000  0.5383220000000 1.0
C      1  0.4661610000000  0.4645710000000  0.5417870000000 1.0
C      1  0.4950540000000  0.5020840000000  0.4145720000000 1.0
C      1  0.5387550000000  0.4658210000000  0.5056170000000 1.0
C      1  0.5213340000000  0.4927820000000  0.4062920000000 1.0
C      1  0.5030560000000  0.5344230000000  0.4512270000000 1.0
C      1  0.5521880000000  0.5524400000000  0.5059810000000 1.0
C      1  0.5280670000000  0.5394210000000  0.5407660000000 1.0
C      1  0.5303690000000  0.5108770000000  0.4912310000000 1.0
C      1  0.5210210000000  0.5730170000000  0.4745000000000 1.0
C      1  0.4387460000000  0.5327520000000  0.4716060000000 1.0
C      1  0.5049300000000  0.4666980000000  0.4767100000000 1.0
C      1  0.5172540000000  0.4569200000000  0.5525330000000 1.0
C      1  0.4849310000000  0.5467860000000  0.5482690000000 1.0
C      1  0.4732840000000  0.5650650000000  0.5041120000000 1.0
C      1  0.4906360000000  0.5085080000000  0.4623610000000 1.0
C      1  0.4579330000000  0.4353730000000  0.4951000000000 1.0
C      1  0.4243750000000  0.5098850000000  0.5388980000000 1.0
C      1  0.4402610000000  0.4609260000000  0.5268650000000 1.0
C      1  0.5094950000000  0.4947500000000  0.4783340000000 1.0
C      1  0.4727610000000  0.4398740000000  0.5554660000000 1.0
C      1  0.4542400000000  0.5456180000000  0.5139200000000 1.0
C      1  0.4153950000000  0.5185990000000  0.5134410000000 1.0
C      1  0.5072630000000  0.4568030000000  0.5059490000000 1.0
C      1  0.4608770000000  0.5368500000000  0.5590120000000 1.0
C      1  0.5468370000000  0.5020610000000  0.4118410000000 1.0
C      1  0.4851520000000  0.5235880000000  0.5104540000000 1.0
C      1  0.4990430000000  0.4349820000000  0.5476730000000 1.0
C      1  0.5045430000000  0.4212550000000  0.5210640000000 1.0
C      1  0.5530730000000  0.4844840000000  0.4575190000000 1.0
C      1  0.5752380000000  0.5267410000000  0.4735680000000 1.0
C      1  0.4160750000000  0.4867730000000  0.4613080000000 1.0
C      1  0.5122050000000  0.5334860000000  0.4999380000000 1.0
C      1  0.5248570000000  0.5439610000000  0.5710030000000 1.0
C      1  0.5255970000000  0.5069530000000  0.5379970000000 1.0
C      1  0.4632350000000  0.5365200000000  0.4317470000000 1.0
C      1  0.4963860000000  0.5439310000000  0.5738590000000 1.0
C      1  0.5484460000000  0.4615530000000  0.4765050000000 1.0
C      1  0.5454260000000  0.4508860000000  0.5503750000000 1.0
C      1  0.4988780000000  0.4227490000000  0.4742330000000 1.0
C      1  0.4540570000000  0.4877010000000  0.4882510000000 1.0
C      1  0.5437620000000  0.5601730000000  0.4601960000000 1.0
C      1  0.4901600000000  0.4965940000000  0.5702850000000 1.0
C      1  0.4804130000000  0.4376080000000  0.4537450000000 1.0
C      1  0.5334750000000  0.4218490000000  0.5093250000000 1.0
C      1  0.5411280000000  0.4909470000000  0.5709790000000 1.0
C      1  0.5482250000000  0.5221600000000  0.5708200000000 1.0
C      1  0.4857870000000  0.5593510000000  0.4757230000000 1.0
C      1  0.5283850000000  0.4295970000000  0.4803870000000 1.0
C      1  0.4958110000000  0.4623340000000  0.4487780000000 1.0
C      1  0.5702590000000  0.5307390000000  0.5508920000000 1.0
C      1  0.4229840000000  0.5138140000000  0.4529920000000 1.0
C      1  0.4432820000000  0.4750060000000  0.4631630000000 1.0
C      1  0.4919130000000  0.5311310000000  0.4226660000000 1.0
C      1  0.4371720000000  0.4363320000000  0.5137270000000 1.0
C      1  0.5423880000000  0.4956670000000  0.5144400000000 1.0
C      1  0.4510300000000  0.5117890000000  0.5492290000000 1.0
C      1  0.4431240000000  0.5126750000000  0.4309500000000 1.0
C      1  0.5516390000000  0.4434070000000  0.5224230000000 1.0
C      1  0.5501650000000  0.4807960000000  0.4293420000000 1.0
C      1  0.4304970000000  0.5387200000000  0.4996640000000 1.0
C      1  0.5156000000000  0.5748660000000  0.5244270000000 1.0
C      1  0.4832090000000  0.4205200000000  0.4988930000000 1.0
C      1  0.4533490000000  0.4442420000000  0.4671570000000 1.0
C      1  0.4346560000000  0.4852860000000  0.5107530000000 1.0
C      1  0.4617040000000  0.5481790000000  0.4591130000000 1.0
C      1  0.5702450000000  0.5008070000000  0.5183090000000 1.0
C      1  0.5134560000000  0.4795680000000  0.5705870000000 1.0
C      1  0.5494160000000  0.5136620000000  0.4671490000000 1.0
C      1  0.4643220000000  0.4884170000000  0.5604460000000 1.0
C      1  0.5607940000000  0.4717560000000  0.5619480000000 1.0
END
