TITL C-951342-2639-378 -2.5829220007195e-06 125000 -765.312532955343 0 0 122 (C1) n - 1
REM
REM in /home/bkarasulu/work/CARBON/AIRSS/Generating-Clusters/EDIP-Nigel-Params/with-SteepDescent/Only-C1/SD-CG/HFTN-CG
REM
REM
REM
REM
REM
REM ./C.cell (11c1c37f851c82e70ff6c80c92926a4b)
REM
REM compiler GCC version 9.2.1 20190827 (Red Hat 9.2.1-1)
REM options -cpp -mtune=generic -march=x86-64 -g -O0 -fpre-include=/usr/include/finclude/math-vector-fortran.h
REM seed -1237219673 -575238191 -1890075805 814975049 -1026064880 -525552584 598846161 -1416914611 -1307241440 922719644 -1126908045 1168301074 183120800 -782089173 -984513675 952069491 1755689968 -1839862831 -1198919166 1682454237 1673442155 -483728098 -2009044826 -900321605 1121691010 -1954908210 148782686 440071419 2004859329 -602832893 1002536451 1333966437 1113958089
REM
CELL 1.54180   50.00000   50.00000   50.00000   90.00000   90.00000   90.00000
LATT -1
SFAC C  
C      1  0.4612400000000  0.4537730000000  0.4543220000000 1.0
C      1  0.4843120000000  0.5593010000000  0.4250660000000 1.0
C      1  0.4625840000000  0.5747080000000  0.4686960000000 1.0
C      1  0.5370600000000  0.5651400000000  0.4859140000000 1.0
C      1  0.5007020000000  0.5851960000000  0.5090770000000 1.0
C      1  0.5159130000000  0.5873320000000  0.5356290000000 1.0
C      1  0.5279940000000  0.5371010000000  0.4679210000000 1.0
C      1  0.4639870000000  0.5377620000000  0.4229980000000 1.0
C      1  0.4189890000000  0.5413970000000  0.5260090000000 1.0
C      1  0.4091630000000  0.5274150000000  0.4711810000000 1.0
C      1  0.4881660000000  0.4366670000000  0.4849700000000 1.0
C      1  0.4272590000000  0.5320340000000  0.5686620000000 1.0
C      1  0.5380550000000  0.5179450000000  0.4011090000000 1.0
C      1  0.5313180000000  0.4971580000000  0.5979210000000 1.0
C      1  0.4744160000000  0.5400080000000  0.5770430000000 1.0
C      1  0.5656800000000  0.4916170000000  0.4288320000000 1.0
C      1  0.5176990000000  0.5884270000000  0.4835680000000 1.0
C      1  0.4142940000000  0.5067210000000  0.4922910000000 1.0
C      1  0.4469750000000  0.4376230000000  0.5082240000000 1.0
C      1  0.5511980000000  0.4921170000000  0.5790650000000 1.0
C      1  0.4877530000000  0.4172380000000  0.5499870000000 1.0
C      1  0.5391440000000  0.5002090000000  0.5369510000000 1.0
C      1  0.5273490000000  0.4590040000000  0.5010580000000 1.0
C      1  0.5650450000000  0.4764170000000  0.4553650000000 1.0
C      1  0.5211780000000  0.5497950000000  0.5725550000000 1.0
C      1  0.5047950000000  0.5048480000000  0.5942700000000 1.0
C      1  0.4231060000000  0.5174680000000  0.4464500000000 1.0
C      1  0.5511940000000  0.4633220000000  0.5385160000000 1.0
C      1  0.4697410000000  0.5179390000000  0.5226250000000 1.0
C      1  0.5609550000000  0.4328070000000  0.4815730000000 1.0
C      1  0.4384140000000  0.4367610000000  0.4613400000000 1.0
C      1  0.5675790000000  0.4400920000000  0.5297400000000 1.0
C      1  0.4387200000000  0.5614120000000  0.4565500000000 1.0
C      1  0.5371980000000  0.4280270000000  0.4989730000000 1.0
C      1  0.5514810000000  0.5180310000000  0.4703720000000 1.0
C      1  0.4544320000000  0.5831300000000  0.4973150000000 1.0
C      1  0.5446000000000  0.4905070000000  0.4709590000000 1.0
C      1  0.5656270000000  0.5480910000000  0.4420720000000 1.0
C      1  0.4651480000000  0.4758010000000  0.4809440000000 1.0
C      1  0.5835780000000  0.5119210000000  0.5376570000000 1.0
C      1  0.5360070000000  0.5470370000000  0.4410600000000 1.0
C      1  0.5721100000000  0.5567630000000  0.4709110000000 1.0
C      1  0.4677010000000  0.4825020000000  0.5307080000000 1.0
C      1  0.5770960000000  0.5184830000000  0.4414230000000 1.0
C      1  0.5621250000000  0.5758900000000  0.5029100000000 1.0
C      1  0.5154740000000  0.4815090000000  0.4283660000000 1.0
C      1  0.5481290000000  0.4824950000000  0.4983800000000 1.0
C      1  0.5432480000000  0.5184100000000  0.5127630000000 1.0
C      1  0.4096400000000  0.4663780000000  0.5206550000000 1.0
C      1  0.5791300000000  0.4455650000000  0.5026330000000 1.0
C      1  0.4737410000000  0.3955830000000  0.5107630000000 1.0
C      1  0.4620930000000  0.4641060000000  0.5077080000000 1.0
C      1  0.5033090000000  0.3942770000000  0.5092530000000 1.0
C      1  0.5405400000000  0.4924610000000  0.4132870000000 1.0
C      1  0.5844930000000  0.5322690000000  0.4859050000000 1.0
C      1  0.4369250000000  0.5522260000000  0.5025880000000 1.0
C      1  0.4194240000000  0.5545520000000  0.4779120000000 1.0
C      1  0.5487850000000  0.4647930000000  0.5674840000000 1.0
C      1  0.5591840000000  0.5652360000000  0.5459720000000 1.0
C      1  0.5254580000000  0.4223860000000  0.5523690000000 1.0
C      1  0.5191270000000  0.4057210000000  0.4875730000000 1.0
C      1  0.5213650000000  0.5326380000000  0.4198080000000 1.0
C      1  0.5444610000000  0.5880920000000  0.5350540000000 1.0
C      1  0.4832850000000  0.4436620000000  0.4324470000000 1.0
C      1  0.4664870000000  0.4854880000000  0.4155030000000 1.0
C      1  0.4265540000000  0.4884120000000  0.4502590000000 1.0
C      1  0.4190490000000  0.5119380000000  0.5211690000000 1.0
C      1  0.5159840000000  0.5353420000000  0.5101130000000 1.0
C      1  0.5226320000000  0.4562110000000  0.4522100000000 1.0
C      1  0.5076310000000  0.4621460000000  0.4787550000000 1.0
C      1  0.4987710000000  0.5127200000000  0.5168400000000 1.0
C      1  0.5725480000000  0.5295870000000  0.5153040000000 1.0
C      1  0.5579390000000  0.5133240000000  0.5572980000000 1.0
C      1  0.5102180000000  0.5011920000000  0.5400690000000 1.0
C      1  0.4487440000000  0.5346310000000  0.4480110000000 1.0
C      1  0.4114870000000  0.4609920000000  0.4928580000000 1.0
C      1  0.5470970000000  0.5425830000000  0.5608480000000 1.0
C      1  0.5898250000000  0.4886630000000  0.5234840000000 1.0
C      1  0.5898730000000  0.4824700000000  0.4727230000000 1.0
C      1  0.4979150000000  0.5149490000000  0.4644690000000 1.0
C      1  0.4172440000000  0.5507120000000  0.5522280000000 1.0
C      1  0.4815370000000  0.5535260000000  0.4786290000000 1.0
C      1  0.5947210000000  0.5113420000000  0.4660990000000 1.0
C      1  0.5030410000000  0.5104740000000  0.4333860000000 1.0
C      1  0.4265960000000  0.4830380000000  0.4799320000000 1.0
C      1  0.4428760000000  0.4261970000000  0.5362710000000 1.0
C      1  0.4508980000000  0.4774050000000  0.4392170000000 1.0
C      1  0.5055750000000  0.5711840000000  0.5584680000000 1.0
C      1  0.4958000000000  0.4766800000000  0.5427820000000 1.0
C      1  0.4964160000000  0.4575860000000  0.5766800000000 1.0
C      1  0.4928700000000  0.5560820000000  0.5067510000000 1.0
C      1  0.4653300000000  0.4192480000000  0.4948970000000 1.0
C      1  0.4696080000000  0.5282430000000  0.4713600000000 1.0
C      1  0.4820340000000  0.5822250000000  0.4452260000000 1.0
C      1  0.5058010000000  0.5541440000000  0.4072500000000 1.0
C      1  0.4997960000000  0.4157250000000  0.4672090000000 1.0
C      1  0.4906600000000  0.4671020000000  0.4153020000000 1.0
C      1  0.4761110000000  0.4378730000000  0.5679380000000 1.0
C      1  0.4496360000000  0.4463720000000  0.5577290000000 1.0
C      1  0.4524580000000  0.5214220000000  0.5734640000000 1.0
C      1  0.4255100000000  0.4367220000000  0.4868340000000 1.0
C      1  0.4541190000000  0.5247940000000  0.4974570000000 1.0
C      1  0.5253730000000  0.4467710000000  0.5706960000000 1.0
C      1  0.4771440000000  0.5616390000000  0.5566670000000 1.0
C      1  0.4198920000000  0.4863140000000  0.5380450000000 1.0
C      1  0.4929100000000  0.4887640000000  0.4798710000000 1.0
C      1  0.4854280000000  0.4848860000000  0.5846330000000 1.0
C      1  0.5049690000000  0.5916120000000  0.4586140000000 1.0
C      1  0.4979540000000  0.4305780000000  0.5224070000000 1.0
C      1  0.5453300000000  0.4205860000000  0.5284360000000 1.0
C      1  0.5744740000000  0.5577510000000  0.5231090000000 1.0
C      1  0.5140990000000  0.4564170000000  0.5288040000000 1.0
C      1  0.4785590000000  0.5127410000000  0.4161230000000 1.0
C      1  0.4748990000000  0.5985700000000  0.5091660000000 1.0
C      1  0.4465790000000  0.4768090000000  0.5521980000000 1.0
C      1  0.5530820000000  0.4492250000000  0.4567640000000 1.0
C      1  0.4579780000000  0.4929520000000  0.5755540000000 1.0
C      1  0.5080930000000  0.4313600000000  0.4434660000000 1.0
C      1  0.4632730000000  0.4033010000000  0.5380290000000 1.0
C      1  0.5783070000000  0.4753580000000  0.5003280000000 1.0
C      1  0.4721960000000  0.5499450000000  0.5288780000000 1.0
C      1  0.5011810000000  0.5303820000000  0.5814800000000 1.0
END
