TITL C-950524-1808-14 -2.90279385156935e-06 125000 -606.049569066585 0 0 100 (C1) n - 1
REM
REM in /home/bkarasulu/work/CARBON/AIRSS/Generating-Clusters/EDIP-Nigel-Params/with-SteepDescent/Only-C1/SD-CG/HFTN-CG
REM
REM
REM
REM
REM
REM ./C.cell (11c1c37f851c82e70ff6c80c92926a4b)
REM
REM compiler GCC version 9.2.1 20190827 (Red Hat 9.2.1-1)
REM options -cpp -mtune=generic -march=x86-64 -g -O0 -fpre-include=/usr/include/finclude/math-vector-fortran.h
REM seed -175811903 -1554428337 -1320281984 1465342783 1096829024 -834693679 1209898961 -1386705265 -1659573217 -1205757956 1913698209 912862484 -1645213217 -809339128 998392480 692501467 1749967343 1500955485 -843952393 358844204 -1627202848 -1727876534 47937002 744751293 1959350072 -554585980 -352239732 340644539 -1190787363 -1535562525 -1788504731 -178117768 -614075402
REM
CELL 1.54180   50.00000   50.00000   50.00000   90.00000   90.00000   90.00000
LATT -1
SFAC C  
C      1  0.5273350000000  0.4876170000000  0.5874120000000 1.0
C      1  0.5637210000000  0.4363550000000  0.5660300000000 1.0
C      1  0.5385550000000  0.5595260000000  0.5224130000000 1.0
C      1  0.5189760000000  0.5267310000000  0.5620780000000 1.0
C      1  0.4877420000000  0.4957010000000  0.5261290000000 1.0
C      1  0.4739360000000  0.4678370000000  0.5648750000000 1.0
C      1  0.4723670000000  0.5337350000000  0.4878690000000 1.0
C      1  0.4620160000000  0.5083180000000  0.5149360000000 1.0
C      1  0.4940300000000  0.4648520000000  0.5262600000000 1.0
C      1  0.4192800000000  0.5606160000000  0.5042220000000 1.0
C      1  0.4732120000000  0.4212780000000  0.5384730000000 1.0
C      1  0.4414630000000  0.4343610000000  0.5054980000000 1.0
C      1  0.4649640000000  0.4438230000000  0.4626710000000 1.0
C      1  0.5715260000000  0.5476930000000  0.4858060000000 1.0
C      1  0.4534420000000  0.4659770000000  0.5438360000000 1.0
C      1  0.5311360000000  0.5777910000000  0.4757800000000 1.0
C      1  0.5010010000000  0.4898740000000  0.5965850000000 1.0
C      1  0.5143080000000  0.5145030000000  0.4962460000000 1.0
C      1  0.4201530000000  0.4526590000000  0.4969190000000 1.0
C      1  0.5316370000000  0.4315480000000  0.5037630000000 1.0
C      1  0.5172610000000  0.4256160000000  0.5529260000000 1.0
C      1  0.4768240000000  0.4909520000000  0.5829240000000 1.0
C      1  0.4815920000000  0.4731460000000  0.4280210000000 1.0
C      1  0.5179660000000  0.5676880000000  0.5012070000000 1.0
C      1  0.5248860000000  0.5354550000000  0.4230160000000 1.0
C      1  0.5605720000000  0.5048610000000  0.5591000000000 1.0
C      1  0.4570140000000  0.4416180000000  0.5286570000000 1.0
C      1  0.4324200000000  0.5306010000000  0.4492090000000 1.0
C      1  0.5354630000000  0.5352600000000  0.4632690000000 1.0
C      1  0.4744770000000  0.5182390000000  0.5723870000000 1.0
C      1  0.5080470000000  0.4850390000000  0.4175200000000 1.0
C      1  0.5803330000000  0.4735470000000  0.4625460000000 1.0
C      1  0.5716640000000  0.5186560000000  0.5246680000000 1.0
C      1  0.4221510000000  0.4694330000000  0.4725910000000 1.0
C      1  0.5557370000000  0.4305910000000  0.5205710000000 1.0
C      1  0.4851320000000  0.4140460000000  0.4886130000000 1.0
C      1  0.4412420000000  0.5612270000000  0.5221380000000 1.0
C      1  0.4479390000000  0.5520700000000  0.4797220000000 1.0
C      1  0.4905060000000  0.4994080000000  0.4558010000000 1.0
C      1  0.5108420000000  0.5692860000000  0.5637040000000 1.0
C      1  0.4860080000000  0.4468510000000  0.4412490000000 1.0
C      1  0.4448320000000  0.5111410000000  0.4289940000000 1.0
C      1  0.5817790000000  0.5207790000000  0.4768740000000 1.0
C      1  0.4558500000000  0.4160600000000  0.4876750000000 1.0
C      1  0.5046960000000  0.5526820000000  0.4366580000000 1.0
C      1  0.5278630000000  0.4663890000000  0.4112890000000 1.0
C      1  0.4753820000000  0.5425280000000  0.4358940000000 1.0
C      1  0.4863460000000  0.5668790000000  0.5482670000000 1.0
C      1  0.4545170000000  0.4842010000000  0.4369340000000 1.0
C      1  0.5048670000000  0.5423850000000  0.4856800000000 1.0
C      1  0.5514140000000  0.5276970000000  0.4359300000000 1.0
C      1  0.5858840000000  0.4743500000000  0.4943800000000 1.0
C      1  0.4402730000000  0.4912640000000  0.5321300000000 1.0
C      1  0.5265180000000  0.4245670000000  0.4569740000000 1.0
C      1  0.5083630000000  0.5754760000000  0.4561620000000 1.0
C      1  0.4171920000000  0.5207560000000  0.4729930000000 1.0
C      1  0.4179100000000  0.4863240000000  0.5131040000000 1.0
C      1  0.4656000000000  0.5250390000000  0.4140670000000 1.0
C      1  0.4533810000000  0.5862700000000  0.5249430000000 1.0
C      1  0.4964660000000  0.5366650000000  0.5789480000000 1.0
C      1  0.5453560000000  0.4799700000000  0.5114820000000 1.0
C      1  0.5304220000000  0.4726060000000  0.5624630000000 1.0
C      1  0.5475930000000  0.4211940000000  0.5479010000000 1.0
C      1  0.5467650000000  0.5016710000000  0.5330360000000 1.0
C      1  0.5161620000000  0.5023270000000  0.4401430000000 1.0
C      1  0.4573000000000  0.5776460000000  0.4651860000000 1.0
C      1  0.5403430000000  0.5125460000000  0.5787790000000 1.0
C      1  0.5064460000000  0.5195410000000  0.5315020000000 1.0
C      1  0.5683250000000  0.4594370000000  0.5170250000000 1.0
C      1  0.4989660000000  0.4109840000000  0.5352970000000 1.0
C      1  0.4986790000000  0.5871660000000  0.5108110000000 1.0
C      1  0.5451460000000  0.4308310000000  0.4774230000000 1.0
C      1  0.4308010000000  0.5072650000000  0.5544880000000 1.0
C      1  0.5525710000000  0.5597020000000  0.4664880000000 1.0
C      1  0.5344440000000  0.5590630000000  0.5510000000000 1.0
C      1  0.5054280000000  0.4653870000000  0.4829110000000 1.0
C      1  0.5079940000000  0.4117780000000  0.5073520000000 1.0
C      1  0.5210470000000  0.4602450000000  0.5078310000000 1.0
C      1  0.5405940000000  0.4916970000000  0.4593980000000 1.0
C      1  0.4526030000000  0.5623790000000  0.4405090000000 1.0
C      1  0.4239040000000  0.4954010000000  0.4854260000000 1.0
C      1  0.4841140000000  0.5848560000000  0.4666420000000 1.0
C      1  0.5422920000000  0.5053480000000  0.4876520000000 1.0
C      1  0.5569420000000  0.4623980000000  0.5600180000000 1.0
C      1  0.5349600000000  0.4554750000000  0.4356880000000 1.0
C      1  0.4582160000000  0.5365730000000  0.5298820000000 1.0
C      1  0.5843600000000  0.5041220000000  0.5006590000000 1.0
C      1  0.4872350000000  0.5441030000000  0.5284490000000 1.0
C      1  0.4800550000000  0.5905860000000  0.5317400000000 1.0
C      1  0.5069680000000  0.4550600000000  0.5549760000000 1.0
C      1  0.5703650000000  0.5048360000000  0.4525430000000 1.0
C      1  0.4975500000000  0.4933490000000  0.4828230000000 1.0
C      1  0.5561900000000  0.4587140000000  0.4740570000000 1.0
C      1  0.4747520000000  0.5235390000000  0.4592400000000 1.0
C      1  0.5121080000000  0.4501400000000  0.4542400000000 1.0
C      1  0.4797720000000  0.4515450000000  0.4924870000000 1.0
C      1  0.4507530000000  0.5266380000000  0.5571320000000 1.0
C      1  0.4440140000000  0.4636140000000  0.4547470000000 1.0
C      1  0.5622720000000  0.5452050000000  0.5136330000000 1.0
C      1  0.4081880000000  0.5392250000000  0.4914050000000 1.0
END
