TITL C-951346-9544-78 -4.8119131857235e-06 125000 -258.357086806906 0 0 44 (C1) n - 1
REM
REM in /home/bkarasulu/work/CARBON/AIRSS/Generating-Clusters/EDIP-Nigel-Params/with-SteepDescent/Only-C1/SD-CG/HFTN-CG
REM
REM
REM
REM
REM
REM ./C.cell (11c1c37f851c82e70ff6c80c92926a4b)
REM
REM compiler GCC version 9.2.1 20190827 (Red Hat 9.2.1-1)
REM options -cpp -mtune=generic -march=x86-64 -g -O0 -fpre-include=/usr/include/finclude/math-vector-fortran.h
REM seed -2142004609 -199589285 -181643056 -61479028 -1403797551 -1404409453 172466722 1032961079 1163747342 1127386009 -177782124 -1271257339 -421229219 -1637284905 -1139094931 -29839745 359756883 1513684928 407112354 261050792 -27491362 -2018420963 135744448 1913934296 852226706 1559951911 1647763574 -916844969 -1175131118 -794435603 -629856893 689640339 -287087204
REM
CELL 1.54180   50.00000   50.00000   50.00000   90.00000   90.00000   90.00000
LATT -1
SFAC C  
C      1  0.4992940000000  0.5505150000000  0.4917200000000 1.0
C      1  0.5279390000000  0.4994610000000  0.4775380000000 1.0
C      1  0.4752380000000  0.5311150000000  0.4989630000000 1.0
C      1  0.4873320000000  0.4868370000000  0.4298480000000 1.0
C      1  0.5120780000000  0.5425020000000  0.4659280000000 1.0
C      1  0.4575890000000  0.4615890000000  0.5351690000000 1.0
C      1  0.4767050000000  0.5099930000000  0.5669570000000 1.0
C      1  0.4666020000000  0.4804240000000  0.4501160000000 1.0
C      1  0.4833930000000  0.4528220000000  0.5372430000000 1.0
C      1  0.5476480000000  0.5228530000000  0.5421960000000 1.0
C      1  0.5310780000000  0.5280330000000  0.5638080000000 1.0
C      1  0.5099990000000  0.4524670000000  0.5356240000000 1.0
C      1  0.4729290000000  0.5419770000000  0.5283270000000 1.0
C      1  0.4911080000000  0.5220160000000  0.4567280000000 1.0
C      1  0.5385330000000  0.5324230000000  0.5164820000000 1.0
C      1  0.5340390000000  0.4551790000000  0.5225880000000 1.0
C      1  0.4454080000000  0.4734540000000  0.5121650000000 1.0
C      1  0.5588930000000  0.4975050000000  0.5416070000000 1.0
C      1  0.4944540000000  0.4404760000000  0.4683800000000 1.0
C      1  0.5101980000000  0.5231160000000  0.5809930000000 1.0
C      1  0.4625700000000  0.5270720000000  0.4680140000000 1.0
C      1  0.4843390000000  0.5346230000000  0.5787800000000 1.0
C      1  0.4286790000000  0.4965900000000  0.5150210000000 1.0
C      1  0.5725670000000  0.4866360000000  0.4724740000000 1.0
C      1  0.4989140000000  0.4973920000000  0.4742970000000 1.0
C      1  0.4743500000000  0.4755320000000  0.5018850000000 1.0
C      1  0.4089810000000  0.5040780000000  0.4959700000000 1.0
C      1  0.5169760000000  0.5523020000000  0.5154280000000 1.0
C      1  0.4007720000000  0.4945190000000  0.5197940000000 1.0
C      1  0.5341180000000  0.4490000000000  0.4956480000000 1.0
C      1  0.4614730000000  0.5252250000000  0.5486060000000 1.0
C      1  0.5312280000000  0.4655310000000  0.4491150000000 1.0
C      1  0.5107120000000  0.4711930000000  0.4306700000000 1.0
C      1  0.5734440000000  0.5077590000000  0.4902950000000 1.0
C      1  0.4913980000000  0.5147860000000  0.4282110000000 1.0
C      1  0.4509060000000  0.5026770000000  0.4589940000000 1.0
C      1  0.5384270000000  0.5265370000000  0.4686660000000 1.0
C      1  0.5203580000000  0.4503780000000  0.4714790000000 1.0
C      1  0.4871680000000  0.5032800000000  0.5018430000000 1.0
C      1  0.4780970000000  0.4638540000000  0.4728030000000 1.0
C      1  0.5477010000000  0.4897860000000  0.4576940000000 1.0
C      1  0.5525560000000  0.4730220000000  0.5326950000000 1.0
C      1  0.4979100000000  0.5531920000000  0.5363340000000 1.0
C      1  0.5558990000000  0.5302820000000  0.4929040000000 1.0
END
