TITL C-950527-2551-409 -5.10417498073583e-06 125000 -1193.68992102706 0 0 192 (C1) n - 1
REM
REM in /home/bkarasulu/work/CARBON/AIRSS/Generating-Clusters/EDIP-Nigel-Params/with-SteepDescent/Only-C1/SD-CG/HFTN-CG
REM
REM
REM
REM
REM
REM ./C.cell (11c1c37f851c82e70ff6c80c92926a4b)
REM
REM compiler GCC version 9.2.1 20190827 (Red Hat 9.2.1-1)
REM options -cpp -mtune=generic -march=x86-64 -g -O0 -fpre-include=/usr/include/finclude/math-vector-fortran.h
REM seed -1946635102 1856286156 1349256779 -1914176852 -1264062465 -1203024232 534680272 136633424 856114610 -203538528 1736150796 -1766377235 347562986 -1940785623 -114974967 102380819 -1423909270 1508947506 -51156566 486144049 -939902223 2084970816 -389055113 1009794580 -502970966 1092443707 131795549 790259547 -1980726033 1155678902 66795308 1720628358 -2067509592
REM
CELL 1.54180   50.00000   50.00000   50.00000   90.00000   90.00000   90.00000
LATT -1
SFAC C  
C      1  0.4234910000000  0.5289340000000  0.5306100000000 1.0
C      1  0.4633640000000  0.5141920000000  0.3883860000000 1.0
C      1  0.4271850000000  0.5955360000000  0.4974660000000 1.0
C      1  0.5508910000000  0.5197890000000  0.5434620000000 1.0
C      1  0.5717760000000  0.5052820000000  0.4586880000000 1.0
C      1  0.4690890000000  0.4037710000000  0.5050250000000 1.0
C      1  0.3880020000000  0.4448580000000  0.5459090000000 1.0
C      1  0.4402140000000  0.4616780000000  0.4910040000000 1.0
C      1  0.5038850000000  0.3940060000000  0.4613500000000 1.0
C      1  0.4971690000000  0.3999110000000  0.4936020000000 1.0
C      1  0.5573880000000  0.5745520000000  0.5254400000000 1.0
C      1  0.4784640000000  0.4912020000000  0.5108440000000 1.0
C      1  0.5539270000000  0.4206900000000  0.4334510000000 1.0
C      1  0.4592930000000  0.5344300000000  0.5033190000000 1.0
C      1  0.5897740000000  0.5438620000000  0.4249210000000 1.0
C      1  0.4310330000000  0.5751010000000  0.5201330000000 1.0
C      1  0.4849630000000  0.4887540000000  0.4163210000000 1.0
C      1  0.4368450000000  0.5151070000000  0.5090480000000 1.0
C      1  0.4947550000000  0.5771600000000  0.4210850000000 1.0
C      1  0.4627800000000  0.4525810000000  0.4054040000000 1.0
C      1  0.5553820000000  0.4866980000000  0.4763820000000 1.0
C      1  0.6018030000000  0.5523620000000  0.5290640000000 1.0
C      1  0.4745000000000  0.5293250000000  0.5455810000000 1.0
C      1  0.4123420000000  0.5103850000000  0.5514770000000 1.0
C      1  0.5147490000000  0.5768060000000  0.5086710000000 1.0
C      1  0.5230230000000  0.4587390000000  0.4641570000000 1.0
C      1  0.3975770000000  0.4883330000000  0.5426310000000 1.0
C      1  0.4292220000000  0.4590430000000  0.5755610000000 1.0
C      1  0.4283340000000  0.4790030000000  0.5976400000000 1.0
C      1  0.5581280000000  0.3987170000000  0.4948760000000 1.0
C      1  0.3825770000000  0.4685130000000  0.5014480000000 1.0
C      1  0.5065820000000  0.4272930000000  0.4906940000000 1.0
C      1  0.4275150000000  0.4140790000000  0.5451600000000 1.0
C      1  0.4263790000000  0.4274180000000  0.5205840000000 1.0
C      1  0.4741730000000  0.4169330000000  0.5328600000000 1.0
C      1  0.4581940000000  0.5922710000000  0.4565630000000 1.0
C      1  0.5518140000000  0.4472330000000  0.4168750000000 1.0
C      1  0.5292790000000  0.4138540000000  0.4508960000000 1.0
C      1  0.6085670000000  0.4500510000000  0.5398520000000 1.0
C      1  0.5507380000000  0.5859280000000  0.5671070000000 1.0
C      1  0.5976670000000  0.5335900000000  0.5535450000000 1.0
C      1  0.5510510000000  0.5311830000000  0.4983540000000 1.0
C      1  0.5362140000000  0.4747870000000  0.5360440000000 1.0
C      1  0.5036600000000  0.5866510000000  0.5706430000000 1.0
C      1  0.4739190000000  0.4985000000000  0.6210730000000 1.0
C      1  0.5934150000000  0.4321690000000  0.5001040000000 1.0
C      1  0.4773130000000  0.5739540000000  0.5366050000000 1.0
C      1  0.4779300000000  0.5727360000000  0.5812110000000 1.0
C      1  0.4529840000000  0.4187040000000  0.5549050000000 1.0
C      1  0.5904650000000  0.5552990000000  0.4505840000000 1.0
C      1  0.5613790000000  0.5581330000000  0.4568040000000 1.0
C      1  0.3853500000000  0.4434080000000  0.5174590000000 1.0
C      1  0.4705420000000  0.4943150000000  0.4596440000000 1.0
C      1  0.4522920000000  0.6078010000000  0.4854350000000 1.0
C      1  0.4606740000000  0.4161740000000  0.4435760000000 1.0
C      1  0.5460070000000  0.4381370000000  0.5072570000000 1.0
C      1  0.6122350000000  0.4944100000000  0.4892090000000 1.0
C      1  0.5526560000000  0.5298980000000  0.4664290000000 1.0
C      1  0.4903600000000  0.4498320000000  0.5000600000000 1.0
C      1  0.4518490000000  0.4189630000000  0.4865350000000 1.0
C      1  0.4611730000000  0.5899140000000  0.5584530000000 1.0
C      1  0.5047130000000  0.5253900000000  0.4806930000000 1.0
C      1  0.4805630000000  0.5199100000000  0.5177280000000 1.0
C      1  0.4107990000000  0.5498020000000  0.4835820000000 1.0
C      1  0.4636310000000  0.4703110000000  0.5307490000000 1.0
C      1  0.5581590000000  0.5747240000000  0.4802630000000 1.0
C      1  0.4350000000000  0.5078730000000  0.4608000000000 1.0
C      1  0.5663340000000  0.4281220000000  0.5392200000000 1.0
C      1  0.6315870000000  0.4739760000000  0.4850790000000 1.0
C      1  0.4303610000000  0.5554230000000  0.4369540000000 1.0
C      1  0.5280350000000  0.6002890000000  0.5230380000000 1.0
C      1  0.5270440000000  0.4495930000000  0.6001550000000 1.0
C      1  0.4429040000000  0.3977280000000  0.4549830000000 1.0
C      1  0.4876610000000  0.4077510000000  0.4393970000000 1.0
C      1  0.4920940000000  0.4757650000000  0.3697870000000 1.0
C      1  0.5289450000000  0.6179830000000  0.4983490000000 1.0
C      1  0.5804540000000  0.4110730000000  0.4821520000000 1.0
C      1  0.5391870000000  0.4949180000000  0.3921930000000 1.0
C      1  0.4669130000000  0.5839090000000  0.4267790000000 1.0
C      1  0.3834570000000  0.4925620000000  0.5171620000000 1.0
C      1  0.5426490000000  0.5693280000000  0.4348910000000 1.0
C      1  0.4793100000000  0.6128830000000  0.5328820000000 1.0
C      1  0.4823610000000  0.5125620000000  0.4371700000000 1.0
C      1  0.4015290000000  0.4231120000000  0.5067300000000 1.0
C      1  0.5964390000000  0.5039730000000  0.5572220000000 1.0
C      1  0.4874510000000  0.5741700000000  0.4643500000000 1.0
C      1  0.4836490000000  0.4464190000000  0.5291450000000 1.0
C      1  0.4253380000000  0.4806280000000  0.4221210000000 1.0
C      1  0.5138630000000  0.5165440000000  0.4341610000000 1.0
C      1  0.5510690000000  0.4797260000000  0.6027470000000 1.0
C      1  0.4652650000000  0.4489240000000  0.4814970000000 1.0
C      1  0.5286000000000  0.5753430000000  0.5801300000000 1.0
C      1  0.5308840000000  0.4330310000000  0.4750410000000 1.0
C      1  0.6067020000000  0.5483630000000  0.5006530000000 1.0
C      1  0.5837530000000  0.4518480000000  0.4529980000000 1.0
C      1  0.5247890000000  0.5246070000000  0.4595580000000 1.0
C      1  0.3911030000000  0.4999290000000  0.4555050000000 1.0
C      1  0.4307560000000  0.4594450000000  0.4415660000000 1.0
C      1  0.5675350000000  0.4476690000000  0.5636960000000 1.0
C      1  0.5671820000000  0.5359300000000  0.4096210000000 1.0
C      1  0.6398350000000  0.4974280000000  0.4954100000000 1.0
C      1  0.4156930000000  0.5039360000000  0.4376640000000 1.0
C      1  0.5113840000000  0.4783430000000  0.4262100000000 1.0
C      1  0.4545100000000  0.4417310000000  0.5738300000000 1.0
C      1  0.4679250000000  0.5386290000000  0.4048960000000 1.0
C      1  0.5565200000000  0.4012730000000  0.5436990000000 1.0
C      1  0.4368400000000  0.5010860000000  0.5670410000000 1.0
C      1  0.4586160000000  0.5638380000000  0.5139860000000 1.0
C      1  0.5172800000000  0.5518790000000  0.5270040000000 1.0
C      1  0.4793690000000  0.5097080000000  0.5669870000000 1.0
C      1  0.4278660000000  0.4037680000000  0.4768720000000 1.0
C      1  0.5061110000000  0.6055360000000  0.5453390000000 1.0
C      1  0.5108230000000  0.4218650000000  0.5611110000000 1.0
C      1  0.5081020000000  0.4503780000000  0.5485630000000 1.0
C      1  0.4513370000000  0.5603690000000  0.4166770000000 1.0
C      1  0.4327230000000  0.5579550000000  0.5662920000000 1.0
C      1  0.4773600000000  0.4392470000000  0.5935730000000 1.0
C      1  0.5579900000000  0.5365440000000  0.5910430000000 1.0
C      1  0.4490840000000  0.4815520000000  0.4020230000000 1.0
C      1  0.4902330000000  0.4989380000000  0.3873490000000 1.0
C      1  0.4340150000000  0.4575070000000  0.5210320000000 1.0
C      1  0.5038960000000  0.4303830000000  0.4277390000000 1.0
C      1  0.4627010000000  0.4824210000000  0.5594850000000 1.0
C      1  0.4354360000000  0.5083700000000  0.5963040000000 1.0
C      1  0.5313890000000  0.5491250000000  0.5913800000000 1.0
C      1  0.4996010000000  0.4611900000000  0.5981010000000 1.0
C      1  0.5242820000000  0.6084220000000  0.4711850000000 1.0
C      1  0.5300760000000  0.5814360000000  0.4821840000000 1.0
C      1  0.4901370000000  0.4406540000000  0.4014100000000 1.0
C      1  0.4727940000000  0.4632730000000  0.4545120000000 1.0
C      1  0.5861030000000  0.5773560000000  0.5363090000000 1.0
C      1  0.5742540000000  0.4634290000000  0.4275280000000 1.0
C      1  0.5592830000000  0.5060410000000  0.5921640000000 1.0
C      1  0.5717590000000  0.4925570000000  0.4304900000000 1.0
C      1  0.3892650000000  0.5163750000000  0.5019480000000 1.0
C      1  0.5867530000000  0.4668430000000  0.5488220000000 1.0
C      1  0.5167350000000  0.5068460000000  0.6051150000000 1.0
C      1  0.5770360000000  0.5753070000000  0.5648630000000 1.0
C      1  0.5426460000000  0.5516820000000  0.4114510000000 1.0
C      1  0.4941360000000  0.5515660000000  0.4065840000000 1.0
C      1  0.5147220000000  0.3935570000000  0.5182370000000 1.0
C      1  0.4952480000000  0.4189480000000  0.5846660000000 1.0
C      1  0.4873390000000  0.5817500000000  0.4948910000000 1.0
C      1  0.5215580000000  0.5312170000000  0.5058490000000 1.0
C      1  0.5258440000000  0.4622030000000  0.5104540000000 1.0
C      1  0.4616890000000  0.5187800000000  0.6059930000000 1.0
C      1  0.3866540000000  0.5225300000000  0.4740110000000 1.0
C      1  0.5019090000000  0.4568350000000  0.4443340000000 1.0
C      1  0.5246660000000  0.4800110000000  0.4842800000000 1.0
C      1  0.5641380000000  0.5584550000000  0.5024690000000 1.0
C      1  0.4808500000000  0.5408180000000  0.5923730000000 1.0
C      1  0.5473780000000  0.4595750000000  0.5819030000000 1.0
C      1  0.5788540000000  0.4222380000000  0.4521590000000 1.0
C      1  0.4327690000000  0.5818590000000  0.5507540000000 1.0
C      1  0.6045330000000  0.5397840000000  0.4729180000000 1.0
C      1  0.5074610000000  0.4570350000000  0.3845810000000 1.0
C      1  0.4770030000000  0.6085710000000  0.5026150000000 1.0
C      1  0.4984590000000  0.4705290000000  0.5697590000000 1.0
C      1  0.5089220000000  0.5344640000000  0.6016100000000 1.0
C      1  0.4212930000000  0.5001200000000  0.4873720000000 1.0
C      1  0.4991070000000  0.4024720000000  0.5421700000000 1.0
C      1  0.5669640000000  0.4778800000000  0.5250930000000 1.0
C      1  0.5439120000000  0.3958170000000  0.5189590000000 1.0
C      1  0.4343100000000  0.5383340000000  0.4632320000000 1.0
C      1  0.5432230000000  0.5543150000000  0.5450530000000 1.0
C      1  0.5171300000000  0.5140650000000  0.3870490000000 1.0
C      1  0.4982700000000  0.4867920000000  0.6149700000000 1.0
C      1  0.4846030000000  0.5427880000000  0.4624060000000 1.0
C      1  0.5086270000000  0.4993860000000  0.5684910000000 1.0
C      1  0.5659110000000  0.4606480000000  0.4747430000000 1.0
C      1  0.5260690000000  0.5021730000000  0.5437990000000 1.0
C      1  0.4114430000000  0.4623420000000  0.5481010000000 1.0
C      1  0.4295780000000  0.5813740000000  0.4512490000000 1.0
C      1  0.5608220000000  0.5073030000000  0.4083780000000 1.0
C      1  0.4451910000000  0.5397140000000  0.5482320000000 1.0
C      1  0.5949900000000  0.4277210000000  0.5291910000000 1.0
C      1  0.4598630000000  0.5413150000000  0.4757430000000 1.0
C      1  0.6000020000000  0.5109960000000  0.4687730000000 1.0
C      1  0.4205510000000  0.4597320000000  0.4693940000000 1.0
C      1  0.5711200000000  0.4530800000000  0.5016760000000 1.0
C      1  0.4512470000000  0.4413750000000  0.4303080000000 1.0
C      1  0.5650150000000  0.5106020000000  0.5174830000000 1.0
C      1  0.4123180000000  0.5520310000000  0.5148260000000 1.0
C      1  0.4932700000000  0.4959710000000  0.4829510000000 1.0
C      1  0.5286550000000  0.4682590000000  0.4032210000000 1.0
C      1  0.5166890000000  0.5844700000000  0.4411350000000 1.0
C      1  0.4133330000000  0.5796530000000  0.4758280000000 1.0
C      1  0.5672930000000  0.5031020000000  0.5635450000000 1.0
C      1  0.5777550000000  0.5471550000000  0.5710420000000 1.0
C      1  0.4936450000000  0.5514360000000  0.5460240000000 1.0
C      1  0.3956510000000  0.4747510000000  0.4742100000000 1.0
C      1  0.5178880000000  0.5344120000000  0.4090990000000 1.0
END
