TITL C-951344-124-519 -1.04023431409009e-06 125000 -1185.49975201876 0 0 189 (C1) n - 1
REM
REM in /home/bkarasulu/work/CARBON/AIRSS/Generating-Clusters/EDIP-Nigel-Params/with-SteepDescent/Only-C1/SD-CG/HFTN-CG
REM
REM
REM
REM
REM
REM ./C.cell (11c1c37f851c82e70ff6c80c92926a4b)
REM
REM compiler GCC version 9.2.1 20190827 (Red Hat 9.2.1-1)
REM options -cpp -mtune=generic -march=x86-64 -g -O0 -fpre-include=/usr/include/finclude/math-vector-fortran.h
REM seed 335957811 -948460879 -986770494 -271103562 -425896451 -608967228 584952860 -1776225440 943030406 1536234599 1809094093 -1732795325 1464769335 -1973549865 -1445612540 192825583 2086050942 1697215607 -1403490546 1496236193 -442590893 1919716851 -65673885 -2062092648 -572216023 1887149241 2020948757 -500744796 -659908246 -1310413006 -85518233 1935355868 808167156
REM
CELL 1.54180   50.00000   50.00000   50.00000   90.00000   90.00000   90.00000
LATT -1
SFAC C  
C      1  0.5348860000000  0.5970650000000  0.4660730000000 1.0
C      1  0.6124270000000  0.4442460000000  0.5106430000000 1.0
C      1  0.5306110000000  0.4895180000000  0.6170390000000 1.0
C      1  0.4911120000000  0.5139230000000  0.6043400000000 1.0
C      1  0.5017410000000  0.4702990000000  0.5675680000000 1.0
C      1  0.3986270000000  0.4808770000000  0.4836210000000 1.0
C      1  0.5247940000000  0.4635640000000  0.6084510000000 1.0
C      1  0.4216490000000  0.5304830000000  0.5536190000000 1.0
C      1  0.5401550000000  0.6058650000000  0.4933610000000 1.0
C      1  0.5250060000000  0.4136150000000  0.4627800000000 1.0
C      1  0.4362000000000  0.4529260000000  0.4919830000000 1.0
C      1  0.5600900000000  0.5870300000000  0.4509990000000 1.0
C      1  0.5135870000000  0.5830940000000  0.5851970000000 1.0
C      1  0.5049450000000  0.4234480000000  0.4247140000000 1.0
C      1  0.4673700000000  0.4965790000000  0.4955280000000 1.0
C      1  0.4651130000000  0.5278480000000  0.5874820000000 1.0
C      1  0.5588760000000  0.4282390000000  0.5535220000000 1.0
C      1  0.5544010000000  0.5781770000000  0.4248410000000 1.0
C      1  0.5747360000000  0.4840190000000  0.4360490000000 1.0
C      1  0.4706210000000  0.4262420000000  0.5592560000000 1.0
C      1  0.6164840000000  0.4637030000000  0.5310550000000 1.0
C      1  0.4169080000000  0.5893780000000  0.5317390000000 1.0
C      1  0.5914810000000  0.5233760000000  0.5470260000000 1.0
C      1  0.5131940000000  0.4180930000000  0.5752390000000 1.0
C      1  0.4114090000000  0.4769790000000  0.4536790000000 1.0
C      1  0.4799390000000  0.5164010000000  0.5618860000000 1.0
C      1  0.4764890000000  0.4930530000000  0.4037610000000 1.0
C      1  0.4998520000000  0.5681390000000  0.4986500000000 1.0
C      1  0.4847990000000  0.5968650000000  0.4622960000000 1.0
C      1  0.4226700000000  0.4697880000000  0.4096160000000 1.0
C      1  0.4294670000000  0.5562100000000  0.5681590000000 1.0
C      1  0.5602520000000  0.5082330000000  0.4237540000000 1.0
C      1  0.4487560000000  0.5582210000000  0.5045290000000 1.0
C      1  0.4474510000000  0.4549390000000  0.4090270000000 1.0
C      1  0.5725040000000  0.4623780000000  0.5857640000000 1.0
C      1  0.4881660000000  0.4318540000000  0.5852690000000 1.0
C      1  0.5408940000000  0.4239840000000  0.4392720000000 1.0
C      1  0.5246510000000  0.4063290000000  0.5278560000000 1.0
C      1  0.4687410000000  0.3919380000000  0.4477400000000 1.0
C      1  0.5294230000000  0.5579300000000  0.5103330000000 1.0
C      1  0.4427570000000  0.5471720000000  0.4214850000000 1.0
C      1  0.5498760000000  0.4523740000000  0.4707530000000 1.0
C      1  0.4187030000000  0.4078670000000  0.4809800000000 1.0
C      1  0.5053040000000  0.5186180000000  0.5260520000000 1.0
C      1  0.6036980000000  0.4445530000000  0.4836050000000 1.0
C      1  0.4051400000000  0.4550220000000  0.5242330000000 1.0
C      1  0.5154500000000  0.5356240000000  0.6085180000000 1.0
C      1  0.4063960000000  0.5105630000000  0.4189470000000 1.0
C      1  0.4257120000000  0.4817800000000  0.4955570000000 1.0
C      1  0.5710920000000  0.4240660000000  0.4462940000000 1.0
C      1  0.4143280000000  0.4468000000000  0.4517640000000 1.0
C      1  0.4006770000000  0.5484040000000  0.5101330000000 1.0
C      1  0.5518870000000  0.5177130000000  0.4884400000000 1.0
C      1  0.5045710000000  0.4677960000000  0.4829260000000 1.0
C      1  0.5329790000000  0.5543280000000  0.4549430000000 1.0
C      1  0.5108640000000  0.5075050000000  0.4361400000000 1.0
C      1  0.4479120000000  0.5372160000000  0.4801200000000 1.0
C      1  0.5348770000000  0.4614890000000  0.5208860000000 1.0
C      1  0.4444560000000  0.4285770000000  0.4166420000000 1.0
C      1  0.4832640000000  0.4882370000000  0.4722160000000 1.0
C      1  0.4662200000000  0.5581950000000  0.4377180000000 1.0
C      1  0.5704620000000  0.5357400000000  0.5878370000000 1.0
C      1  0.4220000000000  0.5800460000000  0.5561760000000 1.0
C      1  0.6005480000000  0.5195430000000  0.4611130000000 1.0
C      1  0.5530610000000  0.5008350000000  0.5123620000000 1.0
C      1  0.5524900000000  0.5554560000000  0.5779740000000 1.0
C      1  0.4472460000000  0.4756440000000  0.5707840000000 1.0
C      1  0.3950590000000  0.4865060000000  0.4312850000000 1.0
C      1  0.4214440000000  0.5687490000000  0.5131450000000 1.0
C      1  0.5284640000000  0.5411980000000  0.4061430000000 1.0
C      1  0.4899890000000  0.6190440000000  0.5086040000000 1.0
C      1  0.5779610000000  0.4840400000000  0.5135150000000 1.0
C      1  0.5598430000000  0.5623310000000  0.5508570000000 1.0
C      1  0.4801300000000  0.4006980000000  0.5474550000000 1.0
C      1  0.4522480000000  0.4840670000000  0.5994010000000 1.0
C      1  0.4805200000000  0.4836540000000  0.6079900000000 1.0
C      1  0.3888530000000  0.5048620000000  0.5243940000000 1.0
C      1  0.5168150000000  0.6066950000000  0.5116720000000 1.0
C      1  0.6180310000000  0.5159940000000  0.5310440000000 1.0
C      1  0.4859820000000  0.4039080000000  0.4295450000000 1.0
C      1  0.4414180000000  0.5052900000000  0.4845680000000 1.0
C      1  0.6135360000000  0.5345720000000  0.5078230000000 1.0
C      1  0.4513900000000  0.5071400000000  0.4041910000000 1.0
C      1  0.4027700000000  0.4816030000000  0.5369900000000 1.0
C      1  0.4382500000000  0.4943530000000  0.4548840000000 1.0
C      1  0.6194580000000  0.5243920000000  0.4818090000000 1.0
C      1  0.4755700000000  0.3972400000000  0.5206450000000 1.0
C      1  0.4602290000000  0.4487880000000  0.4724610000000 1.0
C      1  0.4092860000000  0.5428730000000  0.4598930000000 1.0
C      1  0.5745380000000  0.5653650000000  0.4650440000000 1.0
C      1  0.5511990000000  0.5855630000000  0.5367740000000 1.0
C      1  0.4636910000000  0.4741700000000  0.4531430000000 1.0
C      1  0.5902060000000  0.5512590000000  0.5116620000000 1.0
C      1  0.5221330000000  0.5555370000000  0.5845950000000 1.0
C      1  0.5149130000000  0.5510650000000  0.4296520000000 1.0
C      1  0.5355150000000  0.5137720000000  0.6035640000000 1.0
C      1  0.5890760000000  0.4723620000000  0.5405790000000 1.0
C      1  0.5801990000000  0.4477670000000  0.5596650000000 1.0
C      1  0.4355330000000  0.4391240000000  0.5257780000000 1.0
C      1  0.5568670000000  0.5854900000000  0.5073970000000 1.0
C      1  0.3965520000000  0.5318490000000  0.5350590000000 1.0
C      1  0.4878530000000  0.4384530000000  0.5264230000000 1.0
C      1  0.4245360000000  0.5267760000000  0.4381180000000 1.0
C      1  0.4739550000000  0.3994300000000  0.4749630000000 1.0
C      1  0.4919670000000  0.5149590000000  0.4600910000000 1.0
C      1  0.5461300000000  0.4492100000000  0.4105230000000 1.0
C      1  0.3889530000000  0.5068160000000  0.4943780000000 1.0
C      1  0.4249600000000  0.4965690000000  0.4006400000000 1.0
C      1  0.4758120000000  0.5597610000000  0.5532200000000 1.0
C      1  0.5885820000000  0.5168370000000  0.5766910000000 1.0
C      1  0.4119920000000  0.4372600000000  0.4801440000000 1.0
C      1  0.4047100000000  0.5307000000000  0.4869120000000 1.0
C      1  0.4386170000000  0.4302100000000  0.4446920000000 1.0
C      1  0.6255180000000  0.4887220000000  0.5181170000000 1.0
C      1  0.5011620000000  0.4893240000000  0.5285810000000 1.0
C      1  0.6031360000000  0.4930460000000  0.4972410000000 1.0
C      1  0.5741950000000  0.5344530000000  0.4223880000000 1.0
C      1  0.4405040000000  0.4304170000000  0.5552200000000 1.0
C      1  0.4715920000000  0.4842210000000  0.5230890000000 1.0
C      1  0.4628070000000  0.5432640000000  0.5269060000000 1.0
C      1  0.5221280000000  0.4651310000000  0.4111110000000 1.0
C      1  0.4819350000000  0.5379310000000  0.3910110000000 1.0
C      1  0.5637840000000  0.4083240000000  0.4962720000000 1.0
C      1  0.4993100000000  0.5146110000000  0.4051500000000 1.0
C      1  0.4889770000000  0.5652600000000  0.3951060000000 1.0
C      1  0.4795460000000  0.5897220000000  0.5504150000000 1.0
C      1  0.5878600000000  0.4372450000000  0.4279270000000 1.0
C      1  0.4614310000000  0.5840720000000  0.4503140000000 1.0
C      1  0.4531870000000  0.5342790000000  0.3968320000000 1.0
C      1  0.5395160000000  0.3968440000000  0.4829570000000 1.0
C      1  0.5204980000000  0.4781170000000  0.4375500000000 1.0
C      1  0.4634830000000  0.4550340000000  0.5264130000000 1.0
C      1  0.4442050000000  0.5216350000000  0.5362060000000 1.0
C      1  0.5064590000000  0.5965200000000  0.5610050000000 1.0
C      1  0.5056140000000  0.5274490000000  0.4828290000000 1.0
C      1  0.4095990000000  0.4822690000000  0.5655830000000 1.0
C      1  0.5487930000000  0.4982130000000  0.5576830000000 1.0
C      1  0.3915160000000  0.4536100000000  0.4974010000000 1.0
C      1  0.4974790000000  0.4605900000000  0.5951770000000 1.0
C      1  0.5090070000000  0.5788040000000  0.4691850000000 1.0
C      1  0.4339470000000  0.4033620000000  0.4561780000000 1.0
C      1  0.5455730000000  0.4512200000000  0.5920570000000 1.0
C      1  0.5724830000000  0.4586870000000  0.4187790000000 1.0
C      1  0.6016970000000  0.4919660000000  0.4486490000000 1.0
C      1  0.5202540000000  0.4814590000000  0.5068410000000 1.0
C      1  0.4703930000000  0.6014500000000  0.5240670000000 1.0
C      1  0.4593230000000  0.4989180000000  0.5468910000000 1.0
C      1  0.5864690000000  0.5425480000000  0.4488090000000 1.0
C      1  0.5025380000000  0.4997420000000  0.5730100000000 1.0
C      1  0.4174130000000  0.5701950000000  0.4617400000000 1.0
C      1  0.4728430000000  0.4673590000000  0.4196300000000 1.0
C      1  0.5248370000000  0.5974910000000  0.5381880000000 1.0
C      1  0.5216000000000  0.4576830000000  0.4604860000000 1.0
C      1  0.5393080000000  0.5177590000000  0.4440100000000 1.0
C      1  0.4986200000000  0.4141050000000  0.4821400000000 1.0
C      1  0.5117470000000  0.4541080000000  0.5411840000000 1.0
C      1  0.5270290000000  0.5371620000000  0.5347460000000 1.0
C      1  0.4302430000000  0.4510840000000  0.5720440000000 1.0
C      1  0.4915830000000  0.5661440000000  0.4232250000000 1.0
C      1  0.4409380000000  0.5112350000000  0.5952800000000 1.0
C      1  0.5529190000000  0.4149750000000  0.5270470000000 1.0
C      1  0.5443990000000  0.5005500000000  0.4677680000000 1.0
C      1  0.5365250000000  0.4345480000000  0.5707290000000 1.0
C      1  0.5295440000000  0.5119030000000  0.5738680000000 1.0
C      1  0.4758810000000  0.6191770000000  0.4807930000000 1.0
C      1  0.5496370000000  0.4445680000000  0.5017590000000 1.0
C      1  0.5160890000000  0.3959070000000  0.5023700000000 1.0
C      1  0.4328600000000  0.4012560000000  0.5037980000000 1.0
C      1  0.4878440000000  0.4426000000000  0.4916730000000 1.0
C      1  0.4882890000000  0.5330720000000  0.5072660000000 1.0
C      1  0.5790480000000  0.5707600000000  0.4936650000000 1.0
C      1  0.5796560000000  0.4269020000000  0.4753950000000 1.0
C      1  0.5058640000000  0.5462360000000  0.5596750000000 1.0
C      1  0.4477880000000  0.6088190000000  0.4842390000000 1.0
C      1  0.4685000000000  0.5810240000000  0.5003310000000 1.0
C      1  0.4190500000000  0.5094790000000  0.5748620000000 1.0
C      1  0.5548570000000  0.5537980000000  0.4105960000000 1.0
C      1  0.5537900000000  0.5181420000000  0.5368810000000 1.0
C      1  0.6054270000000  0.4736100000000  0.4736980000000 1.0
C      1  0.4590790000000  0.3929880000000  0.4991280000000 1.0
C      1  0.5321190000000  0.5398840000000  0.4845530000000 1.0
C      1  0.4974400000000  0.4490500000000  0.4132640000000 1.0
C      1  0.4576120000000  0.5551260000000  0.5769710000000 1.0
C      1  0.5085510000000  0.4011570000000  0.5519300000000 1.0
C      1  0.5744740000000  0.4900130000000  0.5699400000000 1.0
C      1  0.5833680000000  0.5505500000000  0.5396590000000 1.0
C      1  0.4369300000000  0.5909200000000  0.4632150000000 1.0
C      1  0.5625390000000  0.4786030000000  0.4638640000000 1.0
C      1  0.4696560000000  0.5372890000000  0.4591040000000 1.0
END
