TITL C-951336-9012-321 -7.52724439999017e-07 125000 -881.814937859961 0 0 142 (C1) n - 1
REM
REM in /home/bkarasulu/work/CARBON/AIRSS/Generating-Clusters/EDIP-Nigel-Params/with-SteepDescent/Only-C1/SD-CG/HFTN-CG
REM
REM
REM
REM
REM
REM ./C.cell (11c1c37f851c82e70ff6c80c92926a4b)
REM
REM compiler GCC version 9.2.1 20190827 (Red Hat 9.2.1-1)
REM options -cpp -mtune=generic -march=x86-64 -g -O0 -fpre-include=/usr/include/finclude/math-vector-fortran.h
REM seed 1058713985 1936699906 1046404626 681099668 -1453671838 114831793 726427147 753306537 2144039733 -1433541060 -1646148061 1221167854 1663251415 -1788727217 1241165088 328634604 -1078592714 -894672883 1880066996 904006509 -681954217 -286950910 -432333004 38643802 1999733127 -1332545211 -1485303096 2094473172 -730486551 1530332398 1188841051 1225266083 481954298
REM
CELL 1.54180   50.00000   50.00000   50.00000   90.00000   90.00000   90.00000
LATT -1
SFAC C  
C      1  0.5341550000000  0.5805690000000  0.4720170000000 1.0
C      1  0.5371070000000  0.5943200000000  0.4991380000000 1.0
C      1  0.4131440000000  0.4974870000000  0.4740200000000 1.0
C      1  0.5900440000000  0.5075810000000  0.4603520000000 1.0
C      1  0.4204650000000  0.4537050000000  0.4482940000000 1.0
C      1  0.4504600000000  0.4393460000000  0.5127920000000 1.0
C      1  0.4963720000000  0.3964740000000  0.4870210000000 1.0
C      1  0.5617600000000  0.5535510000000  0.4367520000000 1.0
C      1  0.5153700000000  0.4702300000000  0.3926600000000 1.0
C      1  0.5106660000000  0.4363270000000  0.5153700000000 1.0
C      1  0.5393090000000  0.5408680000000  0.4076210000000 1.0
C      1  0.5076590000000  0.6013280000000  0.4526620000000 1.0
C      1  0.4978960000000  0.5437690000000  0.5832180000000 1.0
C      1  0.6052270000000  0.5163320000000  0.5081740000000 1.0
C      1  0.4516840000000  0.5334740000000  0.4217100000000 1.0
C      1  0.5720270000000  0.5475150000000  0.4862220000000 1.0
C      1  0.4183230000000  0.4730400000000  0.5491650000000 1.0
C      1  0.5664450000000  0.4806080000000  0.5747050000000 1.0
C      1  0.4959320000000  0.4951880000000  0.6071760000000 1.0
C      1  0.5138960000000  0.5568050000000  0.5002790000000 1.0
C      1  0.4881880000000  0.4220480000000  0.4719030000000 1.0
C      1  0.4355040000000  0.5678080000000  0.4675720000000 1.0
C      1  0.5071160000000  0.4957760000000  0.3923010000000 1.0
C      1  0.4652270000000  0.5970390000000  0.5282610000000 1.0
C      1  0.4923420000000  0.4320300000000  0.4426580000000 1.0
C      1  0.4559080000000  0.5810590000000  0.5514080000000 1.0
C      1  0.5310590000000  0.5311260000000  0.4689440000000 1.0
C      1  0.4501440000000  0.5372870000000  0.5451820000000 1.0
C      1  0.4983190000000  0.4622070000000  0.5794110000000 1.0
C      1  0.5092700000000  0.6003160000000  0.5041710000000 1.0
C      1  0.4124090000000  0.5011480000000  0.5480030000000 1.0
C      1  0.4931300000000  0.4721400000000  0.5517670000000 1.0
C      1  0.5612800000000  0.4060630000000  0.5151990000000 1.0
C      1  0.4708840000000  0.5936720000000  0.4792960000000 1.0
C      1  0.4812410000000  0.5516490000000  0.5099750000000 1.0
C      1  0.4691940000000  0.5118880000000  0.4153810000000 1.0
C      1  0.4823000000000  0.5195460000000  0.5944920000000 1.0
C      1  0.4641300000000  0.4967280000000  0.5211330000000 1.0
C      1  0.4793730000000  0.5438700000000  0.5398590000000 1.0
C      1  0.5416740000000  0.4958200000000  0.4447600000000 1.0
C      1  0.5148250000000  0.5339120000000  0.4227070000000 1.0
C      1  0.5462110000000  0.4299160000000  0.5664310000000 1.0
C      1  0.4344420000000  0.5747340000000  0.4964300000000 1.0
C      1  0.4783790000000  0.4976280000000  0.5484300000000 1.0
C      1  0.4196220000000  0.5596100000000  0.5159040000000 1.0
C      1  0.4718620000000  0.4080410000000  0.5487460000000 1.0
C      1  0.5556530000000  0.4951080000000  0.4712870000000 1.0
C      1  0.4675540000000  0.4656040000000  0.5124560000000 1.0
C      1  0.4947550000000  0.6021090000000  0.5304930000000 1.0
C      1  0.4470650000000  0.4468190000000  0.4544300000000 1.0
C      1  0.5785720000000  0.5229690000000  0.5499940000000 1.0
C      1  0.4889840000000  0.4544290000000  0.5291430000000 1.0
C      1  0.4962860000000  0.6048080000000  0.4790800000000 1.0
C      1  0.4937400000000  0.5035930000000  0.4604140000000 1.0
C      1  0.4698740000000  0.5516930000000  0.4644370000000 1.0
C      1  0.5167980000000  0.5282300000000  0.4941240000000 1.0
C      1  0.5375970000000  0.4474380000000  0.5195270000000 1.0
C      1  0.4155310000000  0.4652000000000  0.5209710000000 1.0
C      1  0.5227080000000  0.4657190000000  0.4710860000000 1.0
C      1  0.5964920000000  0.4702280000000  0.5298970000000 1.0
C      1  0.5197570000000  0.5156400000000  0.4473840000000 1.0
C      1  0.5377830000000  0.3967220000000  0.5025260000000 1.0
C      1  0.4642120000000  0.4394160000000  0.4310920000000 1.0
C      1  0.4823520000000  0.5978360000000  0.4364830000000 1.0
C      1  0.5000360000000  0.4326130000000  0.5803680000000 1.0
C      1  0.4089800000000  0.5337880000000  0.5054980000000 1.0
C      1  0.5064010000000  0.5604300000000  0.4354190000000 1.0
C      1  0.5544270000000  0.5288080000000  0.5335210000000 1.0
C      1  0.4624620000000  0.5795600000000  0.5039720000000 1.0
C      1  0.5538670000000  0.4489690000000  0.5436370000000 1.0
C      1  0.5611860000000  0.5052890000000  0.4268600000000 1.0
C      1  0.4056700000000  0.5092100000000  0.5207930000000 1.0
C      1  0.4639490000000  0.4623460000000  0.4128260000000 1.0
C      1  0.4845100000000  0.5658560000000  0.5621400000000 1.0
C      1  0.4802010000000  0.4678830000000  0.4868980000000 1.0
C      1  0.5475420000000  0.5768740000000  0.5200160000000 1.0
C      1  0.4338780000000  0.5609490000000  0.5434270000000 1.0
C      1  0.4508730000000  0.4884960000000  0.4134320000000 1.0
C      1  0.5254400000000  0.4104180000000  0.5611570000000 1.0
C      1  0.5747900000000  0.4417830000000  0.4872580000000 1.0
C      1  0.5150450000000  0.5059690000000  0.5152250000000 1.0
C      1  0.4629990000000  0.5062800000000  0.5750020000000 1.0
C      1  0.5654380000000  0.5103630000000  0.5752540000000 1.0
C      1  0.5361440000000  0.5445990000000  0.5517150000000 1.0
C      1  0.5443370000000  0.4992800000000  0.5255210000000 1.0
C      1  0.5644640000000  0.5315590000000  0.4175350000000 1.0
C      1  0.5598140000000  0.4858110000000  0.5006810000000 1.0
C      1  0.4839020000000  0.5723800000000  0.4211810000000 1.0
C      1  0.4303550000000  0.5231920000000  0.4393670000000 1.0
C      1  0.5866010000000  0.4766750000000  0.4562340000000 1.0
C      1  0.4426350000000  0.5090390000000  0.4639060000000 1.0
C      1  0.5523480000000  0.5494100000000  0.5089600000000 1.0
C      1  0.4577850000000  0.5961050000000  0.4540200000000 1.0
C      1  0.4383470000000  0.4354260000000  0.5753140000000 1.0
C      1  0.5814870000000  0.4257750000000  0.5116420000000 1.0
C      1  0.4823890000000  0.4797220000000  0.4423070000000 1.0
C      1  0.5277450000000  0.5690450000000  0.5401420000000 1.0
C      1  0.5064470000000  0.4600910000000  0.4428410000000 1.0
C      1  0.4223010000000  0.4960250000000  0.4265320000000 1.0
C      1  0.4151970000000  0.5175490000000  0.5707100000000 1.0
C      1  0.4420710000000  0.5257710000000  0.5696150000000 1.0
C      1  0.5868720000000  0.5218870000000  0.4861250000000 1.0
C      1  0.4614040000000  0.4158130000000  0.5238090000000 1.0
C      1  0.4535420000000  0.4143770000000  0.5688180000000 1.0
C      1  0.4631930000000  0.4700130000000  0.4635440000000 1.0
C      1  0.4160870000000  0.5461590000000  0.4563580000000 1.0
C      1  0.4704070000000  0.5212290000000  0.5023300000000 1.0
C      1  0.4079280000000  0.4867160000000  0.5029390000000 1.0
C      1  0.5507020000000  0.5537050000000  0.4646510000000 1.0
C      1  0.4998480000000  0.5625470000000  0.4668930000000 1.0
C      1  0.5501650000000  0.4582960000000  0.4950210000000 1.0
C      1  0.4226890000000  0.4402130000000  0.5114360000000 1.0
C      1  0.4374840000000  0.4623980000000  0.5691450000000 1.0
C      1  0.4956820000000  0.5176760000000  0.4049090000000 1.0
C      1  0.5058620000000  0.5841160000000  0.5511230000000 1.0
C      1  0.5953280000000  0.4618830000000  0.4806090000000 1.0
C      1  0.5347680000000  0.5108080000000  0.5804840000000 1.0
C      1  0.5498920000000  0.4688020000000  0.5970830000000 1.0
C      1  0.4772120000000  0.4717120000000  0.6003020000000 1.0
C      1  0.4043980000000  0.5277980000000  0.4767930000000 1.0
C      1  0.5827740000000  0.4447800000000  0.5353470000000 1.0
C      1  0.5994950000000  0.5080960000000  0.5357320000000 1.0
C      1  0.4089690000000  0.4794170000000  0.4479540000000 1.0
C      1  0.5304140000000  0.4118450000000  0.4778460000000 1.0
C      1  0.5489830000000  0.4480890000000  0.4223580000000 1.0
C      1  0.5898750000000  0.4813080000000  0.5033960000000 1.0
C      1  0.5245800000000  0.4866680000000  0.5941950000000 1.0
C      1  0.5126180000000  0.4373540000000  0.4837860000000 1.0
C      1  0.5702470000000  0.4606190000000  0.4370780000000 1.0
C      1  0.5464860000000  0.4413840000000  0.5921860000000 1.0
C      1  0.5493610000000  0.4775540000000  0.5500700000000 1.0
C      1  0.5366500000000  0.4236590000000  0.4297570000000 1.0
C      1  0.5095030000000  0.4029510000000  0.5145880000000 1.0
C      1  0.4621970000000  0.5568810000000  0.4344420000000 1.0
C      1  0.4985240000000  0.4194120000000  0.5545180000000 1.0
C      1  0.4988260000000  0.5184260000000  0.5421090000000 1.0
C      1  0.5108570000000  0.4146500000000  0.4283680000000 1.0
C      1  0.5248230000000  0.4648610000000  0.4186830000000 1.0
C      1  0.5169200000000  0.5285800000000  0.5654970000000 1.0
C      1  0.5037210000000  0.4865550000000  0.4847220000000 1.0
C      1  0.4690230000000  0.5212610000000  0.4724610000000 1.0
C      1  0.4519370000000  0.4810200000000  0.5871110000000 1.0
END
