TITL C-950531-5884-54 9.76881039939258e-05 125000 -1248.7726990709 0 0 199 (C1) n - 1
REM
REM in /home/bkarasulu/work/CARBON/AIRSS/Generating-Clusters/EDIP-Nigel-Params/with-SteepDescent/Only-C1/SD-CG/HFTN-CG
REM
REM
REM
REM
REM
REM ./C.cell (11c1c37f851c82e70ff6c80c92926a4b)
REM
REM compiler GCC version 9.2.1 20190827 (Red Hat 9.2.1-1)
REM options -cpp -mtune=generic -march=x86-64 -g -O0 -fpre-include=/usr/include/finclude/math-vector-fortran.h
REM seed -2122680715 1660182208 1407878350 -102961926 -292975841 -91934957 1238633474 537953375 1727635056 -1949186547 -1471363920 889933506 61455887 1414528652 1825608863 -1307857223 -1478068027 2037299018 -2022903519 1054292665 1078062566 1543663220 -859690273 -394497523 445500150 -674062107 733313180 -132688545 1331402408 -644178252 -1736692599 -732198983 47352394
REM
CELL 1.54180   50.00000   50.00000   50.00000   90.00000   90.00000   90.00000
LATT -1
SFAC C  
C      1  0.5477540000000  0.4591700000000  0.4536870000000 1.0
C      1  0.4784610000000  0.4091760000000  0.4370260000000 1.0
C      1  0.4460060000000  0.3922140000000  0.5118070000000 1.0
C      1  0.4163540000000  0.4479870000000  0.4554150000000 1.0
C      1  0.5218500000000  0.6063220000000  0.4381830000000 1.0
C      1  0.5480300000000  0.4308310000000  0.4936960000000 1.0
C      1  0.4007700000000  0.5040840000000  0.4494560000000 1.0
C      1  0.5581220000000  0.5947900000000  0.5545260000000 1.0
C      1  0.5964000000000  0.5229830000000  0.4291560000000 1.0
C      1  0.4646340000000  0.4853670000000  0.5806970000000 1.0
C      1  0.6042900000000  0.4844680000000  0.5494250000000 1.0
C      1  0.5544760000000  0.5408980000000  0.3982580000000 1.0
C      1  0.4774560000000  0.5952220000000  0.4728040000000 1.0
C      1  0.5012080000000  0.5507580000000  0.5855160000000 1.0
C      1  0.5940170000000  0.5449950000000  0.4499020000000 1.0
C      1  0.5752700000000  0.5014560000000  0.4316480000000 1.0
C      1  0.5020060000000  0.5840620000000  0.4315770000000 1.0
C      1  0.4532460000000  0.4725930000000  0.5164350000000 1.0
C      1  0.4682430000000  0.4039570000000  0.5307120000000 1.0
C      1  0.4524080000000  0.6069100000000  0.5118440000000 1.0
C      1  0.5172970000000  0.5339540000000  0.5167270000000 1.0
C      1  0.5384790000000  0.4041680000000  0.4519180000000 1.0
C      1  0.4562360000000  0.5868150000000  0.5316130000000 1.0
C      1  0.5622720000000  0.5549540000000  0.5348420000000 1.0
C      1  0.5476210000000  0.4379990000000  0.5639150000000 1.0
C      1  0.5747820000000  0.4538610000000  0.4453410000000 1.0
C      1  0.4415450000000  0.4655110000000  0.5760860000000 1.0
C      1  0.4749980000000  0.5361020000000  0.5376120000000 1.0
C      1  0.5615210000000  0.6019460000000  0.5265790000000 1.0
C      1  0.5349380000000  0.5388080000000  0.4209950000000 1.0
C      1  0.5324130000000  0.4502110000000  0.5242380000000 1.0
C      1  0.4163840000000  0.5037400000000  0.5859930000000 1.0
C      1  0.5231820000000  0.4559360000000  0.4363560000000 1.0
C      1  0.5961480000000  0.5089090000000  0.5644970000000 1.0
C      1  0.4018510000000  0.4654500000000  0.5333500000000 1.0
C      1  0.4072140000000  0.5322330000000  0.4526970000000 1.0
C      1  0.5103560000000  0.5859350000000  0.5370190000000 1.0
C      1  0.5478170000000  0.5147690000000  0.3854150000000 1.0
C      1  0.5656460000000  0.5600940000000  0.5862470000000 1.0
C      1  0.4100990000000  0.4368820000000  0.5271940000000 1.0
C      1  0.4326000000000  0.5156030000000  0.5240840000000 1.0
C      1  0.5051240000000  0.5349900000000  0.3963450000000 1.0
C      1  0.4454400000000  0.5407830000000  0.5937290000000 1.0
C      1  0.4382760000000  0.4175760000000  0.5672370000000 1.0
C      1  0.5324460000000  0.5644920000000  0.4379100000000 1.0
C      1  0.5637240000000  0.5265590000000  0.5406180000000 1.0
C      1  0.4593170000000  0.5211130000000  0.5128110000000 1.0
C      1  0.5482490000000  0.5989440000000  0.4287830000000 1.0
C      1  0.4718480000000  0.4348280000000  0.5980170000000 1.0
C      1  0.4526540000000  0.5716960000000  0.4339390000000 1.0
C      1  0.4837080000000  0.4170490000000  0.5784520000000 1.0
C      1  0.5810270000000  0.4217870000000  0.5214420000000 1.0
C      1  0.4914860000000  0.5097340000000  0.6124050000000 1.0
C      1  0.3774730000000  0.5048530000000  0.5198230000000 1.0
C      1  0.4821210000000  0.5692940000000  0.5314330000000 1.0
C      1  0.4867820000000  0.5453020000000  0.4162330000000 1.0
C      1  0.5054890000000  0.4475490000000  0.5117520000000 1.0
C      1  0.5352660000000  0.3780250000000  0.5055310000000 1.0
C      1  0.4341520000000  0.5313940000000  0.4115110000000 1.0
C      1  0.5224700000000  0.5558170000000  0.6061750000000 1.0
C      1  0.5742210000000  0.5067390000000  0.5846770000000 1.0
C      1  0.5653480000000  0.4796310000000  0.4943030000000 1.0
C      1  0.5164130000000  0.5434970000000  0.5599010000000 1.0
C      1  0.4061080000000  0.5209360000000  0.5636150000000 1.0
C      1  0.5799100000000  0.5499470000000  0.4083120000000 1.0
C      1  0.4715220000000  0.4866920000000  0.6110420000000 1.0
C      1  0.5831130000000  0.5370800000000  0.4767640000000 1.0
C      1  0.4367530000000  0.5693130000000  0.4832660000000 1.0
C      1  0.5134280000000  0.6068110000000  0.5143470000000 1.0
C      1  0.5059680000000  0.5984920000000  0.4852750000000 1.0
C      1  0.5606070000000  0.5313380000000  0.5926880000000 1.0
C      1  0.5643090000000  0.3849840000000  0.4924650000000 1.0
C      1  0.4949480000000  0.4425150000000  0.4023550000000 1.0
C      1  0.5849750000000  0.5559120000000  0.5032770000000 1.0
C      1  0.5268530000000  0.4978570000000  0.4496290000000 1.0
C      1  0.4519180000000  0.5984100000000  0.5589590000000 1.0
C      1  0.4720650000000  0.5921190000000  0.5766410000000 1.0
C      1  0.5243240000000  0.4169900000000  0.4762140000000 1.0
C      1  0.5481550000000  0.5046100000000  0.4979670000000 1.0
C      1  0.3812460000000  0.4957480000000  0.4707630000000 1.0
C      1  0.3808290000000  0.5180580000000  0.4915660000000 1.0
C      1  0.4276340000000  0.4070780000000  0.4926320000000 1.0
C      1  0.4869100000000  0.4955360000000  0.4243200000000 1.0
C      1  0.5315510000000  0.4816130000000  0.5990550000000 1.0
C      1  0.3945510000000  0.4441310000000  0.4779510000000 1.0
C      1  0.3850800000000  0.5133210000000  0.5460830000000 1.0
C      1  0.4112580000000  0.4899230000000  0.4255610000000 1.0
C      1  0.5999730000000  0.5352770000000  0.5513770000000 1.0
C      1  0.4932400000000  0.4769720000000  0.5678420000000 1.0
C      1  0.5867560000000  0.4648800000000  0.5139000000000 1.0
C      1  0.5155420000000  0.4847820000000  0.4271310000000 1.0
C      1  0.5234340000000  0.4364010000000  0.5793780000000 1.0
C      1  0.5573350000000  0.4662520000000  0.5603310000000 1.0
C      1  0.4819880000000  0.4089410000000  0.4675630000000 1.0
C      1  0.4657110000000  0.3768080000000  0.4974200000000 1.0
C      1  0.4791050000000  0.4304710000000  0.5156460000000 1.0
C      1  0.4375990000000  0.4271180000000  0.5372530000000 1.0
C      1  0.4267570000000  0.4855610000000  0.5207040000000 1.0
C      1  0.4670430000000  0.4262830000000  0.4880130000000 1.0
C      1  0.4003340000000  0.5380700000000  0.4804040000000 1.0
C      1  0.4569170000000  0.5329550000000  0.5649200000000 1.0
C      1  0.5911000000000  0.4378990000000  0.5001000000000 1.0
C      1  0.4054460000000  0.5660150000000  0.5194550000000 1.0
C      1  0.4267840000000  0.3984260000000  0.4659860000000 1.0
C      1  0.5685580000000  0.5877730000000  0.4452150000000 1.0
C      1  0.4677390000000  0.4784550000000  0.4385880000000 1.0
C      1  0.4768450000000  0.5828440000000  0.4465310000000 1.0
C      1  0.5534740000000  0.5285630000000  0.4731150000000 1.0
C      1  0.5409560000000  0.5758570000000  0.5925120000000 1.0
C      1  0.5666710000000  0.5933630000000  0.4740910000000 1.0
C      1  0.5304090000000  0.4146050000000  0.4246150000000 1.0
C      1  0.4345430000000  0.4677140000000  0.4725950000000 1.0
C      1  0.5033730000000  0.5237120000000  0.5417630000000 1.0
C      1  0.5416230000000  0.6162240000000  0.5110380000000 1.0
C      1  0.5072670000000  0.5049750000000  0.4710040000000 1.0
C      1  0.4242350000000  0.5059670000000  0.4068320000000 1.0
C      1  0.5824280000000  0.4314300000000  0.4710730000000 1.0
C      1  0.4599080000000  0.5592690000000  0.6089960000000 1.0
C      1  0.5047540000000  0.4456200000000  0.4594580000000 1.0
C      1  0.4831910000000  0.5255520000000  0.4378510000000 1.0
C      1  0.5053620000000  0.4856430000000  0.3846110000000 1.0
C      1  0.3956980000000  0.4688650000000  0.5610880000000 1.0
C      1  0.4193030000000  0.4616030000000  0.4274500000000 1.0
C      1  0.4337060000000  0.5405030000000  0.4399360000000 1.0
C      1  0.5460450000000  0.3891060000000  0.5324030000000 1.0
C      1  0.4451900000000  0.4491850000000  0.4142260000000 1.0
C      1  0.5866720000000  0.4804590000000  0.4491090000000 1.0
C      1  0.5445800000000  0.4592330000000  0.4824530000000 1.0
C      1  0.5882670000000  0.4877890000000  0.4763540000000 1.0
C      1  0.5484010000000  0.4332610000000  0.4111870000000 1.0
C      1  0.4609060000000  0.5572260000000  0.4098310000000 1.0
C      1  0.6149780000000  0.4890330000000  0.5226820000000 1.0
C      1  0.4306810000000  0.4219160000000  0.4508850000000 1.0
C      1  0.5663070000000  0.4936590000000  0.3828440000000 1.0
C      1  0.5652120000000  0.4051680000000  0.4691350000000 1.0
C      1  0.6091070000000  0.5142190000000  0.5098580000000 1.0
C      1  0.4173090000000  0.4816410000000  0.4924690000000 1.0
C      1  0.5324220000000  0.5909580000000  0.5679700000000 1.0
C      1  0.5136840000000  0.3946140000000  0.4944970000000 1.0
C      1  0.5682620000000  0.4826590000000  0.4083730000000 1.0
C      1  0.5484830000000  0.5165780000000  0.4433480000000 1.0
C      1  0.4765270000000  0.4854810000000  0.3897310000000 1.0
C      1  0.5491050000000  0.6163920000000  0.4814680000000 1.0
C      1  0.4888420000000  0.3835380000000  0.4821160000000 1.0
C      1  0.4871560000000  0.4590870000000  0.6081550000000 1.0
C      1  0.4552700000000  0.4290480000000  0.4351130000000 1.0
C      1  0.5737020000000  0.3940480000000  0.5199630000000 1.0
C      1  0.6000930000000  0.5135130000000  0.4826690000000 1.0
C      1  0.4736180000000  0.4511450000000  0.4511620000000 1.0
C      1  0.5302170000000  0.5592240000000  0.5369630000000 1.0
C      1  0.4067800000000  0.4267350000000  0.4999180000000 1.0
C      1  0.4146280000000  0.4756570000000  0.5801330000000 1.0
C      1  0.4639980000000  0.4033490000000  0.5617380000000 1.0
C      1  0.5098210000000  0.4935650000000  0.5501260000000 1.0
C      1  0.4554120000000  0.4932400000000  0.4605170000000 1.0
C      1  0.4288310000000  0.5326150000000  0.5485450000000 1.0
C      1  0.5281200000000  0.5518530000000  0.4658040000000 1.0
C      1  0.3790000000000  0.4753600000000  0.5163030000000 1.0
C      1  0.4596200000000  0.4475360000000  0.5299010000000 1.0
C      1  0.4699100000000  0.4582110000000  0.3992120000000 1.0
C      1  0.5103380000000  0.4625130000000  0.5888510000000 1.0
C      1  0.5194820000000  0.5102550000000  0.3914650000000 1.0
C      1  0.5108360000000  0.4112660000000  0.5803600000000 1.0
C      1  0.4444740000000  0.4389690000000  0.5877110000000 1.0
C      1  0.4572470000000  0.5377030000000  0.4845630000000 1.0
C      1  0.5867850000000  0.5848520000000  0.4944030000000 1.0
C      1  0.4723120000000  0.4938740000000  0.5077240000000 1.0
C      1  0.5169330000000  0.4606050000000  0.3965600000000 1.0
C      1  0.5213110000000  0.5054340000000  0.6128190000000 1.0
C      1  0.4282980000000  0.5820480000000  0.5591440000000 1.0
C      1  0.5130030000000  0.4637080000000  0.4868280000000 1.0
C      1  0.5692000000000  0.4528360000000  0.4153620000000 1.0
C      1  0.5835920000000  0.4638110000000  0.5456910000000 1.0
C      1  0.4847340000000  0.5447350000000  0.4827100000000 1.0
C      1  0.5366570000000  0.4813180000000  0.5405670000000 1.0
C      1  0.4552500000000  0.5245720000000  0.4553940000000 1.0
C      1  0.5007790000000  0.5555710000000  0.5039080000000 1.0
C      1  0.5464790000000  0.4246040000000  0.5366230000000 1.0
C      1  0.5206360000000  0.4956740000000  0.4952000000000 1.0
C      1  0.4608880000000  0.4523530000000  0.4777570000000 1.0
C      1  0.4798320000000  0.4920810000000  0.4788960000000 1.0
C      1  0.4789540000000  0.5701760000000  0.5917340000000 1.0
C      1  0.5744270000000  0.5704970000000  0.5591930000000 1.0
C      1  0.5009930000000  0.4211100000000  0.4215590000000 1.0
C      1  0.5196950000000  0.5715700000000  0.4879030000000 1.0
C      1  0.4101760000000  0.5624920000000  0.4924480000000 1.0
C      1  0.5376290000000  0.5304260000000  0.6104800000000 1.0
C      1  0.5764950000000  0.5618960000000  0.4351660000000 1.0
C      1  0.5498650000000  0.5055820000000  0.5270040000000 1.0
C      1  0.5225480000000  0.6155680000000  0.4670770000000 1.0
C      1  0.5875840000000  0.6024040000000  0.5162840000000 1.0
C      1  0.4427400000000  0.5107930000000  0.5993740000000 1.0
C      1  0.4864430000000  0.5258590000000  0.5890730000000 1.0
C      1  0.5019170000000  0.5333960000000  0.4627290000000 1.0
C      1  0.4221370000000  0.5609020000000  0.5409740000000 1.0
C      1  0.4528930000000  0.5930930000000  0.4879340000000 1.0
C      1  0.5582540000000  0.4817490000000  0.5860630000000 1.0
C      1  0.6047810000000  0.5400800000000  0.5227780000000 1.0
C      1  0.3896820000000  0.4724800000000  0.4884780000000 1.0
END
