TITL C-951340-9809-541 1.05341184427286e-06 125000 -1181.22721109661 0 0 187 (C1) n - 1
REM
REM in /home/bkarasulu/work/CARBON/AIRSS/Generating-Clusters/EDIP-Nigel-Params/with-SteepDescent/Only-C1/SD-CG/HFTN-CG
REM
REM
REM
REM
REM
REM ./C.cell (11c1c37f851c82e70ff6c80c92926a4b)
REM
REM compiler GCC version 9.2.1 20190827 (Red Hat 9.2.1-1)
REM options -cpp -mtune=generic -march=x86-64 -g -O0 -fpre-include=/usr/include/finclude/math-vector-fortran.h
REM seed -450844335 -717601674 638786138 1157272159 650490760 916592298 1563832841 -1281036280 898947612 -325539138 1916290060 333390471 161301513 821306448 -1683635104 1497470634 201785364 -2047564946 -1870429154 118547770 664921348 -1662571320 119091049 -1146862906 -555238364 400855891 1242134833 1752847750 -1706729703 -1719418793 397264797 1183203204 1384848507
REM
CELL 1.54180   50.00000   50.00000   50.00000   90.00000   90.00000   90.00000
LATT -1
SFAC C  
C      1  0.4953090000000  0.3890890000000  0.4608150000000 1.0
C      1  0.4462140000000  0.6026340000000  0.4747220000000 1.0
C      1  0.4220250000000  0.5243540000000  0.4888370000000 1.0
C      1  0.5201520000000  0.5738500000000  0.4891100000000 1.0
C      1  0.5540180000000  0.5125100000000  0.5746280000000 1.0
C      1  0.5750510000000  0.4666850000000  0.4102500000000 1.0
C      1  0.5001130000000  0.5629740000000  0.4415930000000 1.0
C      1  0.5761190000000  0.5571190000000  0.5678990000000 1.0
C      1  0.4441210000000  0.5670010000000  0.5674260000000 1.0
C      1  0.5426240000000  0.4650440000000  0.6083590000000 1.0
C      1  0.4762450000000  0.5239500000000  0.4795760000000 1.0
C      1  0.4977530000000  0.4906500000000  0.6108650000000 1.0
C      1  0.4791760000000  0.5530370000000  0.3911710000000 1.0
C      1  0.5257240000000  0.4681800000000  0.5675740000000 1.0
C      1  0.4885550000000  0.5828720000000  0.5357030000000 1.0
C      1  0.5312050000000  0.5222630000000  0.5595930000000 1.0
C      1  0.5690770000000  0.5660250000000  0.4937660000000 1.0
C      1  0.5683860000000  0.4678510000000  0.5930250000000 1.0
C      1  0.6022250000000  0.5425560000000  0.5229910000000 1.0
C      1  0.5296660000000  0.4395240000000  0.5971410000000 1.0
C      1  0.4694350000000  0.4429270000000  0.4161890000000 1.0
C      1  0.4952190000000  0.5391350000000  0.6073600000000 1.0
C      1  0.5245660000000  0.5471470000000  0.4082440000000 1.0
C      1  0.4467380000000  0.4510310000000  0.5650860000000 1.0
C      1  0.4230420000000  0.4438310000000  0.5490460000000 1.0
C      1  0.4383430000000  0.4700000000000  0.5861290000000 1.0
C      1  0.5348180000000  0.6007460000000  0.5205450000000 1.0
C      1  0.4299910000000  0.5642960000000  0.4530230000000 1.0
C      1  0.4718250000000  0.4929430000000  0.4464510000000 1.0
C      1  0.4651980000000  0.5499400000000  0.4825100000000 1.0
C      1  0.5471080000000  0.5489480000000  0.5284180000000 1.0
C      1  0.5471960000000  0.4092060000000  0.5575830000000 1.0
C      1  0.5203470000000  0.3914050000000  0.4767230000000 1.0
C      1  0.5363090000000  0.5041220000000  0.5145350000000 1.0
C      1  0.5335230000000  0.4720590000000  0.4777780000000 1.0
C      1  0.4784650000000  0.5356660000000  0.5243300000000 1.0
C      1  0.4639810000000  0.5421770000000  0.4121400000000 1.0
C      1  0.4292420000000  0.4293690000000  0.4575360000000 1.0
C      1  0.5140270000000  0.4608430000000  0.4371220000000 1.0
C      1  0.4990720000000  0.5550210000000  0.5320560000000 1.0
C      1  0.5862940000000  0.5676980000000  0.5189420000000 1.0
C      1  0.5379510000000  0.4967640000000  0.3995270000000 1.0
C      1  0.4862190000000  0.5175140000000  0.4535520000000 1.0
C      1  0.4559100000000  0.4157030000000  0.5235150000000 1.0
C      1  0.4195020000000  0.5369950000000  0.4581650000000 1.0
C      1  0.4348220000000  0.5789130000000  0.5412080000000 1.0
C      1  0.5304130000000  0.5310980000000  0.4711130000000 1.0
C      1  0.4925610000000  0.5869490000000  0.5647120000000 1.0
C      1  0.4576020000000  0.4693760000000  0.6059980000000 1.0
C      1  0.5186040000000  0.4074860000000  0.5033680000000 1.0
C      1  0.3993960000000  0.4741790000000  0.4581600000000 1.0
C      1  0.6041580000000  0.4650960000000  0.4925330000000 1.0
C      1  0.5341030000000  0.5673420000000  0.5920310000000 1.0
C      1  0.4907110000000  0.5182280000000  0.5031620000000 1.0
C      1  0.5628570000000  0.4634200000000  0.5153970000000 1.0
C      1  0.4900600000000  0.4658090000000  0.4166420000000 1.0
C      1  0.5132890000000  0.4892000000000  0.5305870000000 1.0
C      1  0.5819700000000  0.5226030000000  0.4330350000000 1.0
C      1  0.5050590000000  0.6022640000000  0.5192870000000 1.0
C      1  0.4887070000000  0.4915270000000  0.5140810000000 1.0
C      1  0.4833660000000  0.5113550000000  0.5678440000000 1.0
C      1  0.4763080000000  0.5438000000000  0.4391780000000 1.0
C      1  0.4003660000000  0.5039110000000  0.4334350000000 1.0
C      1  0.5194170000000  0.5252660000000  0.4992980000000 1.0
C      1  0.5228470000000  0.5825970000000  0.5686910000000 1.0
C      1  0.5619140000000  0.5656120000000  0.5903170000000 1.0
C      1  0.4680770000000  0.4643720000000  0.5467160000000 1.0
C      1  0.4900970000000  0.6049050000000  0.4940860000000 1.0
C      1  0.5001630000000  0.4418500000000  0.4584730000000 1.0
C      1  0.4566170000000  0.3849950000000  0.4631500000000 1.0
C      1  0.5418380000000  0.5615660000000  0.4262980000000 1.0
C      1  0.4424330000000  0.5219530000000  0.4098400000000 1.0
C      1  0.4851320000000  0.4648700000000  0.6070550000000 1.0
C      1  0.5557870000000  0.4813370000000  0.5684020000000 1.0
C      1  0.5822900000000  0.5576360000000  0.4595290000000 1.0
C      1  0.5516250000000  0.4849710000000  0.4974280000000 1.0
C      1  0.6038050000000  0.4923680000000  0.5060630000000 1.0
C      1  0.4117940000000  0.4488830000000  0.4723310000000 1.0
C      1  0.4614350000000  0.6017910000000  0.4988430000000 1.0
C      1  0.5945880000000  0.4933120000000  0.5344250000000 1.0
C      1  0.5853220000000  0.4446230000000  0.5048290000000 1.0
C      1  0.5104990000000  0.5027940000000  0.5579660000000 1.0
C      1  0.3897800000000  0.5431720000000  0.5214450000000 1.0
C      1  0.5626920000000  0.5463060000000  0.4396520000000 1.0
C      1  0.5001410000000  0.4679590000000  0.3795710000000 1.0
C      1  0.4708260000000  0.4700320000000  0.3769290000000 1.0
C      1  0.5174340000000  0.5127900000000  0.4494290000000 1.0
C      1  0.4202110000000  0.6109880000000  0.4709100000000 1.0
C      1  0.5049710000000  0.4019200000000  0.5311930000000 1.0
C      1  0.4516520000000  0.4457260000000  0.4430330000000 1.0
C      1  0.5220020000000  0.5183170000000  0.4116470000000 1.0
C      1  0.6039100000000  0.5371890000000  0.4524200000000 1.0
C      1  0.3857160000000  0.5263050000000  0.4449060000000 1.0
C      1  0.5735680000000  0.5046610000000  0.4861360000000 1.0
C      1  0.5483730000000  0.4081010000000  0.5087060000000 1.0
C      1  0.4591810000000  0.5817010000000  0.5220840000000 1.0
C      1  0.4793810000000  0.5617370000000  0.6040360000000 1.0
C      1  0.5412640000000  0.4063440000000  0.4631800000000 1.0
C      1  0.4836440000000  0.4240540000000  0.5732110000000 1.0
C      1  0.4355980000000  0.4966230000000  0.4813720000000 1.0
C      1  0.5816780000000  0.4269580000000  0.4795340000000 1.0
C      1  0.4323390000000  0.5192990000000  0.5905640000000 1.0
C      1  0.4039450000000  0.4660270000000  0.5442950000000 1.0
C      1  0.5847240000000  0.5209680000000  0.5376380000000 1.0
C      1  0.4629720000000  0.4865850000000  0.5278760000000 1.0
C      1  0.3810750000000  0.5215860000000  0.4727890000000 1.0
C      1  0.5173540000000  0.4606480000000  0.5394760000000 1.0
C      1  0.5317790000000  0.4466680000000  0.4162510000000 1.0
C      1  0.3957640000000  0.4940370000000  0.5079290000000 1.0
C      1  0.5648960000000  0.4944840000000  0.4120960000000 1.0
C      1  0.4442640000000  0.4745570000000  0.5007580000000 1.0
C      1  0.5267700000000  0.4689870000000  0.3933710000000 1.0
C      1  0.5407230000000  0.5164920000000  0.6019980000000 1.0
C      1  0.3910240000000  0.4952800000000  0.4792830000000 1.0
C      1  0.5595760000000  0.4858250000000  0.4412400000000 1.0
C      1  0.5298560000000  0.6003730000000  0.4610670000000 1.0
C      1  0.5653010000000  0.5683910000000  0.5416740000000 1.0
C      1  0.4526220000000  0.4522830000000  0.3927670000000 1.0
C      1  0.4307120000000  0.5399640000000  0.5689580000000 1.0
C      1  0.5002970000000  0.4460800000000  0.5879760000000 1.0
C      1  0.5428310000000  0.4445670000000  0.4700850000000 1.0
C      1  0.4717480000000  0.5719560000000  0.5793010000000 1.0
C      1  0.4422750000000  0.4936950000000  0.4514820000000 1.0
C      1  0.4769500000000  0.3886440000000  0.4850980000000 1.0
C      1  0.5577230000000  0.5229750000000  0.5247000000000 1.0
C      1  0.4659630000000  0.4574710000000  0.4891120000000 1.0
C      1  0.4882910000000  0.4482990000000  0.5048970000000 1.0
C      1  0.3982200000000  0.5138270000000  0.5310330000000 1.0
C      1  0.4540980000000  0.4951080000000  0.4002320000000 1.0
C      1  0.6300670000000  0.5062870000000  0.5053610000000 1.0
C      1  0.6211210000000  0.5337910000000  0.5008370000000 1.0
C      1  0.5715620000000  0.4454490000000  0.4560770000000 1.0
C      1  0.4318400000000  0.4685710000000  0.4372650000000 1.0
C      1  0.4060400000000  0.4933280000000  0.5554980000000 1.0
C      1  0.4834900000000  0.4200430000000  0.5420080000000 1.0
C      1  0.5333760000000  0.5900050000000  0.4317440000000 1.0
C      1  0.4821050000000  0.5141100000000  0.5988080000000 1.0
C      1  0.4340480000000  0.5236520000000  0.5434050000000 1.0
C      1  0.4280360000000  0.5154170000000  0.4366270000000 1.0
C      1  0.4328340000000  0.5393960000000  0.5157450000000 1.0
C      1  0.5616250000000  0.4067430000000  0.4833210000000 1.0
C      1  0.4867180000000  0.4178260000000  0.4152770000000 1.0
C      1  0.5823180000000  0.4943540000000  0.4593020000000 1.0
C      1  0.4546890000000  0.5167810000000  0.6072380000000 1.0
C      1  0.5071620000000  0.5904090000000  0.4149910000000 1.0
C      1  0.5038380000000  0.5649470000000  0.3981170000000 1.0
C      1  0.5622880000000  0.4454160000000  0.4247730000000 1.0
C      1  0.4900100000000  0.4484360000000  0.5342560000000 1.0
C      1  0.5634380000000  0.4116500000000  0.5334760000000 1.0
C      1  0.5438250000000  0.5895930000000  0.5466280000000 1.0
C      1  0.4771320000000  0.4912630000000  0.4187020000000 1.0
C      1  0.4969440000000  0.4153530000000  0.4440600000000 1.0
C      1  0.4265710000000  0.4946950000000  0.5764820000000 1.0
C      1  0.5927170000000  0.4673270000000  0.4644170000000 1.0
C      1  0.5228550000000  0.3972150000000  0.5517840000000 1.0
C      1  0.5162510000000  0.4210590000000  0.4109310000000 1.0
C      1  0.4090130000000  0.5658020000000  0.5301430000000 1.0
C      1  0.4299720000000  0.4311740000000  0.5235070000000 1.0
C      1  0.3876510000000  0.5420790000000  0.4921410000000 1.0
C      1  0.4338270000000  0.4722910000000  0.4068980000000 1.0
C      1  0.4583870000000  0.5530870000000  0.5104880000000 1.0
C      1  0.4385610000000  0.4072150000000  0.4747620000000 1.0
C      1  0.4639460000000  0.5143280000000  0.5435620000000 1.0
C      1  0.5008190000000  0.6061990000000  0.4665290000000 1.0
C      1  0.3989760000000  0.4670520000000  0.5160440000000 1.0
C      1  0.6124830000000  0.5227610000000  0.4749610000000 1.0
C      1  0.5490460000000  0.4315100000000  0.5756960000000 1.0
C      1  0.4136270000000  0.5849750000000  0.4642800000000 1.0
C      1  0.5226140000000  0.5407900000000  0.5986330000000 1.0
C      1  0.4623560000000  0.4136610000000  0.4948900000000 1.0
C      1  0.5902920000000  0.4485700000000  0.5537520000000 1.0
C      1  0.4208950000000  0.4531750000000  0.5021370000000 1.0
C      1  0.5265310000000  0.4902680000000  0.6059360000000 1.0
C      1  0.4566360000000  0.4271980000000  0.5783070000000 1.0
C      1  0.5469700000000  0.5892210000000  0.4931490000000 1.0
C      1  0.5300230000000  0.4842160000000  0.4511100000000 1.0
C      1  0.5200110000000  0.5575910000000  0.4645930000000 1.0
C      1  0.4597890000000  0.5644140000000  0.4577110000000 1.0
C      1  0.4731910000000  0.4570610000000  0.4612100000000 1.0
C      1  0.5758870000000  0.4422120000000  0.5796660000000 1.0
C      1  0.5888250000000  0.4279520000000  0.5317390000000 1.0
C      1  0.5749310000000  0.4724830000000  0.5423340000000 1.0
C      1  0.5108330000000  0.4361890000000  0.4902810000000 1.0
C      1  0.5794790000000  0.5278890000000  0.5665230000000 1.0
C      1  0.5608570000000  0.5339590000000  0.4817890000000 1.0
C      1  0.4848700000000  0.5913400000000  0.4464370000000 1.0
C      1  0.5215730000000  0.5523490000000  0.5132580000000 1.0
END
