TITL C-950524-1808-757 -2.10783418108492e-06 125000 -984.071075636324 0 0 158 (C1) n - 1
REM
REM in /home/bkarasulu/work/CARBON/AIRSS/Generating-Clusters/EDIP-Nigel-Params/with-SteepDescent/Only-C1/SD-CG/HFTN-CG
REM
REM
REM
REM
REM
REM ./C.cell (11c1c37f851c82e70ff6c80c92926a4b)
REM
REM compiler GCC version 9.2.1 20190827 (Red Hat 9.2.1-1)
REM options -cpp -mtune=generic -march=x86-64 -g -O0 -fpre-include=/usr/include/finclude/math-vector-fortran.h
REM seed -1251711267 1710769489 1990814952 -679844042 -131324984 -671281304 937081554 286039442 -1159726518 -1587437834 917512365 630799065 -172924376 1518171871 -1710311288 -982938187 -411329766 -1243791292 -1923514915 -1658378662 -173835171 -33388456 1454652792 -484316538 -3750235 -351418065 184920234 1356927539 -268051409 1390848794 1186544061 609755598 699461454
REM
CELL 1.54180   50.00000   50.00000   50.00000   90.00000   90.00000   90.00000
LATT -1
SFAC C  
C      1  0.5040690000000  0.5572650000000  0.5794040000000 1.0
C      1  0.4937280000000  0.5957870000000  0.4749530000000 1.0
C      1  0.3993340000000  0.5256140000000  0.4963110000000 1.0
C      1  0.4256040000000  0.5039100000000  0.4393300000000 1.0
C      1  0.5434930000000  0.5081160000000  0.5896010000000 1.0
C      1  0.4662110000000  0.4153000000000  0.5277940000000 1.0
C      1  0.5071270000000  0.4410160000000  0.5337180000000 1.0
C      1  0.5367890000000  0.4797030000000  0.5823480000000 1.0
C      1  0.4050470000000  0.4994380000000  0.5488290000000 1.0
C      1  0.4859980000000  0.4003100000000  0.5429040000000 1.0
C      1  0.5772980000000  0.5414350000000  0.5131040000000 1.0
C      1  0.5124650000000  0.3970960000000  0.5334810000000 1.0
C      1  0.4627290000000  0.4031520000000  0.4981960000000 1.0
C      1  0.4014040000000  0.4762210000000  0.4771840000000 1.0
C      1  0.4618620000000  0.5676770000000  0.5466800000000 1.0
C      1  0.4331000000000  0.5666440000000  0.4459100000000 1.0
C      1  0.4420460000000  0.4684360000000  0.5131980000000 1.0
C      1  0.4290540000000  0.5017070000000  0.5983670000000 1.0
C      1  0.4544820000000  0.4564150000000  0.4899230000000 1.0
C      1  0.4368030000000  0.4488380000000  0.4213390000000 1.0
C      1  0.4147940000000  0.5471470000000  0.5406970000000 1.0
C      1  0.4571430000000  0.5264110000000  0.4663610000000 1.0
C      1  0.5919810000000  0.5584160000000  0.4931620000000 1.0
C      1  0.5827260000000  0.5088360000000  0.5479760000000 1.0
C      1  0.5425710000000  0.5593800000000  0.4396030000000 1.0
C      1  0.5958080000000  0.5448110000000  0.4694100000000 1.0
C      1  0.4661810000000  0.4456820000000  0.5908370000000 1.0
C      1  0.5056600000000  0.5110460000000  0.5573780000000 1.0
C      1  0.5814600000000  0.5274140000000  0.4532770000000 1.0
C      1  0.5052690000000  0.4948980000000  0.6146290000000 1.0
C      1  0.5320640000000  0.5117710000000  0.5363690000000 1.0
C      1  0.4578990000000  0.5148610000000  0.4958480000000 1.0
C      1  0.5203700000000  0.5913500000000  0.4603050000000 1.0
C      1  0.4497760000000  0.4406930000000  0.5670630000000 1.0
C      1  0.4764110000000  0.5682980000000  0.4368330000000 1.0
C      1  0.4914190000000  0.4189070000000  0.4509200000000 1.0
C      1  0.5423280000000  0.4146900000000  0.5361510000000 1.0
C      1  0.5261380000000  0.5799450000000  0.4242050000000 1.0
C      1  0.5138040000000  0.4712430000000  0.5996340000000 1.0
C      1  0.4368200000000  0.4804060000000  0.6123080000000 1.0
C      1  0.5507570000000  0.5338960000000  0.5728500000000 1.0
C      1  0.4207320000000  0.5771170000000  0.5087010000000 1.0
C      1  0.5116950000000  0.3890780000000  0.5051630000000 1.0
C      1  0.5188970000000  0.6051710000000  0.5546370000000 1.0
C      1  0.4511420000000  0.5592990000000  0.4225920000000 1.0
C      1  0.4787030000000  0.5871440000000  0.5295530000000 1.0
C      1  0.4197210000000  0.5225080000000  0.5562000000000 1.0
C      1  0.5232810000000  0.5368050000000  0.4030610000000 1.0
C      1  0.4188850000000  0.4317770000000  0.5332490000000 1.0
C      1  0.5575060000000  0.5765050000000  0.5604410000000 1.0
C      1  0.5255220000000  0.4378270000000  0.4303300000000 1.0
C      1  0.4381240000000  0.4601210000000  0.4487650000000 1.0
C      1  0.5591860000000  0.4813660000000  0.5120190000000 1.0
C      1  0.5393010000000  0.5372020000000  0.5450740000000 1.0
C      1  0.4145550000000  0.4555440000000  0.5173070000000 1.0
C      1  0.5491260000000  0.5994560000000  0.5189890000000 1.0
C      1  0.4351420000000  0.4418030000000  0.4739950000000 1.0
C      1  0.5421050000000  0.6054620000000  0.4731800000000 1.0
C      1  0.5181270000000  0.4861450000000  0.4329470000000 1.0
C      1  0.6116660000000  0.4444320000000  0.4931260000000 1.0
C      1  0.4628820000000  0.5407700000000  0.5349250000000 1.0
C      1  0.5654820000000  0.4888210000000  0.4694030000000 1.0
C      1  0.4506380000000  0.5409200000000  0.5085500000000 1.0
C      1  0.4940360000000  0.4531540000000  0.5875640000000 1.0
C      1  0.4313100000000  0.5731800000000  0.5435560000000 1.0
C      1  0.4974700000000  0.4232840000000  0.4821780000000 1.0
C      1  0.5217220000000  0.4318380000000  0.5088280000000 1.0
C      1  0.4650960000000  0.4757570000000  0.4517540000000 1.0
C      1  0.4441270000000  0.5903550000000  0.4626100000000 1.0
C      1  0.3983410000000  0.4833970000000  0.5265800000000 1.0
C      1  0.4083750000000  0.4489050000000  0.4881020000000 1.0
C      1  0.4441920000000  0.5850670000000  0.4921320000000 1.0
C      1  0.5059340000000  0.4840210000000  0.5114900000000 1.0
C      1  0.5640610000000  0.4696260000000  0.4462330000000 1.0
C      1  0.5881500000000  0.4893030000000  0.5077410000000 1.0
C      1  0.5402540000000  0.5314870000000  0.4273460000000 1.0
C      1  0.5548550000000  0.4922330000000  0.5397260000000 1.0
C      1  0.6038760000000  0.4588410000000  0.4701970000000 1.0
C      1  0.4854490000000  0.5086270000000  0.5106900000000 1.0
C      1  0.5684580000000  0.4282000000000  0.4977100000000 1.0
C      1  0.5557370000000  0.4048810000000  0.5107480000000 1.0
C      1  0.5470950000000  0.4539840000000  0.5000220000000 1.0
C      1  0.5585790000000  0.4418670000000  0.5457300000000 1.0
C      1  0.5945620000000  0.4309100000000  0.5107260000000 1.0
C      1  0.5267680000000  0.5622600000000  0.4641800000000 1.0
C      1  0.4326330000000  0.5027120000000  0.4090920000000 1.0
C      1  0.5042660000000  0.5273180000000  0.5847340000000 1.0
C      1  0.5125010000000  0.5568750000000  0.5080680000000 1.0
C      1  0.5779390000000  0.5581850000000  0.5456730000000 1.0
C      1  0.4887610000000  0.5770340000000  0.5021560000000 1.0
C      1  0.5576640000000  0.5024090000000  0.4097390000000 1.0
C      1  0.4787930000000  0.5149420000000  0.5388430000000 1.0
C      1  0.5560580000000  0.5175440000000  0.4654660000000 1.0
C      1  0.5922700000000  0.5163240000000  0.5206710000000 1.0
C      1  0.4368840000000  0.4962500000000  0.5050840000000 1.0
C      1  0.5264900000000  0.5146080000000  0.6120020000000 1.0
C      1  0.5239150000000  0.5602920000000  0.5353770000000 1.0
C      1  0.5822950000000  0.4461030000000  0.4536630000000 1.0
C      1  0.4315010000000  0.5430250000000  0.4631120000000 1.0
C      1  0.5145750000000  0.5122450000000  0.3922830000000 1.0
C      1  0.5341170000000  0.4628270000000  0.4461110000000 1.0
C      1  0.4862200000000  0.3876640000000  0.4910380000000 1.0
C      1  0.4332330000000  0.5239000000000  0.5822530000000 1.0
C      1  0.4690590000000  0.4869870000000  0.5502350000000 1.0
C      1  0.4597380000000  0.4624810000000  0.5371460000000 1.0
C      1  0.4966720000000  0.5303060000000  0.4374860000000 1.0
C      1  0.5362500000000  0.5575440000000  0.4900070000000 1.0
C      1  0.5956080000000  0.4873260000000  0.4753540000000 1.0
C      1  0.5447330000000  0.4074140000000  0.4642340000000 1.0
C      1  0.4526580000000  0.4590450000000  0.6109380000000 1.0
C      1  0.4606100000000  0.5351940000000  0.5853600000000 1.0
C      1  0.4456860000000  0.4735500000000  0.4034470000000 1.0
C      1  0.5605940000000  0.6018830000000  0.4939670000000 1.0
C      1  0.4966100000000  0.4805600000000  0.5606160000000 1.0
C      1  0.4193880000000  0.5460710000000  0.5105170000000 1.0
C      1  0.5016710000000  0.4687990000000  0.4871190000000 1.0
C      1  0.5302150000000  0.4931300000000  0.4062180000000 1.0
C      1  0.5221800000000  0.5139460000000  0.4468500000000 1.0
C      1  0.3905000000000  0.5276340000000  0.4696970000000 1.0
C      1  0.5993800000000  0.4708770000000  0.5271840000000 1.0
C      1  0.5817800000000  0.5841870000000  0.4901580000000 1.0
C      1  0.4745340000000  0.5137350000000  0.4247680000000 1.0
C      1  0.5300200000000  0.5141210000000  0.5064460000000 1.0
C      1  0.5141790000000  0.4683560000000  0.5393710000000 1.0
C      1  0.4946710000000  0.6046850000000  0.5434150000000 1.0
C      1  0.4738040000000  0.5595460000000  0.5739470000000 1.0
C      1  0.5426960000000  0.4685180000000  0.5539470000000 1.0
C      1  0.5513140000000  0.5321590000000  0.4936510000000 1.0
C      1  0.4809900000000  0.5461150000000  0.4602850000000 1.0
C      1  0.4642420000000  0.5627770000000  0.4911970000000 1.0
C      1  0.4108050000000  0.5282130000000  0.4504250000000 1.0
C      1  0.5368940000000  0.3948170000000  0.4906360000000 1.0
C      1  0.5875130000000  0.4458790000000  0.5354310000000 1.0
C      1  0.4742710000000  0.4746320000000  0.4047590000000 1.0
C      1  0.4534590000000  0.5261810000000  0.4080780000000 1.0
C      1  0.5369110000000  0.5867710000000  0.5415920000000 1.0
C      1  0.4965910000000  0.4412060000000  0.4304450000000 1.0
C      1  0.4726690000000  0.5937260000000  0.4531860000000 1.0
C      1  0.5767820000000  0.4876970000000  0.4255530000000 1.0
C      1  0.5065960000000  0.5597840000000  0.4139970000000 1.0
C      1  0.4151910000000  0.4786390000000  0.4507620000000 1.0
C      1  0.4423370000000  0.4227260000000  0.5453680000000 1.0
C      1  0.4796400000000  0.5191990000000  0.6001970000000 1.0
C      1  0.4821470000000  0.4475100000000  0.4939840000000 1.0
C      1  0.4507930000000  0.4244350000000  0.4243920000000 1.0
C      1  0.5273500000000  0.4600340000000  0.4760030000000 1.0
C      1  0.5794040000000  0.5340910000000  0.5636430000000 1.0
C      1  0.5411340000000  0.5613970000000  0.5819830000000 1.0
C      1  0.4797120000000  0.4421210000000  0.5240580000000 1.0
C      1  0.5048660000000  0.5284330000000  0.5018880000000 1.0
C      1  0.5951510000000  0.5050050000000  0.4412350000000 1.0
C      1  0.4872410000000  0.4699910000000  0.4303890000000 1.0
C      1  0.5277860000000  0.4109710000000  0.4413860000000 1.0
C      1  0.4075560000000  0.4970840000000  0.5002540000000 1.0
C      1  0.4622820000000  0.4111870000000  0.4468550000000 1.0
C      1  0.4476530000000  0.4136460000000  0.4730020000000 1.0
C      1  0.4563900000000  0.5040310000000  0.4466440000000 1.0
C      1  0.5700980000000  0.4227560000000  0.4684860000000 1.0
END
