TITL C-950530-3293-334 -1.08972111849258e-06 125000 -419.645601394007 0 0 68 (C1) n - 1
REM
REM in /home/bkarasulu/work/CARBON/AIRSS/Generating-Clusters/EDIP-Nigel-Params/with-SteepDescent/Only-C1/SD-CG/HFTN-CG
REM
REM
REM
REM
REM
REM ./C.cell (11c1c37f851c82e70ff6c80c92926a4b)
REM
REM compiler GCC version 9.2.1 20190827 (Red Hat 9.2.1-1)
REM options -cpp -mtune=generic -march=x86-64 -g -O0 -fpre-include=/usr/include/finclude/math-vector-fortran.h
REM seed -533682115 637134643 -2139006925 -1575063068 -1222485492 -83301262 -1597459863 -1692110484 880311996 855376676 -93939436 -1695471514 -80041891 -297681435 426315014 -694536546 -1558617208 -2131436425 1411278636 -252408643 1259794216 446362272 -2124919421 658408425 -465657845 -1400184681 1264107540 -648305790 10849159 -1401815476 -1819461030 1712087786 1334864938
REM
CELL 1.54180   50.00000   50.00000   50.00000   90.00000   90.00000   90.00000
LATT -1
SFAC C  
C      1  0.5061360000000  0.5258780000000  0.5186450000000 1.0
C      1  0.4330670000000  0.4866910000000  0.5411640000000 1.0
C      1  0.5658730000000  0.4728320000000  0.4922930000000 1.0
C      1  0.4315910000000  0.4781380000000  0.4553250000000 1.0
C      1  0.5573850000000  0.4612220000000  0.4664040000000 1.0
C      1  0.4563970000000  0.4764260000000  0.5566610000000 1.0
C      1  0.4996090000000  0.4516710000000  0.4401490000000 1.0
C      1  0.4246770000000  0.5159370000000  0.5441880000000 1.0
C      1  0.5438790000000  0.5504350000000  0.5028260000000 1.0
C      1  0.4902570000000  0.4260160000000  0.5113480000000 1.0
C      1  0.5072390000000  0.4730810000000  0.5064450000000 1.0
C      1  0.5488540000000  0.5311490000000  0.5568090000000 1.0
C      1  0.5454260000000  0.4289290000000  0.4977000000000 1.0
C      1  0.4725280000000  0.5189380000000  0.4701120000000 1.0
C      1  0.5596680000000  0.5556570000000  0.5468710000000 1.0
C      1  0.4861500000000  0.4346930000000  0.4848310000000 1.0
C      1  0.5745720000000  0.4618940000000  0.5530190000000 1.0
C      1  0.4488650000000  0.5340750000000  0.5494120000000 1.0
C      1  0.5525990000000  0.5082260000000  0.4457890000000 1.0
C      1  0.4585820000000  0.5606350000000  0.4672980000000 1.0
C      1  0.5101400000000  0.4994520000000  0.4344010000000 1.0
C      1  0.5182970000000  0.4437040000000  0.5436820000000 1.0
C      1  0.5083870000000  0.4399870000000  0.4652940000000 1.0
C      1  0.4432630000000  0.5188680000000  0.4816600000000 1.0
C      1  0.4526070000000  0.5474110000000  0.5232550000000 1.0
C      1  0.5258830000000  0.5237620000000  0.4391200000000 1.0
C      1  0.5019910000000  0.5563550000000  0.5245350000000 1.0
C      1  0.5067580000000  0.5703220000000  0.4797590000000 1.0
C      1  0.5022610000000  0.5191790000000  0.4848400000000 1.0
C      1  0.5383750000000  0.4380560000000  0.4719250000000 1.0
C      1  0.4809820000000  0.4974890000000  0.4342900000000 1.0
C      1  0.5700980000000  0.5106100000000  0.5590630000000 1.0
C      1  0.4577310000000  0.4737270000000  0.5015360000000 1.0
C      1  0.5191160000000  0.5391570000000  0.4657000000000 1.0
C      1  0.5717460000000  0.5179770000000  0.5215940000000 1.0
C      1  0.5665380000000  0.5477170000000  0.5202670000000 1.0
C      1  0.5742740000000  0.4454550000000  0.5318670000000 1.0
C      1  0.4523070000000  0.4593180000000  0.4542440000000 1.0
C      1  0.5215260000000  0.5690140000000  0.5057820000000 1.0
C      1  0.5592800000000  0.4841630000000  0.5591490000000 1.0
C      1  0.4925060000000  0.4352740000000  0.5376790000000 1.0
C      1  0.4145920000000  0.4991240000000  0.4987700000000 1.0
C      1  0.4226000000000  0.5009540000000  0.4682100000000 1.0
C      1  0.4647500000000  0.5217180000000  0.4323590000000 1.0
C      1  0.5132970000000  0.4911680000000  0.4831810000000 1.0
C      1  0.5677650000000  0.5023220000000  0.4957010000000 1.0
C      1  0.4308680000000  0.4783990000000  0.5129540000000 1.0
C      1  0.5355270000000  0.4873400000000  0.5431650000000 1.0
C      1  0.5553330000000  0.4786730000000  0.4427190000000 1.0
C      1  0.4783550000000  0.5708890000000  0.4871630000000 1.0
C      1  0.4276560000000  0.5497400000000  0.5082920000000 1.0
C      1  0.4729860000000  0.5174780000000  0.5569530000000 1.0
C      1  0.4715830000000  0.4528800000000  0.5475890000000 1.0
C      1  0.4336720000000  0.5471200000000  0.4787470000000 1.0
C      1  0.4713460000000  0.5469370000000  0.4442330000000 1.0
C      1  0.4609160000000  0.4510010000000  0.4818780000000 1.0
C      1  0.4123150000000  0.5247810000000  0.5176370000000 1.0
C      1  0.5197140000000  0.4801190000000  0.4550180000000 1.0
C      1  0.5467720000000  0.5423850000000  0.4760910000000 1.0
C      1  0.5544450000000  0.4527150000000  0.5122270000000 1.0
C      1  0.5628710000000  0.5187050000000  0.4715770000000 1.0
C      1  0.5343700000000  0.5155640000000  0.5336270000000 1.0
C      1  0.4810350000000  0.4793240000000  0.5209340000000 1.0
C      1  0.4749080000000  0.5647610000000  0.5159460000000 1.0
C      1  0.4750730000000  0.4678160000000  0.4370360000000 1.0
C      1  0.4839540000000  0.5089310000000  0.5303260000000 1.0
C      1  0.5289340000000  0.4641370000000  0.5262670000000 1.0
C      1  0.4669440000000  0.4954950000000  0.5744670000000 1.0
END
