TITL C-951334-9093-530 -1.22191049143179e-06 125000 -759.847711928294 0 0 122 (C1) n - 1
REM
REM in /home/bkarasulu/work/CARBON/AIRSS/Generating-Clusters/EDIP-Nigel-Params/with-SteepDescent/Only-C1/SD-CG/HFTN-CG
REM
REM
REM
REM
REM
REM ./C.cell (11c1c37f851c82e70ff6c80c92926a4b)
REM
REM compiler GCC version 9.2.1 20190827 (Red Hat 9.2.1-1)
REM options -cpp -mtune=generic -march=x86-64 -g -O0 -fpre-include=/usr/include/finclude/math-vector-fortran.h
REM seed -1637686896 -1881376239 1718603087 1304986309 -458500618 -981550197 206725056 -274035882 154804561 1886974784 -1732437511 1358927355 -938487824 -1598667284 1714761414 264985375 -1276340453 -1610140674 -1473753526 768528383 -1500487775 -959199593 -139702017 909999699 1011428714 899010817 -1518462714 -1669233984 -1665912071 491962564 1388527537 1010946672 -1402189709
REM
CELL 1.54180   50.00000   50.00000   50.00000   90.00000   90.00000   90.00000
LATT -1
SFAC C  
C      1  0.5637480000000  0.5092280000000  0.5820200000000 1.0
C      1  0.4703970000000  0.5243040000000  0.4333820000000 1.0
C      1  0.4877970000000  0.5260700000000  0.5652420000000 1.0
C      1  0.5169620000000  0.4625950000000  0.5782700000000 1.0
C      1  0.4721590000000  0.5005860000000  0.5701950000000 1.0
C      1  0.4339740000000  0.4521800000000  0.4602020000000 1.0
C      1  0.5583780000000  0.5876150000000  0.4815910000000 1.0
C      1  0.5879400000000  0.5043910000000  0.4744250000000 1.0
C      1  0.4457950000000  0.5642310000000  0.4602950000000 1.0
C      1  0.5650590000000  0.5528090000000  0.5424580000000 1.0
C      1  0.4501120000000  0.5686690000000  0.5298020000000 1.0
C      1  0.5472660000000  0.4693120000000  0.4227220000000 1.0
C      1  0.4198530000000  0.5372270000000  0.4960240000000 1.0
C      1  0.5086710000000  0.4711110000000  0.5481440000000 1.0
C      1  0.4176320000000  0.4759290000000  0.4572200000000 1.0
C      1  0.4351220000000  0.5797870000000  0.5086320000000 1.0
C      1  0.5107150000000  0.5766070000000  0.4706380000000 1.0
C      1  0.4788560000000  0.4934420000000  0.4511210000000 1.0
C      1  0.4965530000000  0.5076720000000  0.5208900000000 1.0
C      1  0.5160300000000  0.4125710000000  0.4946680000000 1.0
C      1  0.5541800000000  0.4373000000000  0.4637780000000 1.0
C      1  0.5166680000000  0.5106050000000  0.4896020000000 1.0
C      1  0.5183920000000  0.5566040000000  0.4276170000000 1.0
C      1  0.4144190000000  0.4788080000000  0.5072110000000 1.0
C      1  0.5140420000000  0.4503980000000  0.5018400000000 1.0
C      1  0.4840590000000  0.5284260000000  0.4081130000000 1.0
C      1  0.5770000000000  0.4766410000000  0.5463350000000 1.0
C      1  0.4731130000000  0.4315830000000  0.4390450000000 1.0
C      1  0.4348380000000  0.4695310000000  0.5652090000000 1.0
C      1  0.4966220000000  0.5633000000000  0.4472830000000 1.0
C      1  0.5631800000000  0.4306160000000  0.5111390000000 1.0
C      1  0.5764350000000  0.4826060000000  0.4597210000000 1.0
C      1  0.4278500000000  0.5642590000000  0.4857050000000 1.0
C      1  0.4847080000000  0.4622840000000  0.4994920000000 1.0
C      1  0.5255690000000  0.5085270000000  0.4315450000000 1.0
C      1  0.5324820000000  0.4638550000000  0.4833440000000 1.0
C      1  0.5376000000000  0.5496120000000  0.5559750000000 1.0
C      1  0.5436560000000  0.4950540000000  0.5246060000000 1.0
C      1  0.5159170000000  0.4687170000000  0.4601720000000 1.0
C      1  0.5694500000000  0.5776110000000  0.5246290000000 1.0
C      1  0.5025140000000  0.4243060000000  0.5476570000000 1.0
C      1  0.5312210000000  0.5381130000000  0.4953500000000 1.0
C      1  0.5483260000000  0.4391710000000  0.5357900000000 1.0
C      1  0.5093010000000  0.4975200000000  0.4573120000000 1.0
C      1  0.5233010000000  0.5730970000000  0.5528250000000 1.0
C      1  0.4434110000000  0.5232850000000  0.5106910000000 1.0
C      1  0.5580480000000  0.5275110000000  0.4417690000000 1.0
C      1  0.4776150000000  0.4696600000000  0.6050540000000 1.0
C      1  0.4764030000000  0.4178900000000  0.4638540000000 1.0
C      1  0.4300520000000  0.4928070000000  0.4368240000000 1.0
C      1  0.5257060000000  0.4853760000000  0.5930800000000 1.0
C      1  0.4800250000000  0.5505350000000  0.4964960000000 1.0
C      1  0.4447440000000  0.4462870000000  0.5530330000000 1.0
C      1  0.4805350000000  0.4807210000000  0.5236990000000 1.0
C      1  0.5067970000000  0.5624720000000  0.4972090000000 1.0
C      1  0.4581140000000  0.5612040000000  0.5794380000000 1.0
C      1  0.5892270000000  0.5033650000000  0.5040550000000 1.0
C      1  0.4559060000000  0.4257340000000  0.5681060000000 1.0
C      1  0.5326790000000  0.4503680000000  0.4425590000000 1.0
C      1  0.4074630000000  0.4902480000000  0.4807170000000 1.0
C      1  0.5021570000000  0.4436790000000  0.4011110000000 1.0
C      1  0.5446290000000  0.5553150000000  0.4415740000000 1.0
C      1  0.4780660000000  0.5288080000000  0.4792360000000 1.0
C      1  0.4877450000000  0.6076670000000  0.4993380000000 1.0
C      1  0.4446510000000  0.5409840000000  0.4380740000000 1.0
C      1  0.5114530000000  0.5307170000000  0.4158340000000 1.0
C      1  0.4715200000000  0.4966740000000  0.5988000000000 1.0
C      1  0.5638300000000  0.4898870000000  0.4349230000000 1.0
C      1  0.5400490000000  0.5706860000000  0.4668030000000 1.0
C      1  0.4896080000000  0.5988350000000  0.4725310000000 1.0
C      1  0.5745730000000  0.4566680000000  0.4724500000000 1.0
C      1  0.5220920000000  0.5233210000000  0.5645350000000 1.0
C      1  0.4319680000000  0.4303040000000  0.4774830000000 1.0
C      1  0.5282130000000  0.4593960000000  0.5269690000000 1.0
C      1  0.5831070000000  0.4777660000000  0.5177200000000 1.0
C      1  0.5378230000000  0.4411890000000  0.5786850000000 1.0
C      1  0.4462330000000  0.4941250000000  0.5574670000000 1.0
C      1  0.4840150000000  0.5308430000000  0.5360630000000 1.0
C      1  0.5311210000000  0.4234960000000  0.5548910000000 1.0
C      1  0.4441620000000  0.4730970000000  0.5100270000000 1.0
C      1  0.4998350000000  0.5865960000000  0.5141000000000 1.0
C      1  0.4222410000000  0.5218890000000  0.4370220000000 1.0
C      1  0.5258800000000  0.4852950000000  0.4119830000000 1.0
C      1  0.5364860000000  0.5098500000000  0.5866530000000 1.0
C      1  0.4638030000000  0.5443570000000  0.5201240000000 1.0
C      1  0.4473570000000  0.5717000000000  0.5572350000000 1.0
C      1  0.4637920000000  0.4792100000000  0.4778090000000 1.0
C      1  0.4506220000000  0.4756990000000  0.4226860000000 1.0
C      1  0.4832600000000  0.4315790000000  0.5696180000000 1.0
C      1  0.4689680000000  0.4284690000000  0.5100040000000 1.0
C      1  0.5364910000000  0.4903090000000  0.4962680000000 1.0
C      1  0.5783230000000  0.5726430000000  0.4959640000000 1.0
C      1  0.4567040000000  0.4188910000000  0.4848880000000 1.0
C      1  0.5179390000000  0.5000940000000  0.5413200000000 1.0
C      1  0.5034610000000  0.4085160000000  0.4674090000000 1.0
C      1  0.4925680000000  0.4510990000000  0.5898720000000 1.0
C      1  0.4593920000000  0.5080830000000  0.4880750000000 1.0
C      1  0.4076600000000  0.4959370000000  0.5286590000000 1.0
C      1  0.5455020000000  0.4220340000000  0.4891510000000 1.0
C      1  0.5218040000000  0.5923570000000  0.5325320000000 1.0
C      1  0.4762100000000  0.4852180000000  0.4135830000000 1.0
C      1  0.4665640000000  0.5858780000000  0.4578580000000 1.0
C      1  0.5463830000000  0.5943080000000  0.5173150000000 1.0
C      1  0.5782670000000  0.5299900000000  0.4641460000000 1.0
C      1  0.5800700000000  0.4976140000000  0.5642290000000 1.0
C      1  0.5474770000000  0.5259170000000  0.5206540000000 1.0
C      1  0.4328620000000  0.5076210000000  0.5348440000000 1.0
C      1  0.5796510000000  0.4534690000000  0.5010950000000 1.0
C      1  0.4741460000000  0.5237940000000  0.6082730000000 1.0
C      1  0.5169100000000  0.4156470000000  0.4421230000000 1.0
C      1  0.4949620000000  0.4155190000000  0.5199520000000 1.0
C      1  0.4777770000000  0.5433690000000  0.5875900000000 1.0
C      1  0.4878600000000  0.5361370000000  0.4532850000000 1.0
C      1  0.4042240000000  0.5199090000000  0.4774760000000 1.0
C      1  0.4514230000000  0.4506440000000  0.4376580000000 1.0
C      1  0.4980190000000  0.4292770000000  0.4248110000000 1.0
C      1  0.4512310000000  0.4479550000000  0.5248870000000 1.0
C      1  0.5007780000000  0.4706330000000  0.4090740000000 1.0
C      1  0.3990760000000  0.5294450000000  0.4514010000000 1.0
C      1  0.5692770000000  0.5452340000000  0.4882470000000 1.0
C      1  0.5654030000000  0.4522010000000  0.5561130000000 1.0
C      1  0.5777390000000  0.5298130000000  0.5136760000000 1.0
END
