TITL C-951338-5626-176 -3.91330977826135e-06 125000 -1188.88253772491 0 0 190 (C1) n - 1
REM
REM in /home/bkarasulu/work/CARBON/AIRSS/Generating-Clusters/EDIP-Nigel-Params/with-SteepDescent/Only-C1/SD-CG/HFTN-CG
REM
REM
REM
REM
REM
REM ./C.cell (11c1c37f851c82e70ff6c80c92926a4b)
REM
REM compiler GCC version 9.2.1 20190827 (Red Hat 9.2.1-1)
REM options -cpp -mtune=generic -march=x86-64 -g -O0 -fpre-include=/usr/include/finclude/math-vector-fortran.h
REM seed -2972173 2146752578 -1044469652 -210915403 658246332 -464833672 856402010 -547944441 -938725952 156090995 -499800500 -1288748164 1958703193 1708866251 601519856 -107614841 -1372609543 2130067476 -118146469 1255153658 1388364126 -179608569 99554245 1124424168 -1413923915 -457034603 -1988226016 1193650343 1961497108 -243588916 2136755316 2076929821 -1379934291
REM
CELL 1.54180   50.00000   50.00000   50.00000   90.00000   90.00000   90.00000
LATT -1
SFAC C  
C      1  0.5120890000000  0.5525710000000  0.5122570000000 1.0
C      1  0.4853470000000  0.3809140000000  0.4397010000000 1.0
C      1  0.5542310000000  0.5807830000000  0.4515960000000 1.0
C      1  0.4929590000000  0.4411820000000  0.5363140000000 1.0
C      1  0.5203110000000  0.6123840000000  0.5589300000000 1.0
C      1  0.5655950000000  0.5220840000000  0.4906250000000 1.0
C      1  0.4094970000000  0.5017900000000  0.5688180000000 1.0
C      1  0.5662820000000  0.5704790000000  0.4774910000000 1.0
C      1  0.5167830000000  0.5522800000000  0.4128160000000 1.0
C      1  0.4356900000000  0.4901250000000  0.5051620000000 1.0
C      1  0.5556980000000  0.4787660000000  0.4739430000000 1.0
C      1  0.5749910000000  0.5155020000000  0.4413410000000 1.0
C      1  0.4696340000000  0.4329510000000  0.5734390000000 1.0
C      1  0.5142240000000  0.5756510000000  0.5941380000000 1.0
C      1  0.5455680000000  0.5503150000000  0.4097390000000 1.0
C      1  0.4697070000000  0.5522630000000  0.5856220000000 1.0
C      1  0.5915870000000  0.5491030000000  0.5207120000000 1.0
C      1  0.4105180000000  0.5151550000000  0.4283590000000 1.0
C      1  0.5579790000000  0.5075260000000  0.4658910000000 1.0
C      1  0.5427670000000  0.4349470000000  0.5489190000000 1.0
C      1  0.4597590000000  0.5582070000000  0.4258260000000 1.0
C      1  0.5247270000000  0.4219560000000  0.4278900000000 1.0
C      1  0.4554820000000  0.5089780000000  0.4052040000000 1.0
C      1  0.4815060000000  0.5980720000000  0.4595790000000 1.0
C      1  0.4077280000000  0.5226010000000  0.5123460000000 1.0
C      1  0.5940720000000  0.5331720000000  0.4928070000000 1.0
C      1  0.5129990000000  0.4271330000000  0.5805950000000 1.0
C      1  0.5145330000000  0.6033030000000  0.4998010000000 1.0
C      1  0.5684490000000  0.4947040000000  0.5760800000000 1.0
C      1  0.4878800000000  0.5526710000000  0.4653220000000 1.0
C      1  0.4136740000000  0.5427450000000  0.4242660000000 1.0
C      1  0.5522660000000  0.4154370000000  0.5229480000000 1.0
C      1  0.4979790000000  0.5505920000000  0.5984000000000 1.0
C      1  0.5842980000000  0.4834160000000  0.5527220000000 1.0
C      1  0.4159920000000  0.4138060000000  0.5026860000000 1.0
C      1  0.4725710000000  0.5246080000000  0.4621000000000 1.0
C      1  0.4467540000000  0.3967480000000  0.4640960000000 1.0
C      1  0.4730540000000  0.5667480000000  0.4920680000000 1.0
C      1  0.4843290000000  0.3877740000000  0.4926600000000 1.0
C      1  0.5682710000000  0.4353770000000  0.4473190000000 1.0
C      1  0.4381910000000  0.5226680000000  0.5436160000000 1.0
C      1  0.4404910000000  0.5933850000000  0.5434290000000 1.0
C      1  0.4669600000000  0.5788700000000  0.5790230000000 1.0
C      1  0.5887540000000  0.4675210000000  0.5100730000000 1.0
C      1  0.6036910000000  0.5405340000000  0.5455850000000 1.0
C      1  0.4417840000000  0.5385930000000  0.5841100000000 1.0
C      1  0.4537840000000  0.4947670000000  0.6076640000000 1.0
C      1  0.5651030000000  0.4797000000000  0.5257900000000 1.0
C      1  0.5485670000000  0.5468680000000  0.4873900000000 1.0
C      1  0.5614600000000  0.4462930000000  0.5692660000000 1.0
C      1  0.5063820000000  0.4335090000000  0.6075340000000 1.0
C      1  0.4096350000000  0.5699790000000  0.5136840000000 1.0
C      1  0.4740020000000  0.4929810000000  0.3903530000000 1.0
C      1  0.3940050000000  0.5114810000000  0.5352490000000 1.0
C      1  0.4917640000000  0.4394770000000  0.4650820000000 1.0
C      1  0.6078650000000  0.4885860000000  0.4635870000000 1.0
C      1  0.4051510000000  0.5463570000000  0.4972940000000 1.0
C      1  0.5123620000000  0.4556610000000  0.5156650000000 1.0
C      1  0.5401820000000  0.5191620000000  0.5402250000000 1.0
C      1  0.5327470000000  0.5158930000000  0.3777660000000 1.0
C      1  0.4310930000000  0.4975110000000  0.4175270000000 1.0
C      1  0.4491900000000  0.5473450000000  0.5301460000000 1.0
C      1  0.4828600000000  0.5105100000000  0.5788380000000 1.0
C      1  0.5428860000000  0.5673680000000  0.5865380000000 1.0
C      1  0.5311510000000  0.5183750000000  0.4563430000000 1.0
C      1  0.5239660000000  0.5667840000000  0.5522750000000 1.0
C      1  0.4430080000000  0.5312400000000  0.4605770000000 1.0
C      1  0.4382560000000  0.4155040000000  0.4426120000000 1.0
C      1  0.5218840000000  0.4774770000000  0.5679820000000 1.0
C      1  0.4565240000000  0.4560440000000  0.4182070000000 1.0
C      1  0.4595260000000  0.4790820000000  0.5479380000000 1.0
C      1  0.5788390000000  0.4608530000000  0.4816970000000 1.0
C      1  0.4696560000000  0.4647410000000  0.3915690000000 1.0
C      1  0.5182120000000  0.5011360000000  0.4345980000000 1.0
C      1  0.5416220000000  0.5488290000000  0.5166390000000 1.0
C      1  0.4747270000000  0.3888330000000  0.4641250000000 1.0
C      1  0.4286670000000  0.4692510000000  0.4250230000000 1.0
C      1  0.4643350000000  0.4532140000000  0.5346120000000 1.0
C      1  0.5662400000000  0.5668690000000  0.5249410000000 1.0
C      1  0.4023960000000  0.4750320000000  0.5548670000000 1.0
C      1  0.5059640000000  0.4110760000000  0.4089490000000 1.0
C      1  0.4193490000000  0.5952810000000  0.5003020000000 1.0
C      1  0.4705310000000  0.4608290000000  0.4673650000000 1.0
C      1  0.5100900000000  0.5037630000000  0.3918470000000 1.0
C      1  0.5646960000000  0.5624290000000  0.4305600000000 1.0
C      1  0.5954970000000  0.4436950000000  0.4474110000000 1.0
C      1  0.5917890000000  0.5543630000000  0.4705220000000 1.0
C      1  0.5178440000000  0.4729890000000  0.3982100000000 1.0
C      1  0.4536170000000  0.5450550000000  0.5012850000000 1.0
C      1  0.4625230000000  0.5938210000000  0.4818530000000 1.0
C      1  0.4698450000000  0.5335870000000  0.4122380000000 1.0
C      1  0.5467390000000  0.5386380000000  0.5920520000000 1.0
C      1  0.5159350000000  0.4431430000000  0.4826210000000 1.0
C      1  0.4970910000000  0.4551140000000  0.3874340000000 1.0
C      1  0.5423740000000  0.4532600000000  0.5245760000000 1.0
C      1  0.5533310000000  0.5076460000000  0.4196600000000 1.0
C      1  0.6109730000000  0.5058950000000  0.4883510000000 1.0
C      1  0.5919980000000  0.4773600000000  0.4187960000000 1.0
C      1  0.5416170000000  0.6043270000000  0.5127760000000 1.0
C      1  0.5224910000000  0.4715980000000  0.4421160000000 1.0
C      1  0.5074300000000  0.4893830000000  0.4797880000000 1.0
C      1  0.5275380000000  0.4697110000000  0.4704700000000 1.0
C      1  0.5016820000000  0.4510710000000  0.4371230000000 1.0
C      1  0.4052680000000  0.4767010000000  0.4537830000000 1.0
C      1  0.4592430000000  0.4240150000000  0.4242210000000 1.0
C      1  0.5520830000000  0.5253240000000  0.3961970000000 1.0
C      1  0.4219760000000  0.4538560000000  0.5598300000000 1.0
C      1  0.4390080000000  0.4657460000000  0.5780930000000 1.0
C      1  0.4802030000000  0.4982500000000  0.5338600000000 1.0
C      1  0.4483300000000  0.4134210000000  0.5543550000000 1.0
C      1  0.4722490000000  0.5221280000000  0.4937420000000 1.0
C      1  0.5654550000000  0.4822160000000  0.4103810000000 1.0
C      1  0.4347600000000  0.5523770000000  0.4411190000000 1.0
C      1  0.5972470000000  0.4971750000000  0.4381490000000 1.0
C      1  0.5486180000000  0.4721560000000  0.5834090000000 1.0
C      1  0.3829710000000  0.4799590000000  0.4988150000000 1.0
C      1  0.4657760000000  0.6128840000000  0.5042330000000 1.0
C      1  0.4754830000000  0.4712500000000  0.4381630000000 1.0
C      1  0.4260010000000  0.4619110000000  0.4949260000000 1.0
C      1  0.5455380000000  0.4612250000000  0.4059500000000 1.0
C      1  0.5936060000000  0.4433750000000  0.5278670000000 1.0
C      1  0.5318210000000  0.4027720000000  0.5048270000000 1.0
C      1  0.5251380000000  0.5768480000000  0.4545260000000 1.0
C      1  0.5221850000000  0.5456060000000  0.4693950000000 1.0
C      1  0.5102430000000  0.4955950000000  0.5904640000000 1.0
C      1  0.5079140000000  0.5878830000000  0.5671780000000 1.0
C      1  0.4266500000000  0.4383310000000  0.4537580000000 1.0
C      1  0.4889360000000  0.5287350000000  0.5533010000000 1.0
C      1  0.4988200000000  0.5294580000000  0.4076380000000 1.0
C      1  0.4336780000000  0.5928260000000  0.4744300000000 1.0
C      1  0.4813800000000  0.4030960000000  0.4224590000000 1.0
C      1  0.3811640000000  0.4869620000000  0.5257060000000 1.0
C      1  0.4817480000000  0.5723560000000  0.4420140000000 1.0
C      1  0.5650560000000  0.5238890000000  0.5756580000000 1.0
C      1  0.4422240000000  0.4526000000000  0.4725390000000 1.0
C      1  0.4746970000000  0.4047170000000  0.5814870000000 1.0
C      1  0.5847230000000  0.5443590000000  0.4429670000000 1.0
C      1  0.4738790000000  0.5146050000000  0.6074470000000 1.0
C      1  0.4382040000000  0.4390970000000  0.5396880000000 1.0
C      1  0.4568360000000  0.4502450000000  0.5931600000000 1.0
C      1  0.5009150000000  0.4023210000000  0.5684220000000 1.0
C      1  0.4340650000000  0.4934720000000  0.5361940000000 1.0
C      1  0.6111880000000  0.4874170000000  0.5117240000000 1.0
C      1  0.4936280000000  0.4087540000000  0.5385830000000 1.0
C      1  0.6122320000000  0.4600220000000  0.4630940000000 1.0
C      1  0.4002290000000  0.4663720000000  0.4812770000000 1.0
C      1  0.5654180000000  0.5879970000000  0.5031750000000 1.0
C      1  0.5864980000000  0.5391830000000  0.5671800000000 1.0
C      1  0.5191200000000  0.5364400000000  0.5577050000000 1.0
C      1  0.5578120000000  0.5077820000000  0.5165450000000 1.0
C      1  0.4658590000000  0.5926520000000  0.5556480000000 1.0
C      1  0.5003310000000  0.4601550000000  0.6153220000000 1.0
C      1  0.5098540000000  0.5982120000000  0.4706380000000 1.0
C      1  0.4377280000000  0.3999260000000  0.4919720000000 1.0
C      1  0.5330720000000  0.4175280000000  0.4793470000000 1.0
C      1  0.5877200000000  0.4534460000000  0.5554490000000 1.0
C      1  0.4215580000000  0.5499030000000  0.5648430000000 1.0
C      1  0.5046520000000  0.3969570000000  0.5129600000000 1.0
C      1  0.5610860000000  0.4217880000000  0.4728750000000 1.0
C      1  0.4851270000000  0.5040010000000  0.4373010000000 1.0
C      1  0.4224010000000  0.4385120000000  0.5141950000000 1.0
C      1  0.4251370000000  0.5750560000000  0.4551980000000 1.0
C      1  0.4917440000000  0.6095000000000  0.5168670000000 1.0
C      1  0.5265360000000  0.4925770000000  0.5438420000000 1.0
C      1  0.4904080000000  0.5714330000000  0.5175860000000 1.0
C      1  0.4660030000000  0.4957810000000  0.5045820000000 1.0
C      1  0.5040310000000  0.4502350000000  0.5637530000000 1.0
C      1  0.4747890000000  0.5577510000000  0.5423500000000 1.0
C      1  0.4357230000000  0.5089830000000  0.5854330000000 1.0
C      1  0.6233310000000  0.5208540000000  0.5448960000000 1.0
C      1  0.4737720000000  0.4702260000000  0.6049960000000 1.0
C      1  0.5233310000000  0.4779110000000  0.6123300000000 1.0
C      1  0.5086810000000  0.5739240000000  0.4292900000000 1.0
C      1  0.5196240000000  0.5281660000000  0.5954880000000 1.0
C      1  0.4027870000000  0.5055550000000  0.4553460000000 1.0
C      1  0.5496150000000  0.4359550000000  0.4232910000000 1.0
C      1  0.4605210000000  0.3931950000000  0.5079520000000 1.0
C      1  0.5163580000000  0.5048230000000  0.5022570000000 1.0
C      1  0.6096420000000  0.4970370000000  0.5394980000000 1.0
C      1  0.5545330000000  0.5788690000000  0.5515760000000 1.0
C      1  0.5006460000000  0.4277450000000  0.3876840000000 1.0
C      1  0.4999110000000  0.5283050000000  0.5034680000000 1.0
C      1  0.5702250000000  0.4281500000000  0.5017600000000 1.0
C      1  0.4659330000000  0.3997580000000  0.5353610000000 1.0
C      1  0.4212340000000  0.5175440000000  0.4769350000000 1.0
C      1  0.4392070000000  0.6092400000000  0.5187490000000 1.0
C      1  0.4817470000000  0.4782800000000  0.4872410000000 1.0
C      1  0.4274320000000  0.5669030000000  0.5386120000000 1.0
C      1  0.5076870000000  0.4865760000000  0.5240710000000 1.0
C      1  0.5431700000000  0.6057430000000  0.5431330000000 1.0
END
