TITL C-951344-124-172 -1.27666656916253e-06 125000 -512.638845199966 0 0 83 (C1) n - 1
REM
REM in /home/bkarasulu/work/CARBON/AIRSS/Generating-Clusters/EDIP-Nigel-Params/with-SteepDescent/Only-C1/SD-CG/HFTN-CG
REM
REM
REM
REM
REM
REM ./C.cell (11c1c37f851c82e70ff6c80c92926a4b)
REM
REM compiler GCC version 9.2.1 20190827 (Red Hat 9.2.1-1)
REM options -cpp -mtune=generic -march=x86-64 -g -O0 -fpre-include=/usr/include/finclude/math-vector-fortran.h
REM seed 1166571352 -1053677827 1180965009 573290358 454055954 142704272 759768485 -574395894 607741986 515502226 299562630 -562569231 1693501138 -1780906112 -736700257 891545640 1834791865 1009463180 1933467125 1621613837 -684234158 -652571708 1903840651 -885366014 1297929520 276518939 228442325 -1779433272 -1315534590 1746500208 -229526101 -51280013 1409137291
REM
CELL 1.54180   50.00000   50.00000   50.00000   90.00000   90.00000   90.00000
LATT -1
SFAC C  
C      1  0.5162730000000  0.5134620000000  0.5723730000000 1.0
C      1  0.5515840000000  0.4839620000000  0.5594080000000 1.0
C      1  0.4361270000000  0.5010250000000  0.4463820000000 1.0
C      1  0.4862540000000  0.5133860000000  0.5353230000000 1.0
C      1  0.5368830000000  0.4224780000000  0.5116840000000 1.0
C      1  0.5658070000000  0.5102280000000  0.5191930000000 1.0
C      1  0.5237350000000  0.4847240000000  0.5709290000000 1.0
C      1  0.4637630000000  0.4938210000000  0.5291000000000 1.0
C      1  0.4797260000000  0.5364290000000  0.5160210000000 1.0
C      1  0.4888900000000  0.4376980000000  0.4990730000000 1.0
C      1  0.4661110000000  0.4495410000000  0.4487620000000 1.0
C      1  0.5311850000000  0.4985550000000  0.4201420000000 1.0
C      1  0.5212480000000  0.5235650000000  0.5233590000000 1.0
C      1  0.4404870000000  0.5041070000000  0.5623820000000 1.0
C      1  0.5317780000000  0.4382550000000  0.4380090000000 1.0
C      1  0.5593540000000  0.4632310000000  0.5403980000000 1.0
C      1  0.5159740000000  0.5740170000000  0.4722430000000 1.0
C      1  0.5577650000000  0.5203580000000  0.4546000000000 1.0
C      1  0.4749210000000  0.4697000000000  0.5639150000000 1.0
C      1  0.5099200000000  0.5880110000000  0.4963790000000 1.0
C      1  0.5703020000000  0.4725280000000  0.5144780000000 1.0
C      1  0.5151830000000  0.4409250000000  0.5474560000000 1.0
C      1  0.5485030000000  0.4338040000000  0.4872810000000 1.0
C      1  0.4436700000000  0.5624760000000  0.4791790000000 1.0
C      1  0.5049660000000  0.4807270000000  0.5126200000000 1.0
C      1  0.5395660000000  0.5578390000000  0.4769670000000 1.0
C      1  0.5094310000000  0.4291870000000  0.5203610000000 1.0
C      1  0.4881520000000  0.5103340000000  0.4660010000000 1.0
C      1  0.5255180000000  0.4741720000000  0.4716160000000 1.0
C      1  0.5351820000000  0.5273010000000  0.5509470000000 1.0
C      1  0.5350430000000  0.5314570000000  0.4663900000000 1.0
C      1  0.5448310000000  0.4387020000000  0.5451470000000 1.0
C      1  0.5297820000000  0.4822190000000  0.4998120000000 1.0
C      1  0.5013300000000  0.5765070000000  0.5450590000000 1.0
C      1  0.4290630000000  0.5103330000000  0.5355500000000 1.0
C      1  0.4724590000000  0.5634150000000  0.4815480000000 1.0
C      1  0.5055630000000  0.5133780000000  0.4250090000000 1.0
C      1  0.5109520000000  0.5515930000000  0.5099930000000 1.0
C      1  0.4878650000000  0.4688790000000  0.4394090000000 1.0
C      1  0.4315020000000  0.5392560000000  0.5227550000000 1.0
C      1  0.4662850000000  0.4967280000000  0.5732300000000 1.0
C      1  0.4634170000000  0.4239710000000  0.5026470000000 1.0
C      1  0.4431920000000  0.5236930000000  0.4771670000000 1.0
C      1  0.4490220000000  0.4590230000000  0.4711500000000 1.0
C      1  0.5708790000000  0.4539480000000  0.4910460000000 1.0
C      1  0.5040270000000  0.4664720000000  0.5582220000000 1.0
C      1  0.4852930000000  0.4708420000000  0.4942390000000 1.0
C      1  0.5503200000000  0.5625440000000  0.5037580000000 1.0
C      1  0.4551210000000  0.5507080000000  0.5599310000000 1.0
C      1  0.4186760000000  0.4917660000000  0.4903310000000 1.0
C      1  0.5072370000000  0.5311780000000  0.4532840000000 1.0
C      1  0.4320210000000  0.4821990000000  0.4676400000000 1.0
C      1  0.5675260000000  0.4740230000000  0.4416680000000 1.0
C      1  0.4618440000000  0.4899250000000  0.4998010000000 1.0
C      1  0.5590650000000  0.5099820000000  0.5490260000000 1.0
C      1  0.4369970000000  0.4599030000000  0.5214110000000 1.0
C      1  0.4784860000000  0.5446390000000  0.5730470000000 1.0
C      1  0.5006200000000  0.4296130000000  0.4735620000000 1.0
C      1  0.5295880000000  0.4709460000000  0.4083770000000 1.0
C      1  0.4822890000000  0.5838440000000  0.4999450000000 1.0
C      1  0.5271200000000  0.4436690000000  0.4674510000000 1.0
C      1  0.5537280000000  0.4546160000000  0.4233650000000 1.0
C      1  0.4871780000000  0.5174780000000  0.5656260000000 1.0
C      1  0.5780780000000  0.4641050000000  0.4658380000000 1.0
C      1  0.4556580000000  0.4585800000000  0.5447230000000 1.0
C      1  0.5497020000000  0.4969470000000  0.4426420000000 1.0
C      1  0.4262290000000  0.5431440000000  0.4937630000000 1.0
C      1  0.5094440000000  0.4533740000000  0.4231830000000 1.0
C      1  0.4567920000000  0.5544710000000  0.5314210000000 1.0
C      1  0.4450260000000  0.4443240000000  0.4967780000000 1.0
C      1  0.5481470000000  0.5548920000000  0.5465090000000 1.0
C      1  0.5293990000000  0.5755940000000  0.5341210000000 1.0
C      1  0.4692680000000  0.5169680000000  0.4896690000000 1.0
C      1  0.5661560000000  0.5445130000000  0.5222510000000 1.0
C      1  0.4813320000000  0.4952810000000  0.4249120000000 1.0
C      1  0.4618010000000  0.5107730000000  0.4394790000000 1.0
C      1  0.4933700000000  0.5585300000000  0.4604440000000 1.0
C      1  0.4974810000000  0.5645160000000  0.5700070000000 1.0
C      1  0.4217680000000  0.4860160000000  0.5176530000000 1.0
C      1  0.5395250000000  0.5091580000000  0.5042490000000 1.0
C      1  0.4805560000000  0.4259880000000  0.4542650000000 1.0
C      1  0.4765680000000  0.5790080000000  0.5280420000000 1.0
C      1  0.4971210000000  0.4805270000000  0.4668720000000 1.0
END
