TITL C-951336-9012-516 2.84078379681661e-07 125000 -301.802002893205 0 0 51 (C1) n - 1
REM
REM in /home/bkarasulu/work/CARBON/AIRSS/Generating-Clusters/EDIP-Nigel-Params/with-SteepDescent/Only-C1/SD-CG/HFTN-CG
REM
REM
REM
REM
REM
REM ./C.cell (11c1c37f851c82e70ff6c80c92926a4b)
REM
REM compiler GCC version 9.2.1 20190827 (Red Hat 9.2.1-1)
REM options -cpp -mtune=generic -march=x86-64 -g -O0 -fpre-include=/usr/include/finclude/math-vector-fortran.h
REM seed 1077797445 -350841565 1653154359 -795965468 307719400 -2003997734 2030495502 346981985 -987733610 209214112 492866640 242071666 1544282127 761070300 1754599996 1288883457 1417007706 -342469513 1461927852 709653143 922973835 -2061132823 -254593706 -1171717071 1029521463 416228559 1384864680 -1653454602 564396350 -2008681359 12423544 -149264461 -1159409647
REM
CELL 1.54180   50.00000   50.00000   50.00000   90.00000   90.00000   90.00000
LATT -1
SFAC C  
C      1  0.5291360000000  0.5415540000000  0.5184600000000 1.0
C      1  0.5161700000000  0.5509500000000  0.5420960000000 1.0
C      1  0.5323420000000  0.4923040000000  0.5627000000000 1.0
C      1  0.4491330000000  0.5450230000000  0.5414550000000 1.0
C      1  0.5045800000000  0.4340400000000  0.4899340000000 1.0
C      1  0.4666010000000  0.5030760000000  0.5571710000000 1.0
C      1  0.4973710000000  0.5111450000000  0.4421320000000 1.0
C      1  0.5745870000000  0.4339450000000  0.4724050000000 1.0
C      1  0.5332600000000  0.5811360000000  0.4792800000000 1.0
C      1  0.5411800000000  0.4886720000000  0.5362700000000 1.0
C      1  0.4287160000000  0.5059790000000  0.5263580000000 1.0
C      1  0.5457490000000  0.4921500000000  0.4637760000000 1.0
C      1  0.5703180000000  0.4828810000000  0.4802620000000 1.0
C      1  0.4583610000000  0.4683850000000  0.4700830000000 1.0
C      1  0.4927240000000  0.4699320000000  0.5787660000000 1.0
C      1  0.4756910000000  0.5293750000000  0.4468390000000 1.0
C      1  0.4341610000000  0.5002000000000  0.4995870000000 1.0
C      1  0.4919610000000  0.4215070000000  0.5096470000000 1.0
C      1  0.5269620000000  0.4929020000000  0.4115180000000 1.0
C      1  0.5759820000000  0.4950150000000  0.5046300000000 1.0
C      1  0.4371110000000  0.5219860000000  0.4811780000000 1.0
C      1  0.4717650000000  0.4233800000000  0.5268890000000 1.0
C      1  0.4901180000000  0.5154490000000  0.5682220000000 1.0
C      1  0.5346630000000  0.4628400000000  0.4645800000000 1.0
C      1  0.4864200000000  0.5231960000000  0.4987430000000 1.0
C      1  0.4444090000000  0.5180270000000  0.5460300000000 1.0
C      1  0.4610590000000  0.5596600000000  0.5223340000000 1.0
C      1  0.4507510000000  0.4401190000000  0.5331290000000 1.0
C      1  0.5594430000000  0.4540460000000  0.4806950000000 1.0
C      1  0.5077980000000  0.4936830000000  0.5761460000000 1.0
C      1  0.5402020000000  0.5730690000000  0.4530170000000 1.0
C      1  0.4767100000000  0.5488130000000  0.5033930000000 1.0
C      1  0.4490750000000  0.5221710000000  0.4549730000000 1.0
C      1  0.4721800000000  0.5062750000000  0.4778720000000 1.0
C      1  0.5645320000000  0.5049210000000  0.5281270000000 1.0
C      1  0.5220370000000  0.5174910000000  0.4269970000000 1.0
C      1  0.5136610000000  0.5186840000000  0.5066560000000 1.0
C      1  0.4680210000000  0.4759580000000  0.5668740000000 1.0
C      1  0.5009830000000  0.5399050000000  0.5610430000000 1.0
C      1  0.5471320000000  0.5087710000000  0.4402940000000 1.0
C      1  0.5550480000000  0.5312540000000  0.5255080000000 1.0
C      1  0.4847270000000  0.4678930000000  0.4598410000000 1.0
C      1  0.4532540000000  0.4554390000000  0.5559050000000 1.0
C      1  0.5147150000000  0.5804090000000  0.4578670000000 1.0
C      1  0.5216010000000  0.4940180000000  0.5167620000000 1.0
C      1  0.5106200000000  0.4717330000000  0.4189370000000 1.0
C      1  0.5078270000000  0.4559850000000  0.4735230000000 1.0
C      1  0.4907340000000  0.4834410000000  0.4355610000000 1.0
C      1  0.4460110000000  0.4746280000000  0.4943030000000 1.0
C      1  0.4405790000000  0.4538870000000  0.5116020000000 1.0
C      1  0.5318240000000  0.5627010000000  0.4996320000000 1.0
END
