TITL C-950528-5794-510 8.01998499652922e-07 125000 -166.465255625922 0 0 29 (C1) n - 1
REM
REM in /home/bkarasulu/work/CARBON/AIRSS/Generating-Clusters/EDIP-Nigel-Params/with-SteepDescent/Only-C1/SD-CG/HFTN-CG
REM
REM
REM
REM
REM
REM ./C.cell (11c1c37f851c82e70ff6c80c92926a4b)
REM
REM compiler GCC version 9.2.1 20190827 (Red Hat 9.2.1-1)
REM options -cpp -mtune=generic -march=x86-64 -g -O0 -fpre-include=/usr/include/finclude/math-vector-fortran.h
REM seed 1493150961 -567219664 -1656243474 2080759608 1700922242 -1702397396 1328650070 569452897 1853593554 -1031395265 -1604001465 -1070148362 820169615 984967786 763185049 1095359507 -420907691 -1981277466 -1391991383 -1136201390 1715032494 -36773300 -8458755 2001685661 401783584 931636289 1339449837 -1334335110 -597944711 -1387896918 -740969882 -747485714 -2107779969
REM
CELL 1.54180   50.00000   50.00000   50.00000   90.00000   90.00000   90.00000
LATT -1
SFAC C  
C      1  0.5226450000000  0.4735330000000  0.5288130000000 1.0
C      1  0.5473310000000  0.4923900000000  0.5375080000000 1.0
C      1  0.4707300000000  0.4694210000000  0.4906510000000 1.0
C      1  0.4801120000000  0.4773680000000  0.5397880000000 1.0
C      1  0.4551800000000  0.4526020000000  0.5072340000000 1.0
C      1  0.5161200000000  0.4593010000000  0.4826850000000 1.0
C      1  0.5202890000000  0.5555800000000  0.4904190000000 1.0
C      1  0.5352700000000  0.5438160000000  0.4698320000000 1.0
C      1  0.5378070000000  0.5368810000000  0.5196290000000 1.0
C      1  0.4699110000000  0.5186750000000  0.4860620000000 1.0
C      1  0.4617040000000  0.4926860000000  0.4745480000000 1.0
C      1  0.4426940000000  0.5338560000000  0.5264760000000 1.0
C      1  0.5100210000000  0.5048100000000  0.4498510000000 1.0
C      1  0.5599800000000  0.4656300000000  0.5353160000000 1.0
C      1  0.4910810000000  0.4600380000000  0.4714520000000 1.0
C      1  0.4942150000000  0.5120030000000  0.5068240000000 1.0
C      1  0.4883140000000  0.5219920000000  0.4422440000000 1.0
C      1  0.4480960000000  0.5306520000000  0.5002830000000 1.0
C      1  0.4647050000000  0.4564360000000  0.5324460000000 1.0
C      1  0.5094270000000  0.5389390000000  0.5123950000000 1.0
C      1  0.5508930000000  0.5113790000000  0.5149020000000 1.0
C      1  0.4607840000000  0.5204840000000  0.5412720000000 1.0
C      1  0.5270760000000  0.5166720000000  0.4707340000000 1.0
C      1  0.5384470000000  0.4486270000000  0.5287770000000 1.0
C      1  0.4771350000000  0.5356480000000  0.4636440000000 1.0
C      1  0.4819030000000  0.5043950000000  0.5333380000000 1.0
C      1  0.4838110000000  0.4848270000000  0.4518520000000 1.0
C      1  0.5384840000000  0.4986560000000  0.4906530000000 1.0
C      1  0.5158370000000  0.4827060000000  0.5003700000000 1.0
END
