TITL C-950524-1808-633 -6.79327078247846e-07 125000 -627.479044812225 0 0 100 (C1) n - 1
REM
REM in /home/bkarasulu/work/CARBON/AIRSS/Generating-Clusters/EDIP-Nigel-Params/with-SteepDescent/Only-C1/SD-CG/HFTN-CG
REM
REM
REM
REM
REM
REM ./C.cell (11c1c37f851c82e70ff6c80c92926a4b)
REM
REM compiler GCC version 9.2.1 20190827 (Red Hat 9.2.1-1)
REM options -cpp -mtune=generic -march=x86-64 -g -O0 -fpre-include=/usr/include/finclude/math-vector-fortran.h
REM seed -864251546 1842554009 -1487257164 1826198087 -1041268487 -2084848637 -1540131750 1259119096 1145078012 656962366 -1356001133 -1724504377 397471710 737787510 -701664605 288462347 899666178 -648137410 333996760 1540320841 1540850868 1972584027 349498751 634337248 -578962664 -1664182160 1384568680 2080995733 -1556399494 -962833762 718832173 1648419516 -1951552707
REM
CELL 1.54180   50.00000   50.00000   50.00000   90.00000   90.00000   90.00000
LATT -1
SFAC C  
C      1  0.4802210000000  0.5010190000000  0.4710600000000 1.0
C      1  0.5031880000000  0.5729200000000  0.5490890000000 1.0
C      1  0.5448670000000  0.5443670000000  0.5602200000000 1.0
C      1  0.4671330000000  0.5178050000000  0.5132540000000 1.0
C      1  0.5516240000000  0.4397960000000  0.4777730000000 1.0
C      1  0.5124030000000  0.5277390000000  0.4344830000000 1.0
C      1  0.4755550000000  0.5257330000000  0.4851040000000 1.0
C      1  0.4759600000000  0.4388570000000  0.5635130000000 1.0
C      1  0.5079070000000  0.4348410000000  0.4740130000000 1.0
C      1  0.5025840000000  0.5042950000000  0.4525370000000 1.0
C      1  0.5426610000000  0.5054130000000  0.4720170000000 1.0
C      1  0.5156900000000  0.5033850000000  0.5107040000000 1.0
C      1  0.4634020000000  0.5111880000000  0.5714970000000 1.0
C      1  0.5774170000000  0.4729200000000  0.4528860000000 1.0
C      1  0.5227860000000  0.4851540000000  0.4585840000000 1.0
C      1  0.5628370000000  0.4832070000000  0.4314900000000 1.0
C      1  0.5339440000000  0.4748570000000  0.4312670000000 1.0
C      1  0.4559510000000  0.4656080000000  0.4348090000000 1.0
C      1  0.4731980000000  0.5377800000000  0.5612090000000 1.0
C      1  0.5267490000000  0.5225520000000  0.4920480000000 1.0
C      1  0.4921390000000  0.4903140000000  0.4057400000000 1.0
C      1  0.4597950000000  0.4459460000000  0.4567390000000 1.0
C      1  0.4221900000000  0.5168210000000  0.5437540000000 1.0
C      1  0.5315380000000  0.4782250000000  0.5065310000000 1.0
C      1  0.4799010000000  0.5163000000000  0.4047660000000 1.0
C      1  0.5350280000000  0.4687200000000  0.5344160000000 1.0
C      1  0.4050670000000  0.5039440000000  0.5252080000000 1.0
C      1  0.5196900000000  0.4177570000000  0.5453530000000 1.0
C      1  0.5642760000000  0.4504730000000  0.5674790000000 1.0
C      1  0.5637260000000  0.5100880000000  0.5393530000000 1.0
C      1  0.5063630000000  0.4421640000000  0.5627460000000 1.0
C      1  0.5265540000000  0.5821050000000  0.5342260000000 1.0
C      1  0.4719830000000  0.5762440000000  0.4557670000000 1.0
C      1  0.5030250000000  0.5400780000000  0.4848400000000 1.0
C      1  0.4268150000000  0.5260730000000  0.4704600000000 1.0
C      1  0.5388360000000  0.4306350000000  0.4527330000000 1.0
C      1  0.4359640000000  0.5021900000000  0.5650570000000 1.0
C      1  0.4800980000000  0.4333510000000  0.5261390000000 1.0
C      1  0.5218570000000  0.4902920000000  0.4074580000000 1.0
C      1  0.5548900000000  0.5283410000000  0.4551410000000 1.0
C      1  0.5030820000000  0.5679000000000  0.4959050000000 1.0
C      1  0.5571520000000  0.4489610000000  0.5401750000000 1.0
C      1  0.5321660000000  0.5440700000000  0.5333400000000 1.0
C      1  0.5144550000000  0.4133960000000  0.4962650000000 1.0
C      1  0.5458100000000  0.4239640000000  0.5310910000000 1.0
C      1  0.5079330000000  0.5486440000000  0.5693340000000 1.0
C      1  0.4148240000000  0.5363190000000  0.4939880000000 1.0
C      1  0.5410410000000  0.4246050000000  0.5016730000000 1.0
C      1  0.4859340000000  0.4313520000000  0.4526800000000 1.0
C      1  0.5182320000000  0.5107060000000  0.5647590000000 1.0
C      1  0.5489900000000  0.4724100000000  0.5767640000000 1.0
C      1  0.5698420000000  0.4634300000000  0.4779470000000 1.0
C      1  0.5293480000000  0.5777640000000  0.5057820000000 1.0
C      1  0.4497870000000  0.5549820000000  0.5582440000000 1.0
C      1  0.4272540000000  0.5534240000000  0.5128010000000 1.0
C      1  0.5063690000000  0.4596400000000  0.5381970000000 1.0
C      1  0.4368450000000  0.4418960000000  0.5238950000000 1.0
C      1  0.5278570000000  0.4456950000000  0.4300940000000 1.0
C      1  0.4471930000000  0.5719140000000  0.5034910000000 1.0
C      1  0.5599250000000  0.5132350000000  0.4283480000000 1.0
C      1  0.4883020000000  0.5385590000000  0.4202300000000 1.0
C      1  0.5598700000000  0.5592520000000  0.4932020000000 1.0
C      1  0.5862510000000  0.5234930000000  0.4941130000000 1.0
C      1  0.5098080000000  0.4651460000000  0.4835260000000 1.0
C      1  0.4576160000000  0.4370120000000  0.5063640000000 1.0
C      1  0.4496940000000  0.5767690000000  0.4752180000000 1.0
C      1  0.5205570000000  0.5733510000000  0.4524120000000 1.0
C      1  0.5752590000000  0.5037230000000  0.5115340000000 1.0
C      1  0.5426100000000  0.4924170000000  0.5536740000000 1.0
C      1  0.4804700000000  0.4770580000000  0.4895530000000 1.0
C      1  0.5208300000000  0.4641220000000  0.5839610000000 1.0
C      1  0.4987630000000  0.5811830000000  0.4685550000000 1.0
C      1  0.5328740000000  0.5168620000000  0.4142080000000 1.0
C      1  0.4393900000000  0.4875410000000  0.4408100000000 1.0
C      1  0.4304240000000  0.5442210000000  0.5402310000000 1.0
C      1  0.4626280000000  0.4624860000000  0.5743260000000 1.0
C      1  0.4537630000000  0.5391930000000  0.4680300000000 1.0
C      1  0.4564590000000  0.4581320000000  0.4842750000000 1.0
C      1  0.4635080000000  0.5836530000000  0.5225730000000 1.0
C      1  0.4374910000000  0.4728020000000  0.5607020000000 1.0
C      1  0.5581640000000  0.4866180000000  0.4931080000000 1.0
C      1  0.4691490000000  0.5534450000000  0.4361290000000 1.0
C      1  0.5048910000000  0.4894600000000  0.5835580000000 1.0
C      1  0.4863820000000  0.5657460000000  0.5238490000000 1.0
C      1  0.4979340000000  0.4433280000000  0.4280990000000 1.0
C      1  0.4410420000000  0.4700890000000  0.5305210000000 1.0
C      1  0.4213040000000  0.4839100000000  0.5138220000000 1.0
C      1  0.5698550000000  0.5328510000000  0.5548370000000 1.0
C      1  0.5104100000000  0.5218170000000  0.5343150000000 1.0
C      1  0.5001910000000  0.4119230000000  0.5226740000000 1.0
C      1  0.5752870000000  0.5416080000000  0.4747520000000 1.0
C      1  0.5296750000000  0.5467390000000  0.4499300000000 1.0
C      1  0.4701170000000  0.4875920000000  0.5184280000000 1.0
C      1  0.4266320000000  0.4964040000000  0.4643680000000 1.0
C      1  0.4820700000000  0.4676170000000  0.4219460000000 1.0
C      1  0.5471130000000  0.5374690000000  0.5086210000000 1.0
C      1  0.4826920000000  0.5349580000000  0.5321470000000 1.0
C      1  0.4313270000000  0.4777040000000  0.4866270000000 1.0
C      1  0.4798990000000  0.4866900000000  0.5682160000000 1.0
C      1  0.4894480000000  0.4832510000000  0.5403180000000 1.0
END
