TITL C-951336-9012-445 2.13332896895947e-06 125000 -1058.24698691566 0 0 169 (C1) n - 1
REM
REM in /home/bkarasulu/work/CARBON/AIRSS/Generating-Clusters/EDIP-Nigel-Params/with-SteepDescent/Only-C1/SD-CG/HFTN-CG
REM
REM
REM
REM
REM
REM ./C.cell (11c1c37f851c82e70ff6c80c92926a4b)
REM
REM compiler GCC version 9.2.1 20190827 (Red Hat 9.2.1-1)
REM options -cpp -mtune=generic -march=x86-64 -g -O0 -fpre-include=/usr/include/finclude/math-vector-fortran.h
REM seed 922853754 1011870209 958478981 694144033 1331426479 99184803 2140601191 -1190421994 329005534 -1234081709 430163612 -840408009 1526385423 1388639584 1600958066 244623817 -17544953 2082221008 152979104 748700224 -956775230 -1267616791 779207223 989221282 1370434668 -481852448 -713141512 -1180465647 -1678308883 -1475966568 938041078 -664950026 2037155997
REM
CELL 1.54180   50.00000   50.00000   50.00000   90.00000   90.00000   90.00000
LATT -1
SFAC C  
C      1  0.3871240000000  0.5023040000000  0.4468670000000 1.0
C      1  0.4653260000000  0.5404970000000  0.5173390000000 1.0
C      1  0.5106110000000  0.3896280000000  0.4746410000000 1.0
C      1  0.5724380000000  0.5611150000000  0.5535420000000 1.0
C      1  0.3722420000000  0.4809700000000  0.4534340000000 1.0
C      1  0.4458920000000  0.5503770000000  0.4088880000000 1.0
C      1  0.4811150000000  0.5383540000000  0.6015960000000 1.0
C      1  0.4186180000000  0.5201630000000  0.5479550000000 1.0
C      1  0.4723030000000  0.4811700000000  0.4036450000000 1.0
C      1  0.4863940000000  0.5594790000000  0.5176920000000 1.0
C      1  0.4519550000000  0.5335330000000  0.4928990000000 1.0
C      1  0.5837260000000  0.5648570000000  0.4578360000000 1.0
C      1  0.3885890000000  0.4627940000000  0.4668000000000 1.0
C      1  0.4849950000000  0.4774320000000  0.6034890000000 1.0
C      1  0.4442510000000  0.4188080000000  0.4874820000000 1.0
C      1  0.4450000000000  0.5798190000000  0.4757400000000 1.0
C      1  0.5411620000000  0.5885230000000  0.4613330000000 1.0
C      1  0.5648280000000  0.5201720000000  0.4916370000000 1.0
C      1  0.4587670000000  0.5198330000000  0.4515480000000 1.0
C      1  0.5012970000000  0.5459270000000  0.5636220000000 1.0
C      1  0.4443420000000  0.4320810000000  0.5376120000000 1.0
C      1  0.4359210000000  0.5009120000000  0.4486140000000 1.0
C      1  0.4750970000000  0.5813710000000  0.5642230000000 1.0
C      1  0.4973480000000  0.5455390000000  0.4333080000000 1.0
C      1  0.4855080000000  0.5135030000000  0.4666460000000 1.0
C      1  0.4812480000000  0.4912720000000  0.4848880000000 1.0
C      1  0.5077810000000  0.4121750000000  0.4555340000000 1.0
C      1  0.5721310000000  0.4258090000000  0.5175130000000 1.0
C      1  0.4545870000000  0.4566450000000  0.5017290000000 1.0
C      1  0.4047720000000  0.4448420000000  0.4525610000000 1.0
C      1  0.5130610000000  0.5272740000000  0.5440850000000 1.0
C      1  0.4530440000000  0.5512870000000  0.4665760000000 1.0
C      1  0.4991310000000  0.4694680000000  0.4789860000000 1.0
C      1  0.5350940000000  0.4825060000000  0.5896320000000 1.0
C      1  0.4120310000000  0.5428410000000  0.4519390000000 1.0
C      1  0.5692560000000  0.4861480000000  0.4863510000000 1.0
C      1  0.4515950000000  0.4402690000000  0.5860050000000 1.0
C      1  0.5375340000000  0.5023740000000  0.4545700000000 1.0
C      1  0.5793670000000  0.5363400000000  0.5683160000000 1.0
C      1  0.5957720000000  0.4984670000000  0.4453440000000 1.0
C      1  0.3951780000000  0.4652340000000  0.4948640000000 1.0
C      1  0.4551130000000  0.4149300000000  0.5159340000000 1.0
C      1  0.4946060000000  0.5425650000000  0.4847120000000 1.0
C      1  0.4839000000000  0.5580050000000  0.4604310000000 1.0
C      1  0.5216790000000  0.5024130000000  0.5072410000000 1.0
C      1  0.5423080000000  0.5619630000000  0.5513970000000 1.0
C      1  0.5613760000000  0.4975570000000  0.5855610000000 1.0
C      1  0.5633680000000  0.5768160000000  0.4765010000000 1.0
C      1  0.4709650000000  0.4659860000000  0.4385810000000 1.0
C      1  0.5598700000000  0.4157110000000  0.5600320000000 1.0
C      1  0.5371290000000  0.5273270000000  0.5037890000000 1.0
C      1  0.4799140000000  0.6038710000000  0.5020760000000 1.0
C      1  0.5228520000000  0.5452110000000  0.4839850000000 1.0
C      1  0.5521530000000  0.4784740000000  0.5378360000000 1.0
C      1  0.4392160000000  0.5061390000000  0.4988890000000 1.0
C      1  0.5360130000000  0.3941650000000  0.4909940000000 1.0
C      1  0.4148070000000  0.4452200000000  0.5019330000000 1.0
C      1  0.6093890000000  0.4959280000000  0.4708740000000 1.0
C      1  0.4824790000000  0.4424770000000  0.4888260000000 1.0
C      1  0.4043900000000  0.5637900000000  0.4685390000000 1.0
C      1  0.4463280000000  0.4738670000000  0.4578300000000 1.0
C      1  0.4840320000000  0.4648590000000  0.5484700000000 1.0
C      1  0.5572170000000  0.5267680000000  0.4595040000000 1.0
C      1  0.5776640000000  0.4774580000000  0.4347150000000 1.0
C      1  0.4282000000000  0.5494220000000  0.4302940000000 1.0
C      1  0.5074010000000  0.4416120000000  0.5913020000000 1.0
C      1  0.4849770000000  0.4149290000000  0.5078740000000 1.0
C      1  0.6127290000000  0.5294130000000  0.5075720000000 1.0
C      1  0.6064480000000  0.5465880000000  0.4618660000000 1.0
C      1  0.5426490000000  0.4413890000000  0.5574940000000 1.0
C      1  0.5600120000000  0.4025340000000  0.5331670000000 1.0
C      1  0.4032090000000  0.5374040000000  0.5306830000000 1.0
C      1  0.4104150000000  0.5061620000000  0.4901020000000 1.0
C      1  0.4597090000000  0.5204100000000  0.6075830000000 1.0
C      1  0.5309260000000  0.4546470000000  0.4429700000000 1.0
C      1  0.4177100000000  0.5864740000000  0.4750420000000 1.0
C      1  0.5919530000000  0.4525810000000  0.4398940000000 1.0
C      1  0.5335220000000  0.5385360000000  0.5959180000000 1.0
C      1  0.5528210000000  0.4757880000000  0.4523550000000 1.0
C      1  0.4958210000000  0.4527970000000  0.6142420000000 1.0
C      1  0.5597600000000  0.5264370000000  0.5880460000000 1.0
C      1  0.4187990000000  0.4446320000000  0.5305410000000 1.0
C      1  0.4115960000000  0.4713750000000  0.5380670000000 1.0
C      1  0.5324530000000  0.3940250000000  0.5212190000000 1.0
C      1  0.5364690000000  0.5381850000000  0.5324160000000 1.0
C      1  0.4696840000000  0.4025750000000  0.5619090000000 1.0
C      1  0.5149560000000  0.5009590000000  0.5548170000000 1.0
C      1  0.5961700000000  0.4718750000000  0.4871450000000 1.0
C      1  0.5843070000000  0.4981840000000  0.5648460000000 1.0
C      1  0.5089210000000  0.4134550000000  0.5292230000000 1.0
C      1  0.5470600000000  0.4212340000000  0.4811680000000 1.0
C      1  0.4919130000000  0.5673510000000  0.4132560000000 1.0
C      1  0.5048720000000  0.5885410000000  0.4282590000000 1.0
C      1  0.4885610000000  0.4384030000000  0.5683000000000 1.0
C      1  0.5917430000000  0.4413700000000  0.5331040000000 1.0
C      1  0.5668710000000  0.4913900000000  0.4080950000000 1.0
C      1  0.5753060000000  0.4248070000000  0.4736630000000 1.0
C      1  0.6137260000000  0.5241930000000  0.4799070000000 1.0
C      1  0.5213720000000  0.4665600000000  0.4015600000000 1.0
C      1  0.4628360000000  0.4026320000000  0.4704710000000 1.0
C      1  0.5083160000000  0.5241230000000  0.6013940000000 1.0
C      1  0.5247330000000  0.4859120000000  0.5321650000000 1.0
C      1  0.4585980000000  0.4677880000000  0.5887860000000 1.0
C      1  0.5316960000000  0.5737130000000  0.4374260000000 1.0
C      1  0.4481550000000  0.4210670000000  0.5650180000000 1.0
C      1  0.4486200000000  0.5172440000000  0.5805560000000 1.0
C      1  0.5968250000000  0.4692070000000  0.5220450000000 1.0
C      1  0.5586150000000  0.5771680000000  0.5057540000000 1.0
C      1  0.4625270000000  0.6026190000000  0.5243170000000 1.0
C      1  0.5297890000000  0.5460110000000  0.4548440000000 1.0
C      1  0.4379970000000  0.5506460000000  0.5728280000000 1.0
C      1  0.5529260000000  0.5649800000000  0.4182840000000 1.0
C      1  0.5100360000000  0.5993850000000  0.5003860000000 1.0
C      1  0.5921910000000  0.4468830000000  0.4677350000000 1.0
C      1  0.4924540000000  0.4606390000000  0.4002340000000 1.0
C      1  0.4407680000000  0.4873780000000  0.5776600000000 1.0
C      1  0.5832710000000  0.5245180000000  0.4405240000000 1.0
C      1  0.4962950000000  0.4111410000000  0.5561680000000 1.0
C      1  0.5115100000000  0.4950370000000  0.6039130000000 1.0
C      1  0.4807140000000  0.4241860000000  0.4592010000000 1.0
C      1  0.5490240000000  0.5361790000000  0.4114550000000 1.0
C      1  0.4331850000000  0.5674640000000  0.5490050000000 1.0
C      1  0.4896220000000  0.4903520000000  0.5668700000000 1.0
C      1  0.5253810000000  0.5853510000000  0.5424050000000 1.0
C      1  0.5251290000000  0.4838560000000  0.4858180000000 1.0
C      1  0.4104010000000  0.5647840000000  0.5326260000000 1.0
C      1  0.4563170000000  0.5261270000000  0.4005710000000 1.0
C      1  0.4143230000000  0.4804530000000  0.5660690000000 1.0
C      1  0.5782440000000  0.5619010000000  0.5232870000000 1.0
C      1  0.4779100000000  0.5089250000000  0.4029160000000 1.0
C      1  0.5475940000000  0.4680190000000  0.4952670000000 1.0
C      1  0.5461200000000  0.4401090000000  0.5063090000000 1.0
C      1  0.4648010000000  0.5595580000000  0.5832570000000 1.0
C      1  0.5339820000000  0.5919960000000  0.5161160000000 1.0
C      1  0.4430660000000  0.5007960000000  0.5295340000000 1.0
C      1  0.4657500000000  0.5180910000000  0.5350600000000 1.0
C      1  0.4673190000000  0.5994620000000  0.4754050000000 1.0
C      1  0.4909830000000  0.5890880000000  0.4575000000000 1.0
C      1  0.4545560000000  0.4824210000000  0.4856360000000 1.0
C      1  0.5249420000000  0.4394210000000  0.5303260000000 1.0
C      1  0.4554400000000  0.4692580000000  0.5319600000000 1.0
C      1  0.4965180000000  0.5705780000000  0.5446580000000 1.0
C      1  0.4103300000000  0.5134820000000  0.4591460000000 1.0
C      1  0.5734920000000  0.5206370000000  0.4121660000000 1.0
C      1  0.5070010000000  0.4627390000000  0.5294770000000 1.0
C      1  0.3931210000000  0.5218130000000  0.5082430000000 1.0
C      1  0.5294320000000  0.4303730000000  0.4596370000000 1.0
C      1  0.4709720000000  0.4373570000000  0.4338050000000 1.0
C      1  0.5063650000000  0.5019850000000  0.4456730000000 1.0
C      1  0.5785840000000  0.4878420000000  0.5381510000000 1.0
C      1  0.3926930000000  0.4845570000000  0.5176350000000 1.0
C      1  0.5853140000000  0.5347210000000  0.5119370000000 1.0
C      1  0.5263050000000  0.5590460000000  0.5779520000000 1.0
C      1  0.5153100000000  0.5963990000000  0.4730340000000 1.0
C      1  0.5353350000000  0.4462550000000  0.4147850000000 1.0
C      1  0.4020290000000  0.5058220000000  0.5662240000000 1.0
C      1  0.4527310000000  0.5896650000000  0.5473110000000 1.0
C      1  0.4746010000000  0.5180790000000  0.5630680000000 1.0
C      1  0.5777570000000  0.5695440000000  0.4307160000000 1.0
C      1  0.5013020000000  0.5180830000000  0.4192380000000 1.0
C      1  0.4846010000000  0.3907670000000  0.4890750000000 1.0
C      1  0.5004160000000  0.4713510000000  0.4483970000000 1.0
C      1  0.4646820000000  0.5708250000000  0.4083980000000 1.0
C      1  0.5808920000000  0.4367860000000  0.5597030000000 1.0
C      1  0.5325760000000  0.4535090000000  0.5834580000000 1.0
C      1  0.4845580000000  0.4347800000000  0.4092120000000 1.0
C      1  0.5265340000000  0.5184730000000  0.4032520000000 1.0
C      1  0.5373880000000  0.4914770000000  0.4025300000000 1.0
C      1  0.4299650000000  0.4473190000000  0.4661830000000 1.0
END
