TITL C-950535-5962-385 1.23205424174755e-06 125000 -540.256910997121 0 0 89 (C1) n - 1
REM
REM in /home/bkarasulu/work/CARBON/AIRSS/Generating-Clusters/EDIP-Nigel-Params/with-SteepDescent/Only-C1/SD-CG/HFTN-CG
REM
REM
REM
REM
REM
REM ./C.cell (11c1c37f851c82e70ff6c80c92926a4b)
REM
REM compiler GCC version 9.2.1 20190827 (Red Hat 9.2.1-1)
REM options -cpp -mtune=generic -march=x86-64 -g -O0 -fpre-include=/usr/include/finclude/math-vector-fortran.h
REM seed -770249726 -145077280 1363366764 1951417799 -1581706607 -569750420 426005537 685504731 1165040856 1805390585 636594916 1938866478 1621890736 1115048342 -816018845 -1088620278 -1611061706 2012983644 -744929008 -1449934501 459051358 60303901 1638445840 1963219023 -1288642907 -841130813 1673753487 -1155337332 -750871998 2018480330 1075995932 -2072367392 1997924099
REM
CELL 1.54180   50.00000   50.00000   50.00000   90.00000   90.00000   90.00000
LATT -1
SFAC C  
C      1  0.5172900000000  0.5644160000000  0.5580050000000 1.0
C      1  0.4369060000000  0.5417340000000  0.5053890000000 1.0
C      1  0.5323420000000  0.5234990000000  0.5776910000000 1.0
C      1  0.5185970000000  0.4808820000000  0.5407040000000 1.0
C      1  0.4845150000000  0.5831590000000  0.5257140000000 1.0
C      1  0.4693780000000  0.5022520000000  0.5331790000000 1.0
C      1  0.5049710000000  0.5444330000000  0.5092140000000 1.0
C      1  0.4450060000000  0.5035450000000  0.5509190000000 1.0
C      1  0.5039420000000  0.4642600000000  0.4766990000000 1.0
C      1  0.5727820000000  0.5332090000000  0.5032420000000 1.0
C      1  0.4880780000000  0.4220910000000  0.4723430000000 1.0
C      1  0.5522990000000  0.5824700000000  0.4963510000000 1.0
C      1  0.4748340000000  0.5453530000000  0.4967990000000 1.0
C      1  0.5637760000000  0.5109270000000  0.4847460000000 1.0
C      1  0.5516980000000  0.5539560000000  0.4998900000000 1.0
C      1  0.4434960000000  0.5136260000000  0.4922700000000 1.0
C      1  0.4653940000000  0.4380210000000  0.4591390000000 1.0
C      1  0.4209400000000  0.5127070000000  0.5392570000000 1.0
C      1  0.4497850000000  0.4584160000000  0.4752330000000 1.0
C      1  0.4759030000000  0.4533100000000  0.4354810000000 1.0
C      1  0.4265580000000  0.5395100000000  0.5326080000000 1.0
C      1  0.4382260000000  0.4921950000000  0.4298940000000 1.0
C      1  0.5225420000000  0.5648630000000  0.4681100000000 1.0
C      1  0.5654980000000  0.4667370000000  0.5541380000000 1.0
C      1  0.4839850000000  0.4257270000000  0.5019010000000 1.0
C      1  0.5097590000000  0.4481570000000  0.4357200000000 1.0
C      1  0.5589220000000  0.5359760000000  0.5392720000000 1.0
C      1  0.4420680000000  0.5542370000000  0.5510470000000 1.0
C      1  0.5206110000000  0.4948940000000  0.4308830000000 1.0
C      1  0.4632000000000  0.5696560000000  0.5092930000000 1.0
C      1  0.5131190000000  0.4377580000000  0.4646400000000 1.0
C      1  0.5749790000000  0.5120030000000  0.5352580000000 1.0
C      1  0.4496780000000  0.5371070000000  0.4484900000000 1.0
C      1  0.5369220000000  0.4278490000000  0.4814810000000 1.0
C      1  0.4970940000000  0.5035170000000  0.5446810000000 1.0
C      1  0.4908030000000  0.5053440000000  0.5747210000000 1.0
C      1  0.5036190000000  0.5074530000000  0.4091790000000 1.0
C      1  0.4191340000000  0.4674290000000  0.4965090000000 1.0
C      1  0.4723170000000  0.4389890000000  0.5549860000000 1.0
C      1  0.4630700000000  0.4680360000000  0.5003370000000 1.0
C      1  0.4207700000000  0.4946300000000  0.4855250000000 1.0
C      1  0.5313990000000  0.5387100000000  0.5529830000000 1.0
C      1  0.5084620000000  0.5530620000000  0.4285070000000 1.0
C      1  0.4687060000000  0.5512400000000  0.5598520000000 1.0
C      1  0.4672550000000  0.4977750000000  0.5041920000000 1.0
C      1  0.5429150000000  0.4840820000000  0.5599500000000 1.0
C      1  0.5059300000000  0.4187630000000  0.5208800000000 1.0
C      1  0.4929290000000  0.5055570000000  0.4912300000000 1.0
C      1  0.4561220000000  0.5059240000000  0.4111680000000 1.0
C      1  0.5744540000000  0.5044310000000  0.4584330000000 1.0
C      1  0.5769970000000  0.4823750000000  0.5312830000000 1.0
C      1  0.5272950000000  0.5417740000000  0.4879200000000 1.0
C      1  0.4725320000000  0.5300470000000  0.5798770000000 1.0
C      1  0.5327630000000  0.4281910000000  0.5106640000000 1.0
C      1  0.5630280000000  0.4340070000000  0.4743150000000 1.0
C      1  0.4355500000000  0.5104030000000  0.4541890000000 1.0
C      1  0.4944810000000  0.4882770000000  0.4477190000000 1.0
C      1  0.4475380000000  0.5138800000000  0.5783940000000 1.0
C      1  0.4401770000000  0.4593110000000  0.5183680000000 1.0
C      1  0.5313210000000  0.4821080000000  0.5133130000000 1.0
C      1  0.4892710000000  0.5712540000000  0.5536200000000 1.0
C      1  0.5242710000000  0.5874080000000  0.4912660000000 1.0
C      1  0.5164470000000  0.5036760000000  0.5898500000000 1.0
C      1  0.4497240000000  0.4658370000000  0.4285890000000 1.0
C      1  0.5102300000000  0.4563090000000  0.5701690000000 1.0
C      1  0.5531560000000  0.4429070000000  0.5264790000000 1.0
C      1  0.4953000000000  0.5630930000000  0.4535670000000 1.0
C      1  0.5687220000000  0.4764330000000  0.4569640000000 1.0
C      1  0.4916090000000  0.5305850000000  0.4232720000000 1.0
C      1  0.5668500000000  0.4606650000000  0.4814710000000 1.0
C      1  0.4486190000000  0.4430140000000  0.5399310000000 1.0
C      1  0.5181800000000  0.4900100000000  0.4883550000000 1.0
C      1  0.4887070000000  0.4550540000000  0.5018880000000 1.0
C      1  0.5307860000000  0.4673340000000  0.4255800000000 1.0
C      1  0.4621570000000  0.5332600000000  0.4212690000000 1.0
C      1  0.5351290000000  0.5445850000000  0.4377000000000 1.0
C      1  0.5282400000000  0.4769670000000  0.5841120000000 1.0
C      1  0.5574220000000  0.4646420000000  0.4341320000000 1.0
C      1  0.4814470000000  0.4571590000000  0.5760690000000 1.0
C      1  0.4880420000000  0.5137630000000  0.4641890000000 1.0
C      1  0.5395060000000  0.5158340000000  0.4458600000000 1.0
C      1  0.5352300000000  0.5141650000000  0.4765750000000 1.0
C      1  0.5112540000000  0.5275070000000  0.5342760000000 1.0
C      1  0.5112390000000  0.5742480000000  0.5153230000000 1.0
C      1  0.4759310000000  0.5417730000000  0.4651270000000 1.0
C      1  0.4981820000000  0.4269810000000  0.5476260000000 1.0
C      1  0.4806150000000  0.4895770000000  0.4112480000000 1.0
C      1  0.4712710000000  0.4834650000000  0.5807380000000 1.0
C      1  0.5578010000000  0.4682500000000  0.5105750000000 1.0
END
