TITL C-951339-9237-64 -2.29546799865789e-06 125000 -859.291997335863 0 0 139 (C1) n - 1
REM
REM in /home/bkarasulu/work/CARBON/AIRSS/Generating-Clusters/EDIP-Nigel-Params/with-SteepDescent/Only-C1/SD-CG/HFTN-CG
REM
REM
REM
REM
REM
REM ./C.cell (11c1c37f851c82e70ff6c80c92926a4b)
REM
REM compiler GCC version 9.2.1 20190827 (Red Hat 9.2.1-1)
REM options -cpp -mtune=generic -march=x86-64 -g -O0 -fpre-include=/usr/include/finclude/math-vector-fortran.h
REM seed 378743378 -385010611 -136806067 -216556500 187435658 -1983846545 1567600931 -1976562513 -1162657252 -22777236 -506002687 757727819 -2064199895 1736351226 1808942027 1610040186 328572571 1320026875 -1104992816 1234392084 622061138 -113758279 2047240558 22648192 -594904853 1488962626 395192618 242022343 -1224538493 2047343898 -1610128863 1650199643 231535953
REM
CELL 1.54180   50.00000   50.00000   50.00000   90.00000   90.00000   90.00000
LATT -1
SFAC C  
C      1  0.4485660000000  0.5282710000000  0.4790300000000 1.0
C      1  0.5489390000000  0.4850450000000  0.5880490000000 1.0
C      1  0.4768680000000  0.4976150000000  0.5993820000000 1.0
C      1  0.4758910000000  0.4976320000000  0.4563270000000 1.0
C      1  0.4170540000000  0.4411420000000  0.5072110000000 1.0
C      1  0.4410060000000  0.5189220000000  0.5755480000000 1.0
C      1  0.5903540000000  0.5426910000000  0.5344910000000 1.0
C      1  0.5191350000000  0.5767040000000  0.5224320000000 1.0
C      1  0.5004420000000  0.5016400000000  0.4420540000000 1.0
C      1  0.5496750000000  0.5143320000000  0.5914220000000 1.0
C      1  0.5879550000000  0.5251220000000  0.5583590000000 1.0
C      1  0.4308980000000  0.5119140000000  0.5280990000000 1.0
C      1  0.5141840000000  0.4749130000000  0.4492150000000 1.0
C      1  0.5139710000000  0.5189790000000  0.5058220000000 1.0
C      1  0.4328540000000  0.5705330000000  0.5461530000000 1.0
C      1  0.4741590000000  0.4305460000000  0.5640100000000 1.0
C      1  0.4533350000000  0.5190810000000  0.5474380000000 1.0
C      1  0.4315240000000  0.4558480000000  0.5467260000000 1.0
C      1  0.6000770000000  0.5280100000000  0.5101500000000 1.0
C      1  0.5250650000000  0.4804100000000  0.4759360000000 1.0
C      1  0.4893150000000  0.4339330000000  0.4328630000000 1.0
C      1  0.4801370000000  0.6031760000000  0.5081400000000 1.0
C      1  0.5384870000000  0.5067030000000  0.5170870000000 1.0
C      1  0.6040470000000  0.5163730000000  0.4651140000000 1.0
C      1  0.4639570000000  0.4085550000000  0.4622690000000 1.0
C      1  0.5702010000000  0.4197450000000  0.4792460000000 1.0
C      1  0.4810040000000  0.4102300000000  0.5179480000000 1.0
C      1  0.4035830000000  0.4795790000000  0.4587820000000 1.0
C      1  0.4770310000000  0.5366240000000  0.4846540000000 1.0
C      1  0.5000350000000  0.3955950000000  0.4998140000000 1.0
C      1  0.4435790000000  0.5572040000000  0.4397840000000 1.0
C      1  0.4335470000000  0.4883080000000  0.4842030000000 1.0
C      1  0.4892440000000  0.4224400000000  0.5421380000000 1.0
C      1  0.4961420000000  0.5040940000000  0.4122970000000 1.0
C      1  0.4832840000000  0.5022420000000  0.5113670000000 1.0
C      1  0.4856210000000  0.4490630000000  0.5822970000000 1.0
C      1  0.4545250000000  0.4715290000000  0.4248180000000 1.0
C      1  0.5895630000000  0.5156090000000  0.4411250000000 1.0
C      1  0.5353250000000  0.4536820000000  0.4873870000000 1.0
C      1  0.4774390000000  0.5528560000000  0.5108290000000 1.0
C      1  0.5714230000000  0.5290750000000  0.5806680000000 1.0
C      1  0.5675850000000  0.4597470000000  0.4520390000000 1.0
C      1  0.4381100000000  0.4987150000000  0.4279320000000 1.0
C      1  0.5430980000000  0.5605680000000  0.5675140000000 1.0
C      1  0.5991410000000  0.4922680000000  0.4804110000000 1.0
C      1  0.4918950000000  0.5576560000000  0.5672540000000 1.0
C      1  0.5066460000000  0.5474620000000  0.5193520000000 1.0
C      1  0.5942820000000  0.4987440000000  0.5531570000000 1.0
C      1  0.4751000000000  0.4613640000000  0.5412120000000 1.0
C      1  0.4995090000000  0.5095560000000  0.5564170000000 1.0
C      1  0.5549150000000  0.4640240000000  0.5678520000000 1.0
C      1  0.5886880000000  0.4719060000000  0.4650530000000 1.0
C      1  0.5233580000000  0.5160370000000  0.4765520000000 1.0
C      1  0.4263170000000  0.5623510000000  0.4959800000000 1.0
C      1  0.4552470000000  0.5152370000000  0.4482420000000 1.0
C      1  0.5064690000000  0.5374280000000  0.5481190000000 1.0
C      1  0.5553680000000  0.5434610000000  0.4230540000000 1.0
C      1  0.4681010000000  0.4575020000000  0.5104730000000 1.0
C      1  0.4126580000000  0.5050080000000  0.4419300000000 1.0
C      1  0.4701100000000  0.4736640000000  0.5831580000000 1.0
C      1  0.4849790000000  0.5832450000000  0.4583510000000 1.0
C      1  0.5545760000000  0.5520390000000  0.5113850000000 1.0
C      1  0.4024990000000  0.4865680000000  0.4891970000000 1.0
C      1  0.5001810000000  0.5337140000000  0.4626870000000 1.0
C      1  0.5700720000000  0.4215590000000  0.5087530000000 1.0
C      1  0.5328570000000  0.4298730000000  0.5406480000000 1.0
C      1  0.5516440000000  0.3987930000000  0.5051850000000 1.0
C      1  0.5544350000000  0.5281380000000  0.5294630000000 1.0
C      1  0.4575760000000  0.5174610000000  0.5977860000000 1.0
C      1  0.5353660000000  0.4422600000000  0.5676700000000 1.0
C      1  0.5215710000000  0.5863330000000  0.4943750000000 1.0
C      1  0.4745170000000  0.4312190000000  0.4982090000000 1.0
C      1  0.5791180000000  0.5634950000000  0.4634340000000 1.0
C      1  0.4770560000000  0.4978880000000  0.5415420000000 1.0
C      1  0.4903650000000  0.4757390000000  0.5027730000000 1.0
C      1  0.4953280000000  0.5949070000000  0.4852960000000 1.0
C      1  0.5572970000000  0.5519870000000  0.4809530000000 1.0
C      1  0.4485790000000  0.5073380000000  0.5019440000000 1.0
C      1  0.5526980000000  0.4704770000000  0.4289120000000 1.0
C      1  0.5339140000000  0.4833400000000  0.5332560000000 1.0
C      1  0.4811520000000  0.4756750000000  0.4065790000000 1.0
C      1  0.4606820000000  0.4231430000000  0.4356930000000 1.0
C      1  0.5609390000000  0.5199520000000  0.4404780000000 1.0
C      1  0.5668950000000  0.5726140000000  0.5275240000000 1.0
C      1  0.5086530000000  0.4146600000000  0.4459420000000 1.0
C      1  0.5597380000000  0.5684120000000  0.4388420000000 1.0
C      1  0.5524390000000  0.4432130000000  0.5209460000000 1.0
C      1  0.4238520000000  0.5552560000000  0.5235200000000 1.0
C      1  0.4213720000000  0.4295710000000  0.4802310000000 1.0
C      1  0.5126310000000  0.4374710000000  0.5027080000000 1.0
C      1  0.5255150000000  0.4074540000000  0.5164190000000 1.0
C      1  0.4931200000000  0.4035810000000  0.4698900000000 1.0
C      1  0.5234610000000  0.5280540000000  0.5967800000000 1.0
C      1  0.4957220000000  0.5930360000000  0.5299700000000 1.0
C      1  0.4516400000000  0.5717170000000  0.4885950000000 1.0
C      1  0.4469440000000  0.4648240000000  0.4726500000000 1.0
C      1  0.4916330000000  0.4552130000000  0.4531280000000 1.0
C      1  0.5909570000000  0.5003450000000  0.5071320000000 1.0
C      1  0.4094580000000  0.5319730000000  0.5269870000000 1.0
C      1  0.5504420000000  0.5256070000000  0.4690260000000 1.0
C      1  0.4181450000000  0.5394780000000  0.4497740000000 1.0
C      1  0.6013980000000  0.5393970000000  0.4828760000000 1.0
C      1  0.4052410000000  0.4961820000000  0.5527030000000 1.0
C      1  0.4251260000000  0.4946340000000  0.5736580000000 1.0
C      1  0.5047750000000  0.5617080000000  0.4439770000000 1.0
C      1  0.5435280000000  0.5798970000000  0.5438300000000 1.0
C      1  0.5183680000000  0.5571400000000  0.5860680000000 1.0
C      1  0.5299720000000  0.5380990000000  0.4066620000000 1.0
C      1  0.4005640000000  0.4656300000000  0.5106490000000 1.0
C      1  0.4133370000000  0.5445680000000  0.4777610000000 1.0
C      1  0.5099410000000  0.4630950000000  0.5231230000000 1.0
C      1  0.5867310000000  0.4837120000000  0.5311160000000 1.0
C      1  0.4823930000000  0.5320250000000  0.4103470000000 1.0
C      1  0.5023290000000  0.5094540000000  0.6007490000000 1.0
C      1  0.4303140000000  0.4316970000000  0.5311550000000 1.0
C      1  0.5351340000000  0.4273670000000  0.4427270000000 1.0
C      1  0.5133200000000  0.4460110000000  0.5844460000000 1.0
C      1  0.5448700000000  0.4982540000000  0.4272420000000 1.0
C      1  0.5321630000000  0.5763130000000  0.4485620000000 1.0
C      1  0.4110890000000  0.4735700000000  0.5369960000000 1.0
C      1  0.5347950000000  0.5697140000000  0.4758070000000 1.0
C      1  0.4674630000000  0.4710100000000  0.4528840000000 1.0
C      1  0.5264180000000  0.4966600000000  0.5590240000000 1.0
C      1  0.4990090000000  0.4514240000000  0.4093070000000 1.0
C      1  0.4445450000000  0.4127560000000  0.4828710000000 1.0
C      1  0.5259840000000  0.5081710000000  0.4064120000000 1.0
C      1  0.4667940000000  0.5384920000000  0.4343250000000 1.0
C      1  0.4639110000000  0.5481690000000  0.5403570000000 1.0
C      1  0.4389640000000  0.4440720000000  0.4317330000000 1.0
C      1  0.4432770000000  0.4713780000000  0.5700690000000 1.0
C      1  0.4555040000000  0.5775950000000  0.4603070000000 1.0
C      1  0.4246690000000  0.4513040000000  0.4585040000000 1.0
C      1  0.5607200000000  0.4683540000000  0.5377530000000 1.0
C      1  0.4547580000000  0.5864440000000  0.5525210000000 1.0
C      1  0.5370440000000  0.5331330000000  0.5540550000000 1.0
C      1  0.4829590000000  0.5847510000000  0.5550180000000 1.0
C      1  0.5039650000000  0.5521400000000  0.4139790000000 1.0
C      1  0.5518870000000  0.4385640000000  0.4657340000000 1.0
C      1  0.5306860000000  0.4508290000000  0.4236780000000 1.0
END
