TITL C-951337-3020-159 1.19107916119049e-06 125000 -567.893278380423 0 0 90 (C1) n - 1
REM
REM in /home/bkarasulu/work/CARBON/AIRSS/Generating-Clusters/EDIP-Nigel-Params/with-SteepDescent/Only-C1/SD-CG/HFTN-CG
REM
REM
REM
REM
REM
REM ./C.cell (11c1c37f851c82e70ff6c80c92926a4b)
REM
REM compiler GCC version 9.2.1 20190827 (Red Hat 9.2.1-1)
REM options -cpp -mtune=generic -march=x86-64 -g -O0 -fpre-include=/usr/include/finclude/math-vector-fortran.h
REM seed -1937353217 -40473877 1150876175 1705672816 -2129863202 292694830 -956797811 1498320196 -1535962669 -1294183516 -1153593437 -1678954646 -1939050649 -789539277 1653444318 -722534564 1373915433 1704608067 -704737511 -748749658 -597926963 -677909672 714461568 -1440584477 -1138980422 -1600145910 -41829224 -594984785 1044914534 775829828 1414639913 1804289595 1197581630
REM
CELL 1.54180   50.00000   50.00000   50.00000   90.00000   90.00000   90.00000
LATT -1
SFAC C  
C      1  0.4873250000000  0.5337040000000  0.5083660000000 1.0
C      1  0.4373620000000  0.4748360000000  0.5393370000000 1.0
C      1  0.5141070000000  0.5331970000000  0.4957670000000 1.0
C      1  0.5550840000000  0.5597780000000  0.5021790000000 1.0
C      1  0.4706630000000  0.5215800000000  0.4312850000000 1.0
C      1  0.4768050000000  0.5600530000000  0.5500310000000 1.0
C      1  0.5420880000000  0.4277470000000  0.4596380000000 1.0
C      1  0.5114400000000  0.4441420000000  0.5717120000000 1.0
C      1  0.4371900000000  0.5352940000000  0.4568930000000 1.0
C      1  0.5164030000000  0.4852660000000  0.4769770000000 1.0
C      1  0.4864750000000  0.4916950000000  0.4701960000000 1.0
C      1  0.5731120000000  0.5094100000000  0.5296930000000 1.0
C      1  0.5514420000000  0.5236380000000  0.5691970000000 1.0
C      1  0.4410690000000  0.5606570000000  0.4715900000000 1.0
C      1  0.4934430000000  0.4731880000000  0.4270760000000 1.0
C      1  0.5093920000000  0.4695780000000  0.5087950000000 1.0
C      1  0.4401020000000  0.5407320000000  0.5204700000000 1.0
C      1  0.5294460000000  0.4459670000000  0.5498220000000 1.0
C      1  0.5654650000000  0.4604260000000  0.5220180000000 1.0
C      1  0.5589720000000  0.5474930000000  0.4597440000000 1.0
C      1  0.4698600000000  0.4225680000000  0.4823360000000 1.0
C      1  0.4242250000000  0.5174040000000  0.5162130000000 1.0
C      1  0.5304320000000  0.5114940000000  0.4828380000000 1.0
C      1  0.5716390000000  0.5634780000000  0.4796710000000 1.0
C      1  0.4859760000000  0.4366410000000  0.5588930000000 1.0
C      1  0.5569000000000  0.5189820000000  0.4671670000000 1.0
C      1  0.5548280000000  0.4594930000000  0.5486550000000 1.0
C      1  0.4551600000000  0.4754480000000  0.5628030000000 1.0
C      1  0.4684370000000  0.5964570000000  0.4852660000000 1.0
C      1  0.4897160000000  0.4262870000000  0.5312160000000 1.0
C      1  0.4448400000000  0.5324720000000  0.4302480000000 1.0
C      1  0.5494190000000  0.5453870000000  0.5506900000000 1.0
C      1  0.4794180000000  0.4646450000000  0.5496780000000 1.0
C      1  0.5334980000000  0.5557650000000  0.4470990000000 1.0
C      1  0.5164400000000  0.5713810000000  0.4659590000000 1.0
C      1  0.5736410000000  0.4676130000000  0.4656840000000 1.0
C      1  0.5840150000000  0.5129740000000  0.4742310000000 1.0
C      1  0.4386770000000  0.5637320000000  0.5019030000000 1.0
C      1  0.5028810000000  0.4912070000000  0.5311280000000 1.0
C      1  0.4443760000000  0.4951080000000  0.5172010000000 1.0
C      1  0.4960080000000  0.4311260000000  0.4694420000000 1.0
C      1  0.4310420000000  0.4283770000000  0.4829250000000 1.0
C      1  0.5335110000000  0.5220910000000  0.5905200000000 1.0
C      1  0.5587380000000  0.4384400000000  0.5034970000000 1.0
C      1  0.4888350000000  0.5626390000000  0.4574580000000 1.0
C      1  0.5248030000000  0.5613300000000  0.4947750000000 1.0
C      1  0.5259360000000  0.5622560000000  0.5544580000000 1.0
C      1  0.5828280000000  0.4874930000000  0.4846150000000 1.0
C      1  0.4278110000000  0.4875260000000  0.4646390000000 1.0
C      1  0.4188400000000  0.5155450000000  0.4669610000000 1.0
C      1  0.4613560000000  0.5811710000000  0.5081830000000 1.0
C      1  0.5203320000000  0.4855690000000  0.4223670000000 1.0
C      1  0.4683550000000  0.4365050000000  0.5123570000000 1.0
C      1  0.5233300000000  0.5847770000000  0.5381460000000 1.0
C      1  0.5018780000000  0.5477530000000  0.5633990000000 1.0
C      1  0.4809490000000  0.4622790000000  0.5063620000000 1.0
C      1  0.4743660000000  0.4923130000000  0.4421340000000 1.0
C      1  0.4478110000000  0.4278340000000  0.4599170000000 1.0
C      1  0.5657380000000  0.4764080000000  0.5680830000000 1.0
C      1  0.5640680000000  0.4767590000000  0.4409170000000 1.0
C      1  0.5175150000000  0.5344470000000  0.4342960000000 1.0
C      1  0.4408590000000  0.4776730000000  0.4903820000000 1.0
C      1  0.4284150000000  0.4514490000000  0.4994890000000 1.0
C      1  0.5627680000000  0.4425090000000  0.4752250000000 1.0
C      1  0.4645430000000  0.5777370000000  0.4642590000000 1.0
C      1  0.4771380000000  0.5092150000000  0.5243320000000 1.0
C      1  0.4095310000000  0.5195840000000  0.4928300000000 1.0
C      1  0.5331230000000  0.4237610000000  0.5063490000000 1.0
C      1  0.5159280000000  0.4405010000000  0.5239710000000 1.0
C      1  0.5063710000000  0.5258080000000  0.5836870000000 1.0
C      1  0.4502840000000  0.5437140000000  0.5477850000000 1.0
C      1  0.4373810000000  0.4476690000000  0.5268700000000 1.0
C      1  0.4631110000000  0.5021800000000  0.5736860000000 1.0
C      1  0.4906690000000  0.5421470000000  0.4367070000000 1.0
C      1  0.5350220000000  0.4736780000000  0.4451290000000 1.0
C      1  0.5213370000000  0.4184530000000  0.4787440000000 1.0
C      1  0.4833010000000  0.5631380000000  0.5200380000000 1.0
C      1  0.5096020000000  0.5765990000000  0.5155850000000 1.0
C      1  0.4917580000000  0.4996280000000  0.5825820000000 1.0
C      1  0.5626870000000  0.5396470000000  0.5246530000000 1.0
C      1  0.5767960000000  0.4854120000000  0.5126830000000 1.0
C      1  0.4462180000000  0.4790130000000  0.4423210000000 1.0
C      1  0.4691410000000  0.4738230000000  0.4843380000000 1.0
C      1  0.5284320000000  0.4452250000000  0.4398020000000 1.0
C      1  0.4480440000000  0.4508800000000  0.4436910000000 1.0
C      1  0.5042360000000  0.4804250000000  0.5616550000000 1.0
C      1  0.4988760000000  0.4441520000000  0.4419220000000 1.0
C      1  0.4700330000000  0.5214300000000  0.5514480000000 1.0
C      1  0.5234280000000  0.5129760000000  0.4178910000000 1.0
C      1  0.5651570000000  0.5020190000000  0.5568300000000 1.0
END
