TITL C-951348-1603-521 5.02860215276996e-07 125000 -864.515230638925 0 0 140 (C1) n - 1
REM
REM in /home/bkarasulu/work/CARBON/AIRSS/Generating-Clusters/EDIP-Nigel-Params/with-SteepDescent/Only-C1/SD-CG/HFTN-CG
REM
REM
REM
REM
REM
REM ./C.cell (11c1c37f851c82e70ff6c80c92926a4b)
REM
REM compiler GCC version 9.2.1 20190827 (Red Hat 9.2.1-1)
REM options -cpp -mtune=generic -march=x86-64 -g -O0 -fpre-include=/usr/include/finclude/math-vector-fortran.h
REM seed 823209417 2047771980 -2112733733 343010196 810424233 1427635298 -1167678098 -516597192 -1307313557 1469287546 240838667 -821166862 -1465904388 814828171 1603468286 -2092178098 -787166863 -1570776439 -1452149455 -1885940000 -1991236183 220507818 1302418788 -1694149367 1755768557 602004988 1261962141 922142155 -1630496466 1909624086 197281005 -194232406 1968299624
REM
CELL 1.54180   50.00000   50.00000   50.00000   90.00000   90.00000   90.00000
LATT -1
SFAC C  
C      1  0.5281800000000  0.5002650000000  0.5436440000000 1.0
C      1  0.4327850000000  0.5250700000000  0.4342880000000 1.0
C      1  0.4698640000000  0.4086480000000  0.4786850000000 1.0
C      1  0.4275560000000  0.5062510000000  0.5714140000000 1.0
C      1  0.5120610000000  0.5937310000000  0.5124670000000 1.0
C      1  0.4937700000000  0.4866070000000  0.4663120000000 1.0
C      1  0.4740340000000  0.5178000000000  0.5929880000000 1.0
C      1  0.5178490000000  0.4211930000000  0.4389560000000 1.0
C      1  0.5486870000000  0.5649420000000  0.5326000000000 1.0
C      1  0.4908740000000  0.5752920000000  0.4366920000000 1.0
C      1  0.4586850000000  0.4289940000000  0.5024810000000 1.0
C      1  0.4779820000000  0.4104890000000  0.5378590000000 1.0
C      1  0.4564320000000  0.4891170000000  0.5434530000000 1.0
C      1  0.4570930000000  0.5538980000000  0.5693820000000 1.0
C      1  0.4896500000000  0.5113780000000  0.4499360000000 1.0
C      1  0.5794040000000  0.5229630000000  0.5413990000000 1.0
C      1  0.5154190000000  0.5131960000000  0.4210620000000 1.0
C      1  0.4846610000000  0.4712390000000  0.5932560000000 1.0
C      1  0.4427560000000  0.4764070000000  0.4234890000000 1.0
C      1  0.5656400000000  0.5518310000000  0.4854720000000 1.0
C      1  0.5747190000000  0.4717140000000  0.4506340000000 1.0
C      1  0.5740640000000  0.4988160000000  0.4912250000000 1.0
C      1  0.5442870000000  0.4319320000000  0.4479930000000 1.0
C      1  0.4598380000000  0.4441440000000  0.4477650000000 1.0
C      1  0.5235520000000  0.5102740000000  0.5921670000000 1.0
C      1  0.5453000000000  0.5508920000000  0.5786390000000 1.0
C      1  0.4981190000000  0.5514600000000  0.4805300000000 1.0
C      1  0.4053320000000  0.4984620000000  0.4667640000000 1.0
C      1  0.5052340000000  0.4756190000000  0.5428660000000 1.0
C      1  0.5888130000000  0.5518940000000  0.5050440000000 1.0
C      1  0.5772810000000  0.5412190000000  0.4608950000000 1.0
C      1  0.6150330000000  0.4830420000000  0.4904310000000 1.0
C      1  0.4987410000000  0.6010240000000  0.4870850000000 1.0
C      1  0.4147610000000  0.4841900000000  0.5176250000000 1.0
C      1  0.4955190000000  0.5374330000000  0.5925810000000 1.0
C      1  0.4633660000000  0.4614520000000  0.5377960000000 1.0
C      1  0.4158470000000  0.4634050000000  0.5411860000000 1.0
C      1  0.4812040000000  0.4584320000000  0.4672040000000 1.0
C      1  0.4433670000000  0.4949560000000  0.5161880000000 1.0
C      1  0.4412750000000  0.5770600000000  0.5168740000000 1.0
C      1  0.4727360000000  0.5081650000000  0.4102230000000 1.0
C      1  0.4657410000000  0.5934560000000  0.5212790000000 1.0
C      1  0.4389610000000  0.5749600000000  0.5648960000000 1.0
C      1  0.3972450000000  0.5069050000000  0.5266580000000 1.0
C      1  0.4925380000000  0.5847970000000  0.5320860000000 1.0
C      1  0.5033320000000  0.5728590000000  0.5574100000000 1.0
C      1  0.5720590000000  0.4202210000000  0.5469830000000 1.0
C      1  0.4236680000000  0.4762430000000  0.5691150000000 1.0
C      1  0.5372860000000  0.4715350000000  0.4151010000000 1.0
C      1  0.4088520000000  0.4773710000000  0.4872970000000 1.0
C      1  0.4598920000000  0.4802080000000  0.4928920000000 1.0
C      1  0.5741460000000  0.5490680000000  0.5299980000000 1.0
C      1  0.4742700000000  0.4483570000000  0.5784390000000 1.0
C      1  0.4620730000000  0.5227840000000  0.4597660000000 1.0
C      1  0.4797900000000  0.5367620000000  0.4092510000000 1.0
C      1  0.4212370000000  0.5556240000000  0.4635460000000 1.0
C      1  0.5454500000000  0.4216290000000  0.5395320000000 1.0
C      1  0.4274300000000  0.5280000000000  0.4893580000000 1.0
C      1  0.5327250000000  0.4527690000000  0.4786860000000 1.0
C      1  0.5081940000000  0.4237670000000  0.5082860000000 1.0
C      1  0.5301170000000  0.5570430000000  0.5545270000000 1.0
C      1  0.5329170000000  0.5531250000000  0.4434490000000 1.0
C      1  0.5019060000000  0.4930400000000  0.4946990000000 1.0
C      1  0.4721810000000  0.4372060000000  0.4209550000000 1.0
C      1  0.4733210000000  0.4569900000000  0.5104900000000 1.0
C      1  0.5856870000000  0.4390880000000  0.5319800000000 1.0
C      1  0.5509670000000  0.5775260000000  0.4843340000000 1.0
C      1  0.6105510000000  0.5334840000000  0.5001540000000 1.0
C      1  0.5643340000000  0.5142330000000  0.4255840000000 1.0
C      1  0.4531790000000  0.5270680000000  0.5348300000000 1.0
C      1  0.4845940000000  0.4991450000000  0.5474570000000 1.0
C      1  0.5919810000000  0.4846740000000  0.5109230000000 1.0
C      1  0.5816190000000  0.4381560000000  0.4877920000000 1.0
C      1  0.5635900000000  0.4785640000000  0.5571670000000 1.0
C      1  0.4334290000000  0.5716400000000  0.4877280000000 1.0
C      1  0.5877120000000  0.5133500000000  0.4672460000000 1.0
C      1  0.5390870000000  0.4930540000000  0.5179660000000 1.0
C      1  0.4338640000000  0.4336260000000  0.4825160000000 1.0
C      1  0.5039040000000  0.4669670000000  0.5130040000000 1.0
C      1  0.4457190000000  0.5047350000000  0.4191640000000 1.0
C      1  0.4270470000000  0.4601030000000  0.4723950000000 1.0
C      1  0.5402990000000  0.4994030000000  0.4481820000000 1.0
C      1  0.5082920000000  0.4662480000000  0.6071890000000 1.0
C      1  0.5357580000000  0.4706190000000  0.5670340000000 1.0
C      1  0.5084050000000  0.5390200000000  0.4070620000000 1.0
C      1  0.4923240000000  0.4013050000000  0.5156020000000 1.0
C      1  0.4266500000000  0.5687550000000  0.5407330000000 1.0
C      1  0.4263750000000  0.4622070000000  0.4431860000000 1.0
C      1  0.5457630000000  0.5226300000000  0.5777610000000 1.0
C      1  0.4923970000000  0.5167300000000  0.5133610000000 1.0
C      1  0.4671970000000  0.5312280000000  0.5082490000000 1.0
C      1  0.5162500000000  0.5397870000000  0.5123940000000 1.0
C      1  0.4857260000000  0.4811020000000  0.4021480000000 1.0
C      1  0.5605860000000  0.5419510000000  0.4371100000000 1.0
C      1  0.4700070000000  0.6008770000000  0.4925730000000 1.0
C      1  0.5424690000000  0.5315480000000  0.4952150000000 1.0
C      1  0.4491200000000  0.4190610000000  0.4605120000000 1.0
C      1  0.5509430000000  0.4593140000000  0.4388140000000 1.0
C      1  0.5669100000000  0.5080650000000  0.5625890000000 1.0
C      1  0.5528490000000  0.4291520000000  0.4856480000000 1.0
C      1  0.4098210000000  0.5314440000000  0.5135210000000 1.0
C      1  0.4571540000000  0.5811170000000  0.4756180000000 1.0
C      1  0.5153940000000  0.5636500000000  0.4217210000000 1.0
C      1  0.4629370000000  0.4620160000000  0.4074630000000 1.0
C      1  0.4679000000000  0.5454050000000  0.4815440000000 1.0
C      1  0.4410710000000  0.4437740000000  0.5446970000000 1.0
C      1  0.4500540000000  0.5265070000000  0.5788170000000 1.0
C      1  0.5030710000000  0.4124560000000  0.4624170000000 1.0
C      1  0.5372230000000  0.4197870000000  0.5115650000000 1.0
C      1  0.5057230000000  0.4258000000000  0.5754290000000 1.0
C      1  0.4251950000000  0.5393310000000  0.5378750000000 1.0
C      1  0.5278600000000  0.4809700000000  0.5934840000000 1.0
C      1  0.5833010000000  0.4977160000000  0.4423560000000 1.0
C      1  0.5974170000000  0.4290490000000  0.5088530000000 1.0
C      1  0.4500000000000  0.4178090000000  0.5299290000000 1.0
C      1  0.4697980000000  0.5548810000000  0.4306080000000 1.0
C      1  0.5264560000000  0.4143330000000  0.5595510000000 1.0
C      1  0.5581510000000  0.5127670000000  0.5107770000000 1.0
C      1  0.5335130000000  0.5780270000000  0.4608000000000 1.0
C      1  0.5429520000000  0.4634690000000  0.5104970000000 1.0
C      1  0.5042030000000  0.4371580000000  0.4801620000000 1.0
C      1  0.5285970000000  0.5132150000000  0.4742290000000 1.0
C      1  0.5113720000000  0.5326500000000  0.4605240000000 1.0
C      1  0.5907690000000  0.4618620000000  0.4733480000000 1.0
C      1  0.5036970000000  0.5790340000000  0.4666910000000 1.0
C      1  0.4432590000000  0.5012870000000  0.4731080000000 1.0
C      1  0.4402690000000  0.5528390000000  0.4374400000000 1.0
C      1  0.4893680000000  0.4971080000000  0.5791460000000 1.0
C      1  0.4849650000000  0.5597270000000  0.5767880000000 1.0
C      1  0.5093200000000  0.4648110000000  0.4120050000000 1.0
C      1  0.4027450000000  0.5278180000000  0.4699150000000 1.0
C      1  0.5209420000000  0.5313210000000  0.5419940000000 1.0
C      1  0.4072960000000  0.5205890000000  0.5560950000000 1.0
C      1  0.4940880000000  0.4333190000000  0.5489910000000 1.0
C      1  0.5727610000000  0.4661140000000  0.5288510000000 1.0
C      1  0.6151970000000  0.5124480000000  0.4804970000000 1.0
C      1  0.5405140000000  0.5006020000000  0.4092230000000 1.0
C      1  0.5367550000000  0.5787800000000  0.5098090000000 1.0
C      1  0.5015000000000  0.4387160000000  0.4210640000000 1.0
C      1  0.4447090000000  0.4462640000000  0.5747410000000 1.0
END
