TITL C-950527-2551-140 -1.09934151397931e-06 125000 -885.25706686752 0 0 140 (C1) n - 1
REM
REM in /home/bkarasulu/work/CARBON/AIRSS/Generating-Clusters/EDIP-Nigel-Params/with-SteepDescent/Only-C1/SD-CG/HFTN-CG
REM
REM
REM
REM
REM
REM ./C.cell (11c1c37f851c82e70ff6c80c92926a4b)
REM
REM compiler GCC version 9.2.1 20190827 (Red Hat 9.2.1-1)
REM options -cpp -mtune=generic -march=x86-64 -g -O0 -fpre-include=/usr/include/finclude/math-vector-fortran.h
REM seed 36883163 -1839797920 -1717228843 -108931479 1365307529 -1349016409 -765621147 572613586 179776130 1037891881 -1264671873 -1858410658 1141854915 -1148378814 873849179 -258470455 -500656962 1639747655 598426316 -753012370 -692378828 1268344277 195247329 1446554825 515064814 1756368731 1292014566 -595326718 -159157297 -852786686 2091207543 1780634783 -2039033587
REM
CELL 1.54180   50.00000   50.00000   50.00000   90.00000   90.00000   90.00000
LATT -1
SFAC C  
C      1  0.5403190000000  0.4358400000000  0.4616560000000 1.0
C      1  0.4583610000000  0.5046750000000  0.4269370000000 1.0
C      1  0.5212830000000  0.5167830000000  0.6024290000000 1.0
C      1  0.4178310000000  0.5069500000000  0.5527780000000 1.0
C      1  0.4305330000000  0.5412200000000  0.5237030000000 1.0
C      1  0.3992530000000  0.4442010000000  0.4880120000000 1.0
C      1  0.5801480000000  0.5468030000000  0.5434550000000 1.0
C      1  0.4897090000000  0.5461580000000  0.5335650000000 1.0
C      1  0.4653870000000  0.5058380000000  0.5331450000000 1.0
C      1  0.4783660000000  0.5735980000000  0.5452180000000 1.0
C      1  0.4735130000000  0.4099230000000  0.5173320000000 1.0
C      1  0.5605150000000  0.4970510000000  0.5301890000000 1.0
C      1  0.5056240000000  0.5008780000000  0.4520630000000 1.0
C      1  0.4790610000000  0.5467020000000  0.4601600000000 1.0
C      1  0.4159480000000  0.4786770000000  0.4504040000000 1.0
C      1  0.5411800000000  0.4558350000000  0.4177540000000 1.0
C      1  0.5919510000000  0.4836840000000  0.4722190000000 1.0
C      1  0.5011490000000  0.5918380000000  0.5524330000000 1.0
C      1  0.4775030000000  0.5490270000000  0.4159910000000 1.0
C      1  0.4523320000000  0.5227120000000  0.5117340000000 1.0
C      1  0.5839630000000  0.4506130000000  0.5259400000000 1.0
C      1  0.4960920000000  0.4881060000000  0.5808510000000 1.0
C      1  0.5228920000000  0.5881400000000  0.4810210000000 1.0
C      1  0.4470900000000  0.4533620000000  0.5240110000000 1.0
C      1  0.6022180000000  0.4580740000000  0.4648210000000 1.0
C      1  0.4026630000000  0.5144980000000  0.4482840000000 1.0
C      1  0.4752710000000  0.4439420000000  0.4794050000000 1.0
C      1  0.4047880000000  0.5303900000000  0.5129440000000 1.0
C      1  0.4009730000000  0.5402660000000  0.4595380000000 1.0
C      1  0.5417910000000  0.5142060000000  0.5796100000000 1.0
C      1  0.5537270000000  0.4354970000000  0.4348460000000 1.0
C      1  0.4955500000000  0.4544620000000  0.4592230000000 1.0
C      1  0.4696740000000  0.4270410000000  0.4371580000000 1.0
C      1  0.5114960000000  0.4523130000000  0.4177010000000 1.0
C      1  0.5481710000000  0.5067420000000  0.4726770000000 1.0
C      1  0.5278730000000  0.4636900000000  0.5466950000000 1.0
C      1  0.4535200000000  0.4846210000000  0.5833770000000 1.0
C      1  0.5381000000000  0.5044030000000  0.5044690000000 1.0
C      1  0.5303440000000  0.5768490000000  0.4537710000000 1.0
C      1  0.4904160000000  0.4429360000000  0.5071560000000 1.0
C      1  0.4127660000000  0.4991750000000  0.4712900000000 1.0
C      1  0.4398640000000  0.5018290000000  0.4885540000000 1.0
C      1  0.5807650000000  0.5012450000000  0.4529250000000 1.0
C      1  0.4467900000000  0.4568100000000  0.4779040000000 1.0
C      1  0.5424640000000  0.5843970000000  0.5284210000000 1.0
C      1  0.4388190000000  0.4141150000000  0.4865040000000 1.0
C      1  0.5357900000000  0.4583140000000  0.5175200000000 1.0
C      1  0.5878810000000  0.4334320000000  0.4668790000000 1.0
C      1  0.3902770000000  0.4776860000000  0.5238060000000 1.0
C      1  0.5204150000000  0.5442900000000  0.4860250000000 1.0
C      1  0.5203790000000  0.4139640000000  0.4623900000000 1.0
C      1  0.5169610000000  0.5987110000000  0.5286130000000 1.0
C      1  0.5535420000000  0.4155540000000  0.5244350000000 1.0
C      1  0.5826160000000  0.5292900000000  0.4571900000000 1.0
C      1  0.4445260000000  0.4720740000000  0.4531200000000 1.0
C      1  0.4560280000000  0.4546070000000  0.4300010000000 1.0
C      1  0.5256030000000  0.5526990000000  0.4100570000000 1.0
C      1  0.5897000000000  0.5213000000000  0.5045760000000 1.0
C      1  0.4288220000000  0.4590390000000  0.5479660000000 1.0
C      1  0.5814790000000  0.5214040000000  0.5321870000000 1.0
C      1  0.5542890000000  0.4866070000000  0.5821940000000 1.0
C      1  0.5603210000000  0.5358110000000  0.5824790000000 1.0
C      1  0.4681350000000  0.5633270000000  0.5722740000000 1.0
C      1  0.5365270000000  0.5633170000000  0.5503090000000 1.0
C      1  0.4863500000000  0.5762030000000  0.4592110000000 1.0
C      1  0.5028050000000  0.5324930000000  0.4115240000000 1.0
C      1  0.5683950000000  0.5666350000000  0.4836410000000 1.0
C      1  0.5776820000000  0.5382180000000  0.4840000000000 1.0
C      1  0.4568180000000  0.5354260000000  0.5690070000000 1.0
C      1  0.4983450000000  0.4787360000000  0.4145090000000 1.0
C      1  0.5152570000000  0.3921510000000  0.5380630000000 1.0
C      1  0.4591290000000  0.5867880000000  0.5245500000000 1.0
C      1  0.5459320000000  0.5341530000000  0.4229280000000 1.0
C      1  0.4922120000000  0.5340660000000  0.4843960000000 1.0
C      1  0.5159890000000  0.4875920000000  0.6044920000000 1.0
C      1  0.4770520000000  0.5255350000000  0.5500290000000 1.0
C      1  0.5823760000000  0.4368950000000  0.4385660000000 1.0
C      1  0.5920350000000  0.4932490000000  0.4992410000000 1.0
C      1  0.5168070000000  0.5763700000000  0.4268100000000 1.0
C      1  0.4236070000000  0.4368220000000  0.4761590000000 1.0
C      1  0.5736410000000  0.4463240000000  0.5533890000000 1.0
C      1  0.5214460000000  0.5392770000000  0.5366630000000 1.0
C      1  0.4901310000000  0.5038830000000  0.4773110000000 1.0
C      1  0.5068230000000  0.5287080000000  0.4426430000000 1.0
C      1  0.5124080000000  0.5029730000000  0.4033480000000 1.0
C      1  0.4378360000000  0.5694440000000  0.5122760000000 1.0
C      1  0.4833120000000  0.4467610000000  0.5588680000000 1.0
C      1  0.5288060000000  0.4016960000000  0.5151210000000 1.0
C      1  0.4422580000000  0.5704860000000  0.4819820000000 1.0
C      1  0.4948640000000  0.5585540000000  0.5856750000000 1.0
C      1  0.5591060000000  0.5698340000000  0.4551270000000 1.0
C      1  0.5396790000000  0.4727280000000  0.6014930000000 1.0
C      1  0.4769290000000  0.4646650000000  0.5824550000000 1.0
C      1  0.5036770000000  0.5946500000000  0.5031020000000 1.0
C      1  0.5415060000000  0.5055010000000  0.4110050000000 1.0
C      1  0.5480020000000  0.4830370000000  0.4295650000000 1.0
C      1  0.4664600000000  0.4150200000000  0.4716860000000 1.0
C      1  0.4769580000000  0.4582530000000  0.5309140000000 1.0
C      1  0.4033050000000  0.5041010000000  0.5270270000000 1.0
C      1  0.5347270000000  0.5336690000000  0.4604920000000 1.0
C      1  0.5451080000000  0.5785860000000  0.4988960000000 1.0
C      1  0.5096150000000  0.4891760000000  0.5519150000000 1.0
C      1  0.4366800000000  0.4848710000000  0.5592000000000 1.0
C      1  0.4884940000000  0.4873850000000  0.5289600000000 1.0
C      1  0.4763960000000  0.5402690000000  0.5074770000000 1.0
C      1  0.4997790000000  0.4329360000000  0.4396140000000 1.0
C      1  0.4473020000000  0.4224630000000  0.5146330000000 1.0
C      1  0.4012830000000  0.4598550000000  0.5422120000000 1.0
C      1  0.5562620000000  0.4725930000000  0.5554960000000 1.0
C      1  0.5277850000000  0.5135960000000  0.5522820000000 1.0
C      1  0.5623760000000  0.4349550000000  0.4812990000000 1.0
C      1  0.4427620000000  0.4737110000000  0.5009410000000 1.0
C      1  0.4747220000000  0.5993350000000  0.5016210000000 1.0
C      1  0.5928570000000  0.4772390000000  0.5224610000000 1.0
C      1  0.4527610000000  0.5328740000000  0.4221010000000 1.0
C      1  0.4692990000000  0.4792100000000  0.4169950000000 1.0
C      1  0.5603610000000  0.4206060000000  0.5521050000000 1.0
C      1  0.3857390000000  0.4646700000000  0.4994880000000 1.0
C      1  0.4643910000000  0.5899870000000  0.4752390000000 1.0
C      1  0.4298220000000  0.5343910000000  0.5541450000000 1.0
C      1  0.5145580000000  0.4620780000000  0.4987560000000 1.0
C      1  0.5122040000000  0.4400930000000  0.5602020000000 1.0
C      1  0.3972010000000  0.5377680000000  0.4870340000000 1.0
C      1  0.5593300000000  0.4407040000000  0.5106710000000 1.0
C      1  0.5165940000000  0.4126530000000  0.5561210000000 1.0
C      1  0.4342230000000  0.5444380000000  0.4419810000000 1.0
C      1  0.4848010000000  0.4018050000000  0.4920120000000 1.0
C      1  0.5326430000000  0.5329590000000  0.5099190000000 1.0
C      1  0.4673640000000  0.5129840000000  0.5910320000000 1.0
C      1  0.5062060000000  0.4905960000000  0.5028880000000 1.0
C      1  0.4490560000000  0.5453430000000  0.4666040000000 1.0
C      1  0.5167340000000  0.5750560000000  0.5713610000000 1.0
C      1  0.5621740000000  0.5546420000000  0.5625040000000 1.0
C      1  0.4960830000000  0.5299360000000  0.5947350000000 1.0
C      1  0.4863840000000  0.5763120000000  0.4285970000000 1.0
C      1  0.4605380000000  0.5023730000000  0.4655850000000 1.0
C      1  0.5126420000000  0.4085130000000  0.4903030000000 1.0
C      1  0.5228070000000  0.4603540000000  0.4690000000000 1.0
C      1  0.5690070000000  0.5472180000000  0.4382930000000 1.0
C      1  0.5316550000000  0.4870300000000  0.4557600000000 1.0
END
