TITL C-950531-5884-454 -6.55911328681046e-06 125000 -724.932171295081 0 0 116 (C1) n - 1
REM
REM in /home/bkarasulu/work/CARBON/AIRSS/Generating-Clusters/EDIP-Nigel-Params/with-SteepDescent/Only-C1/SD-CG/HFTN-CG
REM
REM
REM
REM
REM
REM ./C.cell (11c1c37f851c82e70ff6c80c92926a4b)
REM
REM compiler GCC version 9.2.1 20190827 (Red Hat 9.2.1-1)
REM options -cpp -mtune=generic -march=x86-64 -g -O0 -fpre-include=/usr/include/finclude/math-vector-fortran.h
REM seed 1427022688 -1376500083 -1316415544 447936898 1712639356 -1814982618 700827294 1509979127 1133943637 -110129729 -168002 1207087168 -611134413 1592482027 -1078549713 1023054573 -765054378 -695485273 1649510641 1382122968 1302030328 1900529282 -1465378871 -122033510 181434069 1991350704 1807788982 497590912 -1907501757 -478360934 2039590698 -97089241 -465876575
REM
CELL 1.54180   50.00000   50.00000   50.00000   90.00000   90.00000   90.00000
LATT -1
SFAC C  
C      1  0.4830760000000  0.5405010000000  0.5211890000000 1.0
C      1  0.4804270000000  0.4767460000000  0.5264810000000 1.0
C      1  0.4606400000000  0.4320230000000  0.4526410000000 1.0
C      1  0.5237340000000  0.5571710000000  0.4317970000000 1.0
C      1  0.5330570000000  0.4350980000000  0.4255420000000 1.0
C      1  0.5441580000000  0.4401280000000  0.4509580000000 1.0
C      1  0.5146780000000  0.5932230000000  0.4624030000000 1.0
C      1  0.4608890000000  0.5002920000000  0.5585680000000 1.0
C      1  0.5706570000000  0.5033000000000  0.5276560000000 1.0
C      1  0.4098060000000  0.5108180000000  0.4962190000000 1.0
C      1  0.4533260000000  0.4983080000000  0.5107010000000 1.0
C      1  0.4934210000000  0.4535960000000  0.5091300000000 1.0
C      1  0.5716750000000  0.4674700000000  0.4978730000000 1.0
C      1  0.4911870000000  0.4614510000000  0.4234000000000 1.0
C      1  0.4793970000000  0.4242100000000  0.5093530000000 1.0
C      1  0.5253880000000  0.4149250000000  0.4934780000000 1.0
C      1  0.4920740000000  0.4922330000000  0.4471970000000 1.0
C      1  0.5355880000000  0.4655360000000  0.4640310000000 1.0
C      1  0.4926820000000  0.5306410000000  0.4956580000000 1.0
C      1  0.5736960000000  0.5532350000000  0.5255910000000 1.0
C      1  0.5049800000000  0.5182910000000  0.4557270000000 1.0
C      1  0.5356310000000  0.5128400000000  0.4663110000000 1.0
C      1  0.5321830000000  0.5975890000000  0.4844270000000 1.0
C      1  0.4171470000000  0.4646640000000  0.5059800000000 1.0
C      1  0.4867100000000  0.5848120000000  0.5404310000000 1.0
C      1  0.4997140000000  0.5622290000000  0.5587840000000 1.0
C      1  0.5212360000000  0.4668420000000  0.5715350000000 1.0
C      1  0.5236320000000  0.4546960000000  0.5129840000000 1.0
C      1  0.5864420000000  0.4919560000000  0.5047790000000 1.0
C      1  0.5099390000000  0.4007640000000  0.5420490000000 1.0
C      1  0.4220330000000  0.4826010000000  0.4567580000000 1.0
C      1  0.4887770000000  0.4278510000000  0.4628090000000 1.0
C      1  0.4397810000000  0.5410780000000  0.5417280000000 1.0
C      1  0.5215640000000  0.4598170000000  0.4174720000000 1.0
C      1  0.4255960000000  0.5098100000000  0.4709450000000 1.0
C      1  0.5233460000000  0.5182460000000  0.5388210000000 1.0
C      1  0.5632070000000  0.4795060000000  0.5466960000000 1.0
C      1  0.4569110000000  0.4457150000000  0.5609770000000 1.0
C      1  0.5489610000000  0.4885810000000  0.4501160000000 1.0
C      1  0.5327290000000  0.4104830000000  0.5229730000000 1.0
C      1  0.5380680000000  0.4861520000000  0.4214520000000 1.0
C      1  0.4612980000000  0.4522180000000  0.4303190000000 1.0
C      1  0.4426450000000  0.5659570000000  0.5250540000000 1.0
C      1  0.4328540000000  0.4429160000000  0.5474360000000 1.0
C      1  0.4940840000000  0.5268410000000  0.5905100000000 1.0
C      1  0.4552090000000  0.5075140000000  0.4800660000000 1.0
C      1  0.4939460000000  0.4747690000000  0.5788020000000 1.0
C      1  0.4903250000000  0.4992500000000  0.5916240000000 1.0
C      1  0.5507800000000  0.5452710000000  0.5067390000000 1.0
C      1  0.5540740000000  0.5378340000000  0.4688350000000 1.0
C      1  0.4728380000000  0.4715760000000  0.5571930000000 1.0
C      1  0.5823480000000  0.5301570000000  0.4742110000000 1.0
C      1  0.4818860000000  0.4089260000000  0.5349000000000 1.0
C      1  0.5066920000000  0.4679260000000  0.4584920000000 1.0
C      1  0.5544670000000  0.5599160000000  0.5650810000000 1.0
C      1  0.5144550000000  0.5853160000000  0.5057220000000 1.0
C      1  0.5635920000000  0.5319130000000  0.5650860000000 1.0
C      1  0.4338830000000  0.5050360000000  0.5675980000000 1.0
C      1  0.4804370000000  0.4996930000000  0.4054710000000 1.0
C      1  0.5295870000000  0.5138970000000  0.4096900000000 1.0
C      1  0.5246130000000  0.4400980000000  0.5605820000000 1.0
C      1  0.5264040000000  0.5603300000000  0.5163170000000 1.0
C      1  0.4690910000000  0.5725450000000  0.4599010000000 1.0
C      1  0.4520340000000  0.5010350000000  0.4192590000000 1.0
C      1  0.4504750000000  0.4295450000000  0.5018050000000 1.0
C      1  0.5788020000000  0.4823150000000  0.4568030000000 1.0
C      1  0.5844170000000  0.4532640000000  0.4642830000000 1.0
C      1  0.4781080000000  0.5448080000000  0.5734840000000 1.0
C      1  0.5001440000000  0.5386300000000  0.4336870000000 1.0
C      1  0.4205040000000  0.5598730000000  0.4627770000000 1.0
C      1  0.4222260000000  0.4598520000000  0.4765120000000 1.0
C      1  0.4144150000000  0.5026510000000  0.5450020000000 1.0
C      1  0.5100550000000  0.4165270000000  0.5677830000000 1.0
C      1  0.5325420000000  0.5731380000000  0.4539530000000 1.0
C      1  0.4427690000000  0.5751790000000  0.4705810000000 1.0
C      1  0.4454540000000  0.4416860000000  0.4760020000000 1.0
C      1  0.4229750000000  0.4927470000000  0.5157280000000 1.0
C      1  0.4115290000000  0.5313310000000  0.5384200000000 1.0
C      1  0.5482790000000  0.4190710000000  0.4721740000000 1.0
C      1  0.4735030000000  0.5312050000000  0.4740710000000 1.0
C      1  0.5899820000000  0.5024390000000  0.4771790000000 1.0
C      1  0.5407700000000  0.4710420000000  0.4940710000000 1.0
C      1  0.4999500000000  0.5217350000000  0.4079180000000 1.0
C      1  0.5650200000000  0.4501410000000  0.5381280000000 1.0
C      1  0.5658210000000  0.5744740000000  0.5432870000000 1.0
C      1  0.5431670000000  0.4862560000000  0.5673450000000 1.0
C      1  0.5320590000000  0.5008770000000  0.4942990000000 1.0
C      1  0.5261280000000  0.5611030000000  0.5766250000000 1.0
C      1  0.5093870000000  0.5448840000000  0.5352770000000 1.0
C      1  0.4868480000000  0.4564830000000  0.4780500000000 1.0
C      1  0.4728880000000  0.4216010000000  0.5598270000000 1.0
C      1  0.4555300000000  0.4997970000000  0.3907510000000 1.0
C      1  0.4064240000000  0.5368650000000  0.5095640000000 1.0
C      1  0.5046180000000  0.6021770000000  0.5271940000000 1.0
C      1  0.4214540000000  0.5334260000000  0.4552640000000 1.0
C      1  0.4334710000000  0.4449510000000  0.5197590000000 1.0
C      1  0.5019940000000  0.4980320000000  0.5284440000000 1.0
C      1  0.4662300000000  0.4854450000000  0.4625950000000 1.0
C      1  0.4613350000000  0.5193210000000  0.5324820000000 1.0
C      1  0.5440380000000  0.5389350000000  0.4209000000000 1.0
C      1  0.5376560000000  0.5158430000000  0.5666090000000 1.0
C      1  0.5376070000000  0.4385160000000  0.5343320000000 1.0
C      1  0.4712440000000  0.5686600000000  0.5204310000000 1.0
C      1  0.4958010000000  0.4117100000000  0.4867740000000 1.0
C      1  0.5033120000000  0.5037450000000  0.4998340000000 1.0
C      1  0.5755170000000  0.4287940000000  0.4799310000000 1.0
C      1  0.5810530000000  0.5282440000000  0.5413350000000 1.0
C      1  0.5223870000000  0.5331060000000  0.5874520000000 1.0
C      1  0.5654150000000  0.5377500000000  0.4404340000000 1.0
C      1  0.4742350000000  0.5512900000000  0.4412290000000 1.0
C      1  0.4250170000000  0.5596100000000  0.5012070000000 1.0
C      1  0.5803120000000  0.4444860000000  0.5143890000000 1.0
C      1  0.5449860000000  0.5166290000000  0.5166090000000 1.0
C      1  0.4473700000000  0.4786920000000  0.4396560000000 1.0
C      1  0.4906020000000  0.5841360000000  0.4746560000000 1.0
C      1  0.4484920000000  0.5406280000000  0.5705960000000 1.0
END
