TITL C-950534-5965-675 -1.58829245748704e-06 125000 -513.44065598434 0 0 84 (C1) n - 1
REM
REM in /home/bkarasulu/work/CARBON/AIRSS/Generating-Clusters/EDIP-Nigel-Params/with-SteepDescent/Only-C1/SD-CG/HFTN-CG
REM
REM
REM
REM
REM
REM ./C.cell (11c1c37f851c82e70ff6c80c92926a4b)
REM
REM compiler GCC version 9.2.1 20190827 (Red Hat 9.2.1-1)
REM options -cpp -mtune=generic -march=x86-64 -g -O0 -fpre-include=/usr/include/finclude/math-vector-fortran.h
REM seed -1429367599 -1710526642 144654685 -117973311 2034596850 407207367 1061006543 -1148971915 -1397817572 315854386 -885562691 -1112197977 -1462412287 -1934522513 -702758418 -1014855746 287704690 -160517465 137587012 -591432717 -343628647 1668389622 -1363679316 -848803870 1687677624 1452346830 324242517 -1243007453 385898400 -1252156943 854207388 -206653521 508756863
REM
CELL 1.54180   50.00000   50.00000   50.00000   90.00000   90.00000   90.00000
LATT -1
SFAC C  
C      1  0.5093480000000  0.5378340000000  0.4305330000000 1.0
C      1  0.4267150000000  0.4954900000000  0.5074390000000 1.0
C      1  0.5586580000000  0.4545290000000  0.4486640000000 1.0
C      1  0.4867530000000  0.5381870000000  0.4929620000000 1.0
C      1  0.4657500000000  0.4863960000000  0.4816220000000 1.0
C      1  0.4500220000000  0.5032110000000  0.4267440000000 1.0
C      1  0.4583470000000  0.5758670000000  0.5031950000000 1.0
C      1  0.5885440000000  0.5275730000000  0.5120730000000 1.0
C      1  0.4543010000000  0.5494890000000  0.5459260000000 1.0
C      1  0.4756560000000  0.4834910000000  0.5781850000000 1.0
C      1  0.5331440000000  0.5459930000000  0.4491410000000 1.0
C      1  0.4851400000000  0.5518170000000  0.4475670000000 1.0
C      1  0.5234650000000  0.4816290000000  0.4277900000000 1.0
C      1  0.5571730000000  0.4352490000000  0.4951470000000 1.0
C      1  0.5082830000000  0.5775870000000  0.5145250000000 1.0
C      1  0.5650520000000  0.4379200000000  0.4686520000000 1.0
C      1  0.4269890000000  0.4600190000000  0.5371820000000 1.0
C      1  0.5277410000000  0.4362390000000  0.4991160000000 1.0
C      1  0.4451960000000  0.4325040000000  0.4960060000000 1.0
C      1  0.5867680000000  0.5265010000000  0.4820860000000 1.0
C      1  0.4561330000000  0.4780340000000  0.5547600000000 1.0
C      1  0.4287740000000  0.5413300000000  0.4897930000000 1.0
C      1  0.4447640000000  0.4387340000000  0.4677750000000 1.0
C      1  0.4791500000000  0.5621340000000  0.5502250000000 1.0
C      1  0.4138660000000  0.5193570000000  0.4979080000000 1.0
C      1  0.4542460000000  0.5221390000000  0.5571110000000 1.0
C      1  0.5495120000000  0.5061130000000  0.5115540000000 1.0
C      1  0.5265470000000  0.5449230000000  0.5467370000000 1.0
C      1  0.4692630000000  0.4431120000000  0.4513120000000 1.0
C      1  0.5006790000000  0.5253610000000  0.5802790000000 1.0
C      1  0.5125330000000  0.4342730000000  0.4745090000000 1.0
C      1  0.5239620000000  0.4630750000000  0.5095950000000 1.0
C      1  0.4179640000000  0.4701980000000  0.4914360000000 1.0
C      1  0.5830520000000  0.4986060000000  0.4741700000000 1.0
C      1  0.4784620000000  0.4631320000000  0.4198060000000 1.0
C      1  0.4583200000000  0.4980020000000  0.5077090000000 1.0
C      1  0.5470740000000  0.4794340000000  0.4450940000000 1.0
C      1  0.4330760000000  0.5127590000000  0.4492000000000 1.0
C      1  0.5275700000000  0.5087600000000  0.4917730000000 1.0
C      1  0.5275890000000  0.5280970000000  0.5722580000000 1.0
C      1  0.5413920000000  0.4546710000000  0.5575400000000 1.0
C      1  0.5205670000000  0.4367580000000  0.5451070000000 1.0
C      1  0.4965040000000  0.4531000000000  0.4591430000000 1.0
C      1  0.5737350000000  0.4872330000000  0.5013400000000 1.0
C      1  0.5706700000000  0.4521870000000  0.5147520000000 1.0
C      1  0.5243820000000  0.4993240000000  0.5355080000000 1.0
C      1  0.5628680000000  0.5025660000000  0.4533140000000 1.0
C      1  0.5058980000000  0.4575650000000  0.4301980000000 1.0
C      1  0.5120630000000  0.4097540000000  0.5475880000000 1.0
C      1  0.4262750000000  0.4486640000000  0.5098410000000 1.0
C      1  0.5611980000000  0.5346810000000  0.5205890000000 1.0
C      1  0.4760260000000  0.4922200000000  0.4190950000000 1.0
C      1  0.4409420000000  0.5379500000000  0.4621000000000 1.0
C      1  0.5141060000000  0.5328840000000  0.5027090000000 1.0
C      1  0.4184150000000  0.4883760000000  0.5355480000000 1.0
C      1  0.4720610000000  0.4816760000000  0.5299850000000 1.0
C      1  0.4298600000000  0.5059850000000  0.5560730000000 1.0
C      1  0.5572710000000  0.5308250000000  0.4578330000000 1.0
C      1  0.5118110000000  0.5258940000000  0.5309010000000 1.0
C      1  0.4840400000000  0.5287590000000  0.4658250000000 1.0
C      1  0.5026890000000  0.5044080000000  0.4294840000000 1.0
C      1  0.5251220000000  0.5673200000000  0.4684640000000 1.0
C      1  0.4558430000000  0.5555510000000  0.4444990000000 1.0
C      1  0.5196770000000  0.4161370000000  0.5205930000000 1.0
C      1  0.4660730000000  0.5273930000000  0.5097310000000 1.0
C      1  0.5118050000000  0.4846320000000  0.4953250000000 1.0
C      1  0.4932870000000  0.4809150000000  0.4734620000000 1.0
C      1  0.4441810000000  0.4855600000000  0.4608560000000 1.0
C      1  0.5551280000000  0.5594980000000  0.5089530000000 1.0
C      1  0.5737940000000  0.4917180000000  0.5470970000000 1.0
C      1  0.5062090000000  0.5682660000000  0.5433370000000 1.0
C      1  0.5398240000000  0.5005940000000  0.5619930000000 1.0
C      1  0.5006800000000  0.4694110000000  0.5674670000000 1.0
C      1  0.4756000000000  0.5131830000000  0.5760610000000 1.0
C      1  0.4467980000000  0.5509630000000  0.5134190000000 1.0
C      1  0.5605600000000  0.4667530000000  0.5388490000000 1.0
C      1  0.4987060000000  0.5052710000000  0.4582780000000 1.0
C      1  0.5915940000000  0.4994800000000  0.5241030000000 1.0
C      1  0.4850070000000  0.5691170000000  0.4942010000000 1.0
C      1  0.5292670000000  0.4754810000000  0.5762900000000 1.0
C      1  0.5012430000000  0.4758960000000  0.5373290000000 1.0
C      1  0.5286990000000  0.5601320000000  0.4983500000000 1.0
C      1  0.4959700000000  0.5739820000000  0.4653450000000 1.0
C      1  0.4265790000000  0.4621700000000  0.4639670000000 1.0
END
