TITL C-950536-5891-20 1.38965089590224e-06 125000 -408.313292792551 0 0 67 (C1) n - 1
REM
REM in /home/bkarasulu/work/CARBON/AIRSS/Generating-Clusters/EDIP-Nigel-Params/with-SteepDescent/Only-C1/SD-CG/HFTN-CG
REM
REM
REM
REM
REM
REM ./C.cell (11c1c37f851c82e70ff6c80c92926a4b)
REM
REM compiler GCC version 9.2.1 20190827 (Red Hat 9.2.1-1)
REM options -cpp -mtune=generic -march=x86-64 -g -O0 -fpre-include=/usr/include/finclude/math-vector-fortran.h
REM seed -2109436594 -1639049856 1713819890 41716643 1629346288 604698353 1615783566 -1362364030 384334166 -1033582269 703826761 -789719019 1104074281 1531147005 1189695479 -832283771 -706010208 1757172357 1153229479 1829648172 865927197 1424251770 -1220522145 -691388525 -1589145727 -367510789 -440896163 146496359 897801304 -563155319 -1703069793 81300284 1196946212
REM
CELL 1.54180   50.00000   50.00000   50.00000   90.00000   90.00000   90.00000
LATT -1
SFAC C  
C      1  0.4700330000000  0.5663370000000  0.4729880000000 1.0
C      1  0.4734870000000  0.5102300000000  0.4295230000000 1.0
C      1  0.5202320000000  0.5371680000000  0.5031950000000 1.0
C      1  0.5112260000000  0.5039450000000  0.4271890000000 1.0
C      1  0.4597720000000  0.5189750000000  0.5500910000000 1.0
C      1  0.5725750000000  0.4566620000000  0.4824680000000 1.0
C      1  0.5673040000000  0.5415180000000  0.4916000000000 1.0
C      1  0.5692680000000  0.5202400000000  0.5139900000000 1.0
C      1  0.5056280000000  0.5079660000000  0.5569720000000 1.0
C      1  0.4891780000000  0.4707040000000  0.5185900000000 1.0
C      1  0.5777690000000  0.5202310000000  0.4754480000000 1.0
C      1  0.4948200000000  0.4459180000000  0.5611140000000 1.0
C      1  0.5108710000000  0.5514030000000  0.4301820000000 1.0
C      1  0.4274980000000  0.5644720000000  0.4931630000000 1.0
C      1  0.4607170000000  0.4750430000000  0.5094220000000 1.0
C      1  0.5000870000000  0.4994950000000  0.5273630000000 1.0
C      1  0.5367050000000  0.5355640000000  0.4552290000000 1.0
C      1  0.4185400000000  0.5035590000000  0.4782830000000 1.0
C      1  0.4625350000000  0.4667350000000  0.4569460000000 1.0
C      1  0.5134470000000  0.4415450000000  0.4844790000000 1.0
C      1  0.4349820000000  0.5389320000000  0.4528710000000 1.0
C      1  0.4470350000000  0.5714250000000  0.5121960000000 1.0
C      1  0.5202190000000  0.4257880000000  0.5111970000000 1.0
C      1  0.5588080000000  0.5143490000000  0.4544670000000 1.0
C      1  0.5567370000000  0.4938360000000  0.5080330000000 1.0
C      1  0.4842050000000  0.4541590000000  0.4440260000000 1.0
C      1  0.5309700000000  0.4966300000000  0.5683770000000 1.0
C      1  0.4568120000000  0.4958600000000  0.4489590000000 1.0
C      1  0.5013960000000  0.4679110000000  0.4920730000000 1.0
C      1  0.4900340000000  0.4211990000000  0.5147830000000 1.0
C      1  0.4671340000000  0.4727930000000  0.5626840000000 1.0
C      1  0.5228020000000  0.4477930000000  0.5582370000000 1.0
C      1  0.5287970000000  0.5447990000000  0.5326280000000 1.0
C      1  0.4729740000000  0.5727340000000  0.5005240000000 1.0
C      1  0.5305680000000  0.4429710000000  0.4584620000000 1.0
C      1  0.5100520000000  0.5381970000000  0.5550560000000 1.0
C      1  0.4325320000000  0.5110900000000  0.4552650000000 1.0
C      1  0.5697630000000  0.4679170000000  0.5077830000000 1.0
C      1  0.4453420000000  0.5631770000000  0.5387500000000 1.0
C      1  0.4327930000000  0.5128660000000  0.4994440000000 1.0
C      1  0.5213550000000  0.5066210000000  0.5041660000000 1.0
C      1  0.4871270000000  0.5540090000000  0.5577330000000 1.0
C      1  0.4478590000000  0.4697970000000  0.5372520000000 1.0
C      1  0.4540260000000  0.4422410000000  0.5412620000000 1.0
C      1  0.5058820000000  0.4943830000000  0.4791550000000 1.0
C      1  0.4775050000000  0.4306820000000  0.4884110000000 1.0
C      1  0.4830290000000  0.4425860000000  0.5345080000000 1.0
C      1  0.5594590000000  0.4502950000000  0.5264930000000 1.0
C      1  0.5117190000000  0.4585950000000  0.4414320000000 1.0
C      1  0.4812930000000  0.5131840000000  0.4810520000000 1.0
C      1  0.4420700000000  0.5606140000000  0.4691970000000 1.0
C      1  0.5331430000000  0.4430180000000  0.5315350000000 1.0
C      1  0.4746160000000  0.5168360000000  0.5245060000000 1.0
C      1  0.4767980000000  0.5012270000000  0.5677070000000 1.0
C      1  0.5339400000000  0.4693160000000  0.5715990000000 1.0
C      1  0.4975360000000  0.5269580000000  0.4362450000000 1.0
C      1  0.5186220000000  0.4866100000000  0.4490060000000 1.0
C      1  0.5396490000000  0.5477190000000  0.4827800000000 1.0
C      1  0.5379560000000  0.5552750000000  0.4338800000000 1.0
C      1  0.5523180000000  0.5121650000000  0.5595800000000 1.0
C      1  0.4595780000000  0.4548270000000  0.4849520000000 1.0
C      1  0.5471530000000  0.4873730000000  0.4539460000000 1.0
C      1  0.5557290000000  0.4599280000000  0.4603730000000 1.0
C      1  0.4911980000000  0.5403130000000  0.4914090000000 1.0
C      1  0.5546180000000  0.5308760000000  0.5386030000000 1.0
C      1  0.4598850000000  0.5478860000000  0.5571950000000 1.0
C      1  0.4602910000000  0.5045330000000  0.5019670000000 1.0
END
