TITL C-951342-2639-20 -2.30743263817206e-06 125000 -888.096132661616 0 0 143 (C1) n - 1
REM
REM in /home/bkarasulu/work/CARBON/AIRSS/Generating-Clusters/EDIP-Nigel-Params/with-SteepDescent/Only-C1/SD-CG/HFTN-CG
REM
REM
REM
REM
REM
REM ./C.cell (11c1c37f851c82e70ff6c80c92926a4b)
REM
REM compiler GCC version 9.2.1 20190827 (Red Hat 9.2.1-1)
REM options -cpp -mtune=generic -march=x86-64 -g -O0 -fpre-include=/usr/include/finclude/math-vector-fortran.h
REM seed 2078341180 470813805 -242481520 -1516873085 -617518404 -2027561459 2041002634 925558396 1762783981 -1191805361 1913123761 -402368156 1513143987 1367069794 -1224868729 2063009416 -1018311930 -101204959 440116537 1178224420 2098692145 -1988669278 1392666822 -395576017 -1741691595 -1983689855 149074422 1139638172 -699695622 1598305315 -1316020592 1447116082 -1440100588
REM
CELL 1.54180   50.00000   50.00000   50.00000   90.00000   90.00000   90.00000
LATT -1
SFAC C  
C      1  0.5035300000000  0.5550940000000  0.4300800000000 1.0
C      1  0.5962600000000  0.5392270000000  0.4953270000000 1.0
C      1  0.4864160000000  0.4418190000000  0.5942710000000 1.0
C      1  0.5710150000000  0.4529430000000  0.4699780000000 1.0
C      1  0.5508020000000  0.4321340000000  0.4765800000000 1.0
C      1  0.4517630000000  0.4701410000000  0.5197880000000 1.0
C      1  0.4533280000000  0.4693120000000  0.4138050000000 1.0
C      1  0.5474300000000  0.4187200000000  0.5009230000000 1.0
C      1  0.5795360000000  0.4655290000000  0.5192280000000 1.0
C      1  0.5498360000000  0.4568280000000  0.4236360000000 1.0
C      1  0.4099200000000  0.4599600000000  0.5317820000000 1.0
C      1  0.4958610000000  0.4887240000000  0.6024380000000 1.0
C      1  0.4262970000000  0.5501610000000  0.5315170000000 1.0
C      1  0.5402550000000  0.5742120000000  0.5709410000000 1.0
C      1  0.5959660000000  0.5373970000000  0.5276110000000 1.0
C      1  0.4679360000000  0.4601750000000  0.5786530000000 1.0
C      1  0.5701870000000  0.5465750000000  0.5455520000000 1.0
C      1  0.4155220000000  0.4744280000000  0.4840060000000 1.0
C      1  0.4594960000000  0.4118820000000  0.4797120000000 1.0
C      1  0.5711940000000  0.5559040000000  0.5035110000000 1.0
C      1  0.5606060000000  0.5755720000000  0.5482700000000 1.0
C      1  0.5515620000000  0.4967640000000  0.5308650000000 1.0
C      1  0.5083290000000  0.4614430000000  0.5971920000000 1.0
C      1  0.4940300000000  0.5744750000000  0.4504430000000 1.0
C      1  0.4669770000000  0.5599340000000  0.5166470000000 1.0
C      1  0.4945930000000  0.4623760000000  0.3992460000000 1.0
C      1  0.5113280000000  0.5384330000000  0.5873910000000 1.0
C      1  0.5983010000000  0.4894060000000  0.4840840000000 1.0
C      1  0.4498500000000  0.5104560000000  0.4984180000000 1.0
C      1  0.4654350000000  0.4859060000000  0.3925300000000 1.0
C      1  0.5377930000000  0.4770830000000  0.5126940000000 1.0
C      1  0.5868160000000  0.5153450000000  0.4774510000000 1.0
C      1  0.4889870000000  0.4208890000000  0.4342600000000 1.0
C      1  0.5497420000000  0.5341450000000  0.5087170000000 1.0
C      1  0.5195240000000  0.5252010000000  0.4012240000000 1.0
C      1  0.5662530000000  0.4802750000000  0.5755350000000 1.0
C      1  0.4173040000000  0.5024000000000  0.4154670000000 1.0
C      1  0.5052230000000  0.4131920000000  0.4578630000000 1.0
C      1  0.5079030000000  0.4661210000000  0.5121480000000 1.0
C      1  0.4435920000000  0.5420080000000  0.5758800000000 1.0
C      1  0.4938800000000  0.4175980000000  0.5814690000000 1.0
C      1  0.5016090000000  0.4025590000000  0.5070790000000 1.0
C      1  0.5897290000000  0.4632790000000  0.4904110000000 1.0
C      1  0.4791380000000  0.5300020000000  0.4642960000000 1.0
C      1  0.5559320000000  0.5984920000000  0.5024120000000 1.0
C      1  0.4714250000000  0.5048100000000  0.5516650000000 1.0
C      1  0.4963280000000  0.4916680000000  0.5004020000000 1.0
C      1  0.4905910000000  0.4173230000000  0.4835040000000 1.0
C      1  0.5189970000000  0.4227430000000  0.5705530000000 1.0
C      1  0.4489450000000  0.4216080000000  0.4535800000000 1.0
C      1  0.5801430000000  0.4965020000000  0.5236030000000 1.0
C      1  0.4482790000000  0.4933270000000  0.5393670000000 1.0
C      1  0.4052420000000  0.4894590000000  0.5308580000000 1.0
C      1  0.4427680000000  0.4221890000000  0.5016810000000 1.0
C      1  0.5433840000000  0.4888120000000  0.4858830000000 1.0
C      1  0.4451150000000  0.5701730000000  0.4328660000000 1.0
C      1  0.5280710000000  0.4114030000000  0.5464960000000 1.0
C      1  0.5100180000000  0.5228150000000  0.5462860000000 1.0
C      1  0.5616880000000  0.5775410000000  0.4847920000000 1.0
C      1  0.4684500000000  0.5272790000000  0.5196280000000 1.0
C      1  0.5974190000000  0.5034770000000  0.5460250000000 1.0
C      1  0.4982740000000  0.5255490000000  0.4413160000000 1.0
C      1  0.5031900000000  0.4410300000000  0.4178630000000 1.0
C      1  0.4615110000000  0.4207160000000  0.5234900000000 1.0
C      1  0.4614510000000  0.5638550000000  0.5648250000000 1.0
C      1  0.5163520000000  0.5873120000000  0.5309360000000 1.0
C      1  0.4612010000000  0.5660090000000  0.4105850000000 1.0
C      1  0.4954420000000  0.5819000000000  0.5102690000000 1.0
C      1  0.4941430000000  0.4466090000000  0.4896370000000 1.0
C      1  0.4486880000000  0.5694050000000  0.5379500000000 1.0
C      1  0.5625420000000  0.4981290000000  0.4065230000000 1.0
C      1  0.4976880000000  0.5171250000000  0.5182960000000 1.0
C      1  0.5294070000000  0.5461790000000  0.5395350000000 1.0
C      1  0.4286410000000  0.4723100000000  0.4555100000000 1.0
C      1  0.4665310000000  0.5130510000000  0.4039050000000 1.0
C      1  0.4505170000000  0.4509540000000  0.4597230000000 1.0
C      1  0.5123890000000  0.4767840000000  0.4487120000000 1.0
C      1  0.5178720000000  0.4938520000000  0.4727060000000 1.0
C      1  0.5128430000000  0.5765290000000  0.5581760000000 1.0
C      1  0.5611230000000  0.5343630000000  0.4363560000000 1.0
C      1  0.4917540000000  0.5564980000000  0.5680180000000 1.0
C      1  0.5171010000000  0.5882910000000  0.4626630000000 1.0
C      1  0.4668780000000  0.4480000000000  0.5345270000000 1.0
C      1  0.4265050000000  0.4555040000000  0.5067360000000 1.0
C      1  0.4973760000000  0.4937170000000  0.4289700000000 1.0
C      1  0.5569250000000  0.5163260000000  0.4846180000000 1.0
C      1  0.4234890000000  0.5008670000000  0.5528980000000 1.0
C      1  0.5398070000000  0.5470170000000  0.5828290000000 1.0
C      1  0.4246430000000  0.4522430000000  0.5549660000000 1.0
C      1  0.5213650000000  0.5194700000000  0.4581420000000 1.0
C      1  0.5487240000000  0.5007940000000  0.5609650000000 1.0
C      1  0.4236710000000  0.5318510000000  0.5551410000000 1.0
C      1  0.5242730000000  0.4509710000000  0.4366930000000 1.0
C      1  0.5945780000000  0.4799670000000  0.5633380000000 1.0
C      1  0.4805660000000  0.3999100000000  0.5250250000000 1.0
C      1  0.4559190000000  0.5179050000000  0.6040520000000 1.0
C      1  0.4696230000000  0.4590920000000  0.4805320000000 1.0
C      1  0.4909370000000  0.5297070000000  0.3961950000000 1.0
C      1  0.5557070000000  0.4536810000000  0.5713680000000 1.0
C      1  0.5701930000000  0.4421690000000  0.5491060000000 1.0
C      1  0.4874570000000  0.5574510000000  0.4053730000000 1.0
C      1  0.4667210000000  0.4920520000000  0.6099650000000 1.0
C      1  0.4902470000000  0.4805650000000  0.5595970000000 1.0
C      1  0.4216590000000  0.5474700000000  0.4706740000000 1.0
C      1  0.4518770000000  0.4452660000000  0.5592770000000 1.0
C      1  0.5176710000000  0.5368570000000  0.5052530000000 1.0
C      1  0.5845530000000  0.5179080000000  0.4459970000000 1.0
C      1  0.5447010000000  0.5851760000000  0.5248390000000 1.0
C      1  0.5584650000000  0.5293250000000  0.5673450000000 1.0
C      1  0.4262190000000  0.4874470000000  0.5796930000000 1.0
C      1  0.4944550000000  0.4600940000000  0.5379730000000 1.0
C      1  0.5267590000000  0.4114170000000  0.5184390000000 1.0
C      1  0.5276420000000  0.4490480000000  0.5776120000000 1.0
C      1  0.5807950000000  0.4919870000000  0.4303270000000 1.0
C      1  0.4702240000000  0.4827080000000  0.4361670000000 1.0
C      1  0.4628370000000  0.4109620000000  0.4312050000000 1.0
C      1  0.4478810000000  0.4750100000000  0.5949300000000 1.0
C      1  0.5445340000000  0.5373370000000  0.4607880000000 1.0
C      1  0.5047760000000  0.5595340000000  0.4935200000000 1.0
C      1  0.5155940000000  0.4821340000000  0.3976550000000 1.0
C      1  0.4544620000000  0.5179890000000  0.4703450000000 1.0
C      1  0.4165000000000  0.4991120000000  0.5026360000000 1.0
C      1  0.4570240000000  0.5667680000000  0.4879040000000 1.0
C      1  0.4399110000000  0.5172750000000  0.4261640000000 1.0
C      1  0.5443770000000  0.4751650000000  0.4011230000000 1.0
C      1  0.5396920000000  0.5682680000000  0.4681360000000 1.0
C      1  0.4612940000000  0.5952160000000  0.4782380000000 1.0
C      1  0.5954580000000  0.4556090000000  0.5447090000000 1.0
C      1  0.5172320000000  0.5006140000000  0.5660080000000 1.0
C      1  0.4668080000000  0.4839320000000  0.4960550000000 1.0
C      1  0.5117900000000  0.5128090000000  0.6021910000000 1.0
C      1  0.5292330000000  0.4299540000000  0.4569740000000 1.0
C      1  0.5694900000000  0.4669590000000  0.4431040000000 1.0
C      1  0.4237670000000  0.4751870000000  0.4212210000000 1.0
C      1  0.4213130000000  0.5445460000000  0.5016460000000 1.0
C      1  0.5464440000000  0.5219820000000  0.4127370000000 1.0
C      1  0.4330630000000  0.5452600000000  0.4427340000000 1.0
C      1  0.4657640000000  0.5216450000000  0.5769430000000 1.0
C      1  0.4831080000000  0.5568060000000  0.4732710000000 1.0
C      1  0.4484420000000  0.4989820000000  0.4492870000000 1.0
C      1  0.4902410000000  0.6006080000000  0.4860240000000 1.0
C      1  0.4026530000000  0.5235030000000  0.4933030000000 1.0
C      1  0.4531790000000  0.5907730000000  0.4510030000000 1.0
END
