TITL C-951348-1603-292 3.85648867207755e-06 125000 -1027.84633961477 0 0 165 (C1) n - 1
REM
REM in /home/bkarasulu/work/CARBON/AIRSS/Generating-Clusters/EDIP-Nigel-Params/with-SteepDescent/Only-C1/SD-CG/HFTN-CG
REM
REM
REM
REM
REM
REM ./C.cell (11c1c37f851c82e70ff6c80c92926a4b)
REM
REM compiler GCC version 9.2.1 20190827 (Red Hat 9.2.1-1)
REM options -cpp -mtune=generic -march=x86-64 -g -O0 -fpre-include=/usr/include/finclude/math-vector-fortran.h
REM seed 1364014135 -859729640 94160919 -268676953 -1454809290 2083982020 335659309 97282463 -1493721893 -504821098 764383691 1103939106 935759349 115698101 -2007391085 1432753316 -798192890 -972004025 428890011 1550884738 -218163888 1665014038 144650257 12006715 -854846936 209187003 468570100 -947913512 1073345291 2063162370 1403508517 1078277978 354822339
REM
CELL 1.54180   50.00000   50.00000   50.00000   90.00000   90.00000   90.00000
LATT -1
SFAC C  
C      1  0.4191970000000  0.4533140000000  0.4445730000000 1.0
C      1  0.5357410000000  0.5857720000000  0.4415870000000 1.0
C      1  0.4363090000000  0.4692820000000  0.4999120000000 1.0
C      1  0.5880700000000  0.4431090000000  0.5350030000000 1.0
C      1  0.4345080000000  0.5118790000000  0.5921610000000 1.0
C      1  0.4286060000000  0.5846590000000  0.5115450000000 1.0
C      1  0.4149030000000  0.4484440000000  0.4939340000000 1.0
C      1  0.5102460000000  0.5157130000000  0.4917890000000 1.0
C      1  0.5462500000000  0.4035080000000  0.4748610000000 1.0
C      1  0.5649080000000  0.5845340000000  0.4829710000000 1.0
C      1  0.5430740000000  0.4256500000000  0.4314250000000 1.0
C      1  0.5554190000000  0.5737670000000  0.4575560000000 1.0
C      1  0.5551240000000  0.5456460000000  0.6028020000000 1.0
C      1  0.5464670000000  0.4177990000000  0.5241460000000 1.0
C      1  0.4597820000000  0.5418820000000  0.5706120000000 1.0
C      1  0.5061510000000  0.5613030000000  0.4114590000000 1.0
C      1  0.4617190000000  0.5871970000000  0.4308920000000 1.0
C      1  0.5087410000000  0.5458410000000  0.5422010000000 1.0
C      1  0.5792100000000  0.5128840000000  0.5410280000000 1.0
C      1  0.5469430000000  0.4938880000000  0.4605490000000 1.0
C      1  0.5551210000000  0.4479080000000  0.5710410000000 1.0
C      1  0.5500740000000  0.5134420000000  0.5288180000000 1.0
C      1  0.5105910000000  0.4713840000000  0.5981190000000 1.0
C      1  0.6129190000000  0.4819070000000  0.5183300000000 1.0
C      1  0.4576800000000  0.4989110000000  0.4401580000000 1.0
C      1  0.5151270000000  0.3994850000000  0.5577030000000 1.0
C      1  0.5780240000000  0.5348560000000  0.5607160000000 1.0
C      1  0.4074420000000  0.4402240000000  0.4669420000000 1.0
C      1  0.4420820000000  0.4655400000000  0.5296550000000 1.0
C      1  0.4577060000000  0.5367180000000  0.5415020000000 1.0
C      1  0.4865290000000  0.5859440000000  0.5526150000000 1.0
C      1  0.4791530000000  0.4075430000000  0.4515850000000 1.0
C      1  0.5969970000000  0.4692180000000  0.4662850000000 1.0
C      1  0.5760810000000  0.5739720000000  0.5252100000000 1.0
C      1  0.5252610000000  0.4502810000000  0.6099330000000 1.0
C      1  0.5667760000000  0.5597020000000  0.5493120000000 1.0
C      1  0.5306460000000  0.4172540000000  0.4561460000000 1.0
C      1  0.4778680000000  0.4497700000000  0.5633200000000 1.0
C      1  0.4650120000000  0.4438400000000  0.4179250000000 1.0
C      1  0.4492910000000  0.4488830000000  0.4440930000000 1.0
C      1  0.4595620000000  0.4252720000000  0.4665140000000 1.0
C      1  0.4861350000000  0.5139580000000  0.5091180000000 1.0
C      1  0.5773510000000  0.5319890000000  0.4318950000000 1.0
C      1  0.5232350000000  0.4351420000000  0.4110620000000 1.0
C      1  0.3890430000000  0.4918680000000  0.4557840000000 1.0
C      1  0.5586040000000  0.4409560000000  0.5412770000000 1.0
C      1  0.5303900000000  0.5049960000000  0.4052990000000 1.0
C      1  0.5966780000000  0.5170820000000  0.4876830000000 1.0
C      1  0.5045360000000  0.6148810000000  0.5021170000000 1.0
C      1  0.4417910000000  0.4108410000000  0.5115090000000 1.0
C      1  0.5238600000000  0.4116640000000  0.5803900000000 1.0
C      1  0.5130070000000  0.5264710000000  0.3962990000000 1.0
C      1  0.5836160000000  0.5059150000000  0.4388980000000 1.0
C      1  0.4486220000000  0.4021370000000  0.4835000000000 1.0
C      1  0.4339850000000  0.4372150000000  0.5796300000000 1.0
C      1  0.5250970000000  0.5412060000000  0.4935230000000 1.0
C      1  0.4894040000000  0.4660760000000  0.5214520000000 1.0
C      1  0.4670530000000  0.4253080000000  0.5171060000000 1.0
C      1  0.4891270000000  0.5635350000000  0.4652330000000 1.0
C      1  0.5336160000000  0.4899030000000  0.5403340000000 1.0
C      1  0.3928170000000  0.4948010000000  0.5296780000000 1.0
C      1  0.4677030000000  0.5991730000000  0.5336300000000 1.0
C      1  0.5370600000000  0.5594870000000  0.5864090000000 1.0
C      1  0.4822580000000  0.5464070000000  0.4212260000000 1.0
C      1  0.5102340000000  0.5656910000000  0.4847370000000 1.0
C      1  0.4630880000000  0.4731890000000  0.4544180000000 1.0
C      1  0.5548960000000  0.4709200000000  0.4193470000000 1.0
C      1  0.5108820000000  0.5846620000000  0.4284820000000 1.0
C      1  0.5907420000000  0.4979170000000  0.4655910000000 1.0
C      1  0.4328670000000  0.5386510000000  0.5817800000000 1.0
C      1  0.4602880000000  0.5067740000000  0.6038270000000 1.0
C      1  0.5058870000000  0.5155240000000  0.5794190000000 1.0
C      1  0.4625250000000  0.6095050000000  0.4845410000000 1.0
C      1  0.4975820000000  0.4546220000000  0.4531690000000 1.0
C      1  0.4733710000000  0.4685430000000  0.4018660000000 1.0
C      1  0.5146790000000  0.4486540000000  0.5213030000000 1.0
C      1  0.4101890000000  0.5622750000000  0.5094520000000 1.0
C      1  0.5763010000000  0.5377940000000  0.4873350000000 1.0
C      1  0.4833560000000  0.6122610000000  0.4633350000000 1.0
C      1  0.4156070000000  0.5256470000000  0.4779970000000 1.0
C      1  0.4757480000000  0.6161680000000  0.5104220000000 1.0
C      1  0.4184960000000  0.4496210000000  0.5401730000000 1.0
C      1  0.5118680000000  0.5465590000000  0.5745910000000 1.0
C      1  0.5436550000000  0.5326360000000  0.4684970000000 1.0
C      1  0.4997610000000  0.4685340000000  0.5706280000000 1.0
C      1  0.3925110000000  0.5068720000000  0.4794100000000 1.0
C      1  0.4395470000000  0.5034860000000  0.4038410000000 1.0
C      1  0.4381840000000  0.5190900000000  0.4994280000000 1.0
C      1  0.4681450000000  0.5194080000000  0.4594440000000 1.0
C      1  0.5830870000000  0.4868990000000  0.5556150000000 1.0
C      1  0.5340750000000  0.5440520000000  0.5243690000000 1.0
C      1  0.4076430000000  0.4796600000000  0.4386970000000 1.0
C      1  0.4615360000000  0.4379800000000  0.5833400000000 1.0
C      1  0.6004110000000  0.4285700000000  0.5145660000000 1.0
C      1  0.5817060000000  0.5651400000000  0.4971360000000 1.0
C      1  0.5776820000000  0.4815090000000  0.5043490000000 1.0
C      1  0.4071330000000  0.5204370000000  0.5383550000000 1.0
C      1  0.5489640000000  0.5755290000000  0.5661240000000 1.0
C      1  0.5498420000000  0.4612910000000  0.4658650000000 1.0
C      1  0.4737800000000  0.5696720000000  0.5743090000000 1.0
C      1  0.4770420000000  0.5210020000000  0.5860490000000 1.0
C      1  0.5754980000000  0.4581900000000  0.4837810000000 1.0
C      1  0.5824950000000  0.4829110000000  0.4205820000000 1.0
C      1  0.5106290000000  0.3861890000000  0.5198950000000 1.0
C      1  0.4844730000000  0.3904620000000  0.4772380000000 1.0
C      1  0.4834620000000  0.5375190000000  0.5275570000000 1.0
C      1  0.4163710000000  0.4285930000000  0.5169200000000 1.0
C      1  0.5104140000000  0.4300610000000  0.4955170000000 1.0
C      1  0.4284220000000  0.5715730000000  0.4658550000000 1.0
C      1  0.5067110000000  0.6230680000000  0.4747000000000 1.0
C      1  0.5411800000000  0.4575250000000  0.3969690000000 1.0
C      1  0.3982410000000  0.4699190000000  0.5429510000000 1.0
C      1  0.5928340000000  0.4589470000000  0.4384950000000 1.0
C      1  0.5111020000000  0.5859830000000  0.5053530000000 1.0
C      1  0.3890410000000  0.4616150000000  0.4938510000000 1.0
C      1  0.4863500000000  0.5874450000000  0.4467910000000 1.0
C      1  0.3980550000000  0.5452100000000  0.5283920000000 1.0
C      1  0.5520710000000  0.4986490000000  0.5903950000000 1.0
C      1  0.5651430000000  0.5253640000000  0.5863860000000 1.0
C      1  0.5597460000000  0.4120090000000  0.4981230000000 1.0
C      1  0.5222100000000  0.4426800000000  0.4692750000000 1.0
C      1  0.4562590000000  0.5619630000000  0.4193620000000 1.0
C      1  0.4332490000000  0.4891080000000  0.5729330000000 1.0
C      1  0.5995820000000  0.4687910000000  0.5402340000000 1.0
C      1  0.4825070000000  0.4648270000000  0.4931430000000 1.0
C      1  0.5352250000000  0.4356660000000  0.5882360000000 1.0
C      1  0.5309660000000  0.3961370000000  0.5355810000000 1.0
C      1  0.4841280000000  0.5227520000000  0.4031580000000 1.0
C      1  0.4677810000000  0.4497180000000  0.5345530000000 1.0
C      1  0.5312580000000  0.4951440000000  0.4879220000000 1.0
C      1  0.5061280000000  0.4936060000000  0.5542960000000 1.0
C      1  0.5034470000000  0.4797840000000  0.4376080000000 1.0
C      1  0.5186040000000  0.5260760000000  0.4493210000000 1.0
C      1  0.4842130000000  0.4934910000000  0.5327190000000 1.0
C      1  0.5636710000000  0.4762630000000  0.5747980000000 1.0
C      1  0.4634900000000  0.5091600000000  0.4879940000000 1.0
C      1  0.5066260000000  0.3992260000000  0.4947110000000 1.0
C      1  0.4896640000000  0.5380930000000  0.4498330000000 1.0
C      1  0.5175360000000  0.5880980000000  0.5521110000000 1.0
C      1  0.4906900000000  0.4316990000000  0.4322020000000 1.0
C      1  0.4597360000000  0.4790830000000  0.4839210000000 1.0
C      1  0.6025880000000  0.5093100000000  0.5165930000000 1.0
C      1  0.5717800000000  0.5541770000000  0.4462190000000 1.0
C      1  0.3963120000000  0.4882720000000  0.5012680000000 1.0
C      1  0.4933350000000  0.5619640000000  0.5919960000000 1.0
C      1  0.5566800000000  0.5052570000000  0.5007130000000 1.0
C      1  0.5601430000000  0.4497460000000  0.4397310000000 1.0
C      1  0.4190220000000  0.4947770000000  0.4187980000000 1.0
C      1  0.4091710000000  0.5547480000000  0.4809540000000 1.0
C      1  0.5256250000000  0.4997250000000  0.4365220000000 1.0
C      1  0.5230780000000  0.4987330000000  0.5996960000000 1.0
C      1  0.4400940000000  0.5943670000000  0.5350320000000 1.0
C      1  0.5015650000000  0.4678170000000  0.4106750000000 1.0
C      1  0.4365190000000  0.5174330000000  0.5306170000000 1.0
C      1  0.5565180000000  0.5946420000000  0.5180620000000 1.0
C      1  0.5223170000000  0.4801500000000  0.3907460000000 1.0
C      1  0.4793920000000  0.4350380000000  0.4908490000000 1.0
C      1  0.5824130000000  0.4298420000000  0.4931250000000 1.0
C      1  0.5395530000000  0.4624460000000  0.5279440000000 1.0
C      1  0.5311000000000  0.5803320000000  0.5258890000000 1.0
C      1  0.4356540000000  0.5598970000000  0.4400400000000 1.0
C      1  0.4333320000000  0.4639940000000  0.5877180000000 1.0
C      1  0.4665080000000  0.4980620000000  0.4106920000000 1.0
C      1  0.4471240000000  0.4918790000000  0.5446350000000 1.0
C      1  0.4413650000000  0.5889170000000  0.4860340000000 1.0
END
