TITL C-951343-2256-306 4.42934873518714e-07 125000 -544.320481318829 0 0 87 (C1) n - 1
REM
REM in /home/bkarasulu/work/CARBON/AIRSS/Generating-Clusters/EDIP-Nigel-Params/with-SteepDescent/Only-C1/SD-CG/HFTN-CG
REM
REM
REM
REM
REM
REM ./C.cell (11c1c37f851c82e70ff6c80c92926a4b)
REM
REM compiler GCC version 9.2.1 20190827 (Red Hat 9.2.1-1)
REM options -cpp -mtune=generic -march=x86-64 -g -O0 -fpre-include=/usr/include/finclude/math-vector-fortran.h
REM seed 40202885 842274326 2110365223 256307863 -124780814 222282632 -372542407 -1784205758 -984532318 1806112372 -1414233311 272279586 -955137757 -424617020 128659747 -376883033 43000857 2026643814 -1108427786 -255769834 375893650 -696428788 100087557 807252642 -1435756981 -1197414846 -1569750692 -874298745 -455319530 1784411645 -352000350 185519195 1560548471
REM
CELL 1.54180   50.00000   50.00000   50.00000   90.00000   90.00000   90.00000
LATT -1
SFAC C  
C      1  0.5239150000000  0.4805230000000  0.5116130000000 1.0
C      1  0.4177850000000  0.4921270000000  0.5032380000000 1.0
C      1  0.4944290000000  0.4579620000000  0.4320900000000 1.0
C      1  0.4613020000000  0.4162870000000  0.5046220000000 1.0
C      1  0.5105380000000  0.5902610000000  0.5047490000000 1.0
C      1  0.5438410000000  0.5472220000000  0.5047020000000 1.0
C      1  0.5092700000000  0.5307360000000  0.5398320000000 1.0
C      1  0.5625560000000  0.4605170000000  0.5613640000000 1.0
C      1  0.4781590000000  0.4692120000000  0.5079750000000 1.0
C      1  0.4367440000000  0.4958180000000  0.4791600000000 1.0
C      1  0.4679190000000  0.5095060000000  0.4409560000000 1.0
C      1  0.5772230000000  0.4821510000000  0.4896840000000 1.0
C      1  0.4818900000000  0.5015840000000  0.4665130000000 1.0
C      1  0.5588260000000  0.4880900000000  0.4240400000000 1.0
C      1  0.5436550000000  0.4373360000000  0.5259720000000 1.0
C      1  0.4220100000000  0.5163490000000  0.5201990000000 1.0
C      1  0.5123110000000  0.5772970000000  0.4801740000000 1.0
C      1  0.4808150000000  0.4429780000000  0.4543670000000 1.0
C      1  0.5152240000000  0.4593880000000  0.5542650000000 1.0
C      1  0.4487460000000  0.5715900000000  0.5249100000000 1.0
C      1  0.4248740000000  0.5378040000000  0.4999530000000 1.0
C      1  0.5253830000000  0.5026290000000  0.4924910000000 1.0
C      1  0.4557080000000  0.4500250000000  0.4678810000000 1.0
C      1  0.4898350000000  0.5575630000000  0.4753550000000 1.0
C      1  0.4945380000000  0.5345920000000  0.4938190000000 1.0
C      1  0.5172130000000  0.4769000000000  0.4417760000000 1.0
C      1  0.4430930000000  0.5152670000000  0.5416360000000 1.0
C      1  0.4650780000000  0.5388080000000  0.4395390000000 1.0
C      1  0.4509400000000  0.5509300000000  0.5048610000000 1.0
C      1  0.4282840000000  0.5264700000000  0.4722990000000 1.0
C      1  0.4585440000000  0.5369980000000  0.5556670000000 1.0
C      1  0.4479440000000  0.4789070000000  0.4297990000000 1.0
C      1  0.5110650000000  0.5020040000000  0.4643050000000 1.0
C      1  0.4720200000000  0.5215690000000  0.5085670000000 1.0
C      1  0.4865130000000  0.5100400000000  0.5347730000000 1.0
C      1  0.4358520000000  0.4658240000000  0.5404570000000 1.0
C      1  0.5290040000000  0.4509730000000  0.5053990000000 1.0
C      1  0.5893550000000  0.4937200000000  0.5351380000000 1.0
C      1  0.5605570000000  0.4672240000000  0.4700000000000 1.0
C      1  0.4220240000000  0.4442430000000  0.5015650000000 1.0
C      1  0.4859480000000  0.4212010000000  0.5199950000000 1.0
C      1  0.4755650000000  0.5322970000000  0.5793890000000 1.0
C      1  0.5198420000000  0.5281890000000  0.5072800000000 1.0
C      1  0.4749030000000  0.4861530000000  0.5633970000000 1.0
C      1  0.5004010000000  0.4309460000000  0.4721430000000 1.0
C      1  0.5323950000000  0.4483140000000  0.4374430000000 1.0
C      1  0.4460740000000  0.4897180000000  0.5548630000000 1.0
C      1  0.4996270000000  0.4413100000000  0.5005130000000 1.0
C      1  0.4748440000000  0.4750250000000  0.4160340000000 1.0
C      1  0.5350220000000  0.5005700000000  0.5681080000000 1.0
C      1  0.4739440000000  0.4368490000000  0.5457040000000 1.0
C      1  0.4164240000000  0.4666410000000  0.5180300000000 1.0
C      1  0.5309120000000  0.4897960000000  0.4184950000000 1.0
C      1  0.4928880000000  0.5703800000000  0.5446630000000 1.0
C      1  0.5450730000000  0.4457410000000  0.4812810000000 1.0
C      1  0.5150640000000  0.5282840000000  0.4457200000000 1.0
C      1  0.4857050000000  0.5048590000000  0.4150120000000 1.0
C      1  0.4657010000000  0.5629400000000  0.5448420000000 1.0
C      1  0.4440790000000  0.4327730000000  0.4884880000000 1.0
C      1  0.5405540000000  0.5476060000000  0.5562890000000 1.0
C      1  0.5374500000000  0.4713560000000  0.5684550000000 1.0
C      1  0.5148630000000  0.5144170000000  0.4180080000000 1.0
C      1  0.5695710000000  0.5294530000000  0.5078800000000 1.0
C      1  0.4660120000000  0.4964960000000  0.4909610000000 1.0
C      1  0.5151210000000  0.5796740000000  0.5300330000000 1.0
C      1  0.4920230000000  0.5480520000000  0.4475000000000 1.0
C      1  0.4604360000000  0.5641090000000  0.4797440000000 1.0
C      1  0.4987480000000  0.4815910000000  0.5273070000000 1.0
C      1  0.4451650000000  0.5486320000000  0.4590910000000 1.0
C      1  0.5649140000000  0.5361650000000  0.4457090000000 1.0
C      1  0.4576040000000  0.4519790000000  0.5248690000000 1.0
C      1  0.5716520000000  0.5157130000000  0.5338470000000 1.0
C      1  0.5596930000000  0.4645690000000  0.4405060000000 1.0
C      1  0.5536750000000  0.5210860000000  0.5564280000000 1.0
C      1  0.5655960000000  0.4526590000000  0.5346510000000 1.0
C      1  0.4841210000000  0.5035900000000  0.5860280000000 1.0
C      1  0.5769660000000  0.4745730000000  0.5185620000000 1.0
C      1  0.5383890000000  0.5624010000000  0.4775780000000 1.0
C      1  0.5809280000000  0.5117710000000  0.4859740000000 1.0
C      1  0.5284100000000  0.4322040000000  0.4618990000000 1.0
C      1  0.4879810000000  0.4577810000000  0.5623110000000 1.0
C      1  0.4391410000000  0.4718880000000  0.4569900000000 1.0
C      1  0.5065160000000  0.5392460000000  0.5730030000000 1.0
C      1  0.5143940000000  0.5121070000000  0.5855520000000 1.0
C      1  0.5396610000000  0.5449480000000  0.4529890000000 1.0
C      1  0.5821320000000  0.5218560000000  0.4600600000000 1.0
C      1  0.5388930000000  0.5626740000000  0.5306690000000 1.0
END
