TITL C-951340-9809-416 -1.20154673577795e-06 125000 -872.429475835723 0 0 141 (C1) n - 1
REM
REM in /home/bkarasulu/work/CARBON/AIRSS/Generating-Clusters/EDIP-Nigel-Params/with-SteepDescent/Only-C1/SD-CG/HFTN-CG
REM
REM
REM
REM
REM
REM ./C.cell (11c1c37f851c82e70ff6c80c92926a4b)
REM
REM compiler GCC version 9.2.1 20190827 (Red Hat 9.2.1-1)
REM options -cpp -mtune=generic -march=x86-64 -g -O0 -fpre-include=/usr/include/finclude/math-vector-fortran.h
REM seed -1935884817 598667029 -1298163872 1583331669 511475654 1299038854 -740298889 1088143715 1132137177 -625347606 -956148071 -905038063 -565556441 -1649889932 -99186644 -189967503 1582789317 932788671 -851692728 1525977520 233879517 867093864 972612878 -2133664196 1238930134 -947309070 -1334323877 983594360 -1180192491 1619803093 725551575 970431598 -1033905512
REM
CELL 1.54180   50.00000   50.00000   50.00000   90.00000   90.00000   90.00000
LATT -1
SFAC C  
C      1  0.5640720000000  0.5216980000000  0.5021670000000 1.0
C      1  0.5244080000000  0.5092540000000  0.4606380000000 1.0
C      1  0.5035430000000  0.5106640000000  0.5091130000000 1.0
C      1  0.4313950000000  0.5343550000000  0.5549450000000 1.0
C      1  0.5147990000000  0.5619620000000  0.4560820000000 1.0
C      1  0.5673430000000  0.4595380000000  0.4668590000000 1.0
C      1  0.4942510000000  0.5824950000000  0.5255880000000 1.0
C      1  0.5248100000000  0.4292890000000  0.4542540000000 1.0
C      1  0.3988990000000  0.5110030000000  0.4884670000000 1.0
C      1  0.5799090000000  0.4307580000000  0.5310440000000 1.0
C      1  0.4989370000000  0.5057720000000  0.6098800000000 1.0
C      1  0.5152780000000  0.5498940000000  0.4033460000000 1.0
C      1  0.4806080000000  0.4128310000000  0.5271360000000 1.0
C      1  0.5336320000000  0.4130770000000  0.5360950000000 1.0
C      1  0.5025440000000  0.5429460000000  0.4290780000000 1.0
C      1  0.5524390000000  0.5101350000000  0.5615560000000 1.0
C      1  0.4747150000000  0.4326390000000  0.5470850000000 1.0
C      1  0.5497550000000  0.4661760000000  0.5189240000000 1.0
C      1  0.4820780000000  0.5025660000000  0.5639380000000 1.0
C      1  0.5055160000000  0.5391180000000  0.3790650000000 1.0
C      1  0.5275010000000  0.5278980000000  0.3899430000000 1.0
C      1  0.4690530000000  0.5093570000000  0.4775500000000 1.0
C      1  0.5656680000000  0.5717180000000  0.5345020000000 1.0
C      1  0.5653740000000  0.5512330000000  0.5555590000000 1.0
C      1  0.5256030000000  0.5779570000000  0.5624830000000 1.0
C      1  0.5685910000000  0.4885590000000  0.4332420000000 1.0
C      1  0.5583800000000  0.5152820000000  0.4424460000000 1.0
C      1  0.5802060000000  0.5350520000000  0.4412580000000 1.0
C      1  0.4100960000000  0.4378700000000  0.4838640000000 1.0
C      1  0.4743790000000  0.5216000000000  0.5195000000000 1.0
C      1  0.5057430000000  0.4649200000000  0.5186610000000 1.0
C      1  0.4785280000000  0.4855440000000  0.4624400000000 1.0
C      1  0.5597130000000  0.4859370000000  0.5768470000000 1.0
C      1  0.4594570000000  0.5040380000000  0.5421270000000 1.0
C      1  0.5781410000000  0.4381740000000  0.4840220000000 1.0
C      1  0.5258850000000  0.4493090000000  0.5801870000000 1.0
C      1  0.4598600000000  0.5439390000000  0.5041620000000 1.0
C      1  0.4838690000000  0.4601800000000  0.5401890000000 1.0
C      1  0.5083070000000  0.5114910000000  0.4337400000000 1.0
C      1  0.5103090000000  0.3997520000000  0.4888070000000 1.0
C      1  0.4290470000000  0.5485010000000  0.4495530000000 1.0
C      1  0.4774020000000  0.4756400000000  0.4013460000000 1.0
C      1  0.5003690000000  0.5483500000000  0.4785190000000 1.0
C      1  0.4133600000000  0.5649410000000  0.4660970000000 1.0
C      1  0.4193480000000  0.4911730000000  0.4371520000000 1.0
C      1  0.5298670000000  0.5098060000000  0.5391870000000 1.0
C      1  0.5173800000000  0.5266140000000  0.4868480000000 1.0
C      1  0.4263920000000  0.4721200000000  0.5631620000000 1.0
C      1  0.4992500000000  0.5518430000000  0.5224590000000 1.0
C      1  0.5389740000000  0.4456270000000  0.4289310000000 1.0
C      1  0.5124140000000  0.4429660000000  0.4149600000000 1.0
C      1  0.6030980000000  0.5006260000000  0.4989610000000 1.0
C      1  0.4579550000000  0.5558250000000  0.4517480000000 1.0
C      1  0.4599910000000  0.5176820000000  0.4284920000000 1.0
C      1  0.4418010000000  0.5164630000000  0.5748360000000 1.0
C      1  0.4233740000000  0.4377070000000  0.5283310000000 1.0
C      1  0.4487720000000  0.6044250000000  0.4923520000000 1.0
C      1  0.4654910000000  0.6039410000000  0.4702210000000 1.0
C      1  0.5596800000000  0.4101890000000  0.5206830000000 1.0
C      1  0.4181690000000  0.5664200000000  0.4936490000000 1.0
C      1  0.5767810000000  0.5638400000000  0.5063090000000 1.0
C      1  0.5877850000000  0.4764990000000  0.4531870000000 1.0
C      1  0.4826220000000  0.5190990000000  0.5907840000000 1.0
C      1  0.4214480000000  0.4540280000000  0.5043220000000 1.0
C      1  0.5334790000000  0.5515660000000  0.5250600000000 1.0
C      1  0.4121900000000  0.4904390000000  0.5478450000000 1.0
C      1  0.5411870000000  0.5381000000000  0.5003750000000 1.0
C      1  0.3928150000000  0.4852690000000  0.4784040000000 1.0
C      1  0.5542150000000  0.4213630000000  0.4935550000000 1.0
C      1  0.4580260000000  0.4622530000000  0.4169270000000 1.0
C      1  0.5157860000000  0.5918070000000  0.4665050000000 1.0
C      1  0.5420460000000  0.5907140000000  0.5399270000000 1.0
C      1  0.5429300000000  0.4752220000000  0.4306080000000 1.0
C      1  0.4927420000000  0.6061000000000  0.4730680000000 1.0
C      1  0.5360010000000  0.5297650000000  0.5894970000000 1.0
C      1  0.4326100000000  0.5877100000000  0.5079310000000 1.0
C      1  0.5176400000000  0.4486790000000  0.4771300000000 1.0
C      1  0.4464550000000  0.4999140000000  0.4927570000000 1.0
C      1  0.6019900000000  0.5252070000000  0.4560070000000 1.0
C      1  0.5339380000000  0.4422470000000  0.5030700000000 1.0
C      1  0.5512010000000  0.4784320000000  0.4843240000000 1.0
C      1  0.5385280000000  0.5511970000000  0.5684960000000 1.0
C      1  0.4572130000000  0.4066890000000  0.5096890000000 1.0
C      1  0.4997570000000  0.4844490000000  0.4967410000000 1.0
C      1  0.5918130000000  0.4798510000000  0.5160050000000 1.0
C      1  0.5354390000000  0.4760880000000  0.5890600000000 1.0
C      1  0.5234140000000  0.5032040000000  0.5961410000000 1.0
C      1  0.4875910000000  0.4146700000000  0.4738600000000 1.0
C      1  0.4751470000000  0.5624530000000  0.5668450000000 1.0
C      1  0.4433060000000  0.4879320000000  0.5800190000000 1.0
C      1  0.5213210000000  0.4804390000000  0.4732760000000 1.0
C      1  0.4216030000000  0.4474730000000  0.4605370000000 1.0
C      1  0.4916760000000  0.4731790000000  0.5665740000000 1.0
C      1  0.5234710000000  0.4916960000000  0.4155150000000 1.0
C      1  0.5360450000000  0.4063660000000  0.4734970000000 1.0
C      1  0.3980320000000  0.5215410000000  0.5160480000000 1.0
C      1  0.4718690000000  0.5407140000000  0.4767250000000 1.0
C      1  0.4479300000000  0.4705430000000  0.5010450000000 1.0
C      1  0.5442550000000  0.5537490000000  0.4593820000000 1.0
C      1  0.4749260000000  0.4493070000000  0.5923090000000 1.0
C      1  0.5899300000000  0.4892020000000  0.5433930000000 1.0
C      1  0.5049050000000  0.4703960000000  0.4068690000000 1.0
C      1  0.4511050000000  0.4382750000000  0.4603110000000 1.0
C      1  0.4334200000000  0.4747680000000  0.4197300000000 1.0
C      1  0.4128760000000  0.4757410000000  0.4605210000000 1.0
C      1  0.4598860000000  0.5841690000000  0.4521640000000 1.0
C      1  0.5236450000000  0.5874460000000  0.5163070000000 1.0
C      1  0.5901890000000  0.4497110000000  0.5093170000000 1.0
C      1  0.4410100000000  0.4514510000000  0.5476390000000 1.0
C      1  0.4668710000000  0.4592020000000  0.4770030000000 1.0
C      1  0.4899310000000  0.4422710000000  0.4844930000000 1.0
C      1  0.5887010000000  0.5359260000000  0.5050440000000 1.0
C      1  0.5272050000000  0.4808530000000  0.5316240000000 1.0
C      1  0.4262340000000  0.5192110000000  0.4814330000000 1.0
C      1  0.4953430000000  0.5816840000000  0.5553460000000 1.0
C      1  0.4577300000000  0.4733970000000  0.5313820000000 1.0
C      1  0.5584360000000  0.5733490000000  0.4817910000000 1.0
C      1  0.5014710000000  0.4409540000000  0.5912000000000 1.0
C      1  0.5770840000000  0.4697480000000  0.5605580000000 1.0
C      1  0.4723070000000  0.5443170000000  0.4281330000000 1.0
C      1  0.4808940000000  0.4963960000000  0.4334160000000 1.0
C      1  0.4506980000000  0.5567820000000  0.5490990000000 1.0
C      1  0.4598610000000  0.4077580000000  0.4805580000000 1.0
C      1  0.5355760000000  0.5923260000000  0.4883670000000 1.0
C      1  0.5639080000000  0.5051710000000  0.4790980000000 1.0
C      1  0.4418750000000  0.5780740000000  0.5328030000000 1.0
C      1  0.5929850000000  0.5016090000000  0.4709840000000 1.0
C      1  0.4329580000000  0.5177350000000  0.4433440000000 1.0
C      1  0.4655990000000  0.4396510000000  0.4338220000000 1.0
C      1  0.5055920000000  0.5291820000000  0.5489280000000 1.0
C      1  0.5389950000000  0.4356210000000  0.5569160000000 1.0
C      1  0.4932250000000  0.4294560000000  0.4327440000000 1.0
C      1  0.4322310000000  0.4120400000000  0.5213140000000 1.0
C      1  0.5088770000000  0.4099520000000  0.5176880000000 1.0
C      1  0.4647950000000  0.4754920000000  0.5945550000000 1.0
C      1  0.4172830000000  0.5154910000000  0.5365200000000 1.0
C      1  0.5695820000000  0.5608620000000  0.4470040000000 1.0
C      1  0.5770660000000  0.5238320000000  0.5510960000000 1.0
C      1  0.4956740000000  0.5423250000000  0.5765730000000 1.0
C      1  0.4291810000000  0.5410720000000  0.5033730000000 1.0
C      1  0.5619150000000  0.4504710000000  0.5439120000000 1.0
END
