TITL C-951345-2650-692 -9.92324011772496e-07 125000 -152.043272247399 0 0 26 (C1) n - 1
REM
REM in /home/bkarasulu/work/CARBON/AIRSS/Generating-Clusters/EDIP-Nigel-Params/with-SteepDescent/Only-C1/SD-CG/HFTN-CG
REM
REM
REM
REM
REM
REM ./C.cell (11c1c37f851c82e70ff6c80c92926a4b)
REM
REM compiler GCC version 9.2.1 20190827 (Red Hat 9.2.1-1)
REM options -cpp -mtune=generic -march=x86-64 -g -O0 -fpre-include=/usr/include/finclude/math-vector-fortran.h
REM seed -291491047 -1898134438 -1570630242 1776526135 -2050027822 1634150050 1912289057 1899850418 252309632 1066094003 -1351220323 1389323842 1591297937 1856268509 -2088919459 -125013572 -91179779 -892970545 1958122065 -1246070596 562128397 1754691027 1323353431 922859162 1619594375 1987172359 474667209 2131899623 1620604605 -1576928197 -1392152712 -1663685315 -1079777450
REM
CELL 1.54180   50.00000   50.00000   50.00000   90.00000   90.00000   90.00000
LATT -1
SFAC C  
C      1  0.4858180000000  0.5607520000000  0.5046280000000 1.0
C      1  0.4845770000000  0.5125480000000  0.4927040000000 1.0
C      1  0.5396360000000  0.4352190000000  0.4926340000000 1.0
C      1  0.4694920000000  0.5012230000000  0.5412880000000 1.0
C      1  0.5124700000000  0.5588630000000  0.5073390000000 1.0
C      1  0.5334460000000  0.5415190000000  0.5014490000000 1.0
C      1  0.5174660000000  0.4760000000000  0.4924270000000 1.0
C      1  0.4744530000000  0.5357550000000  0.5090240000000 1.0
C      1  0.5562690000000  0.5016420000000  0.5141990000000 1.0
C      1  0.5178780000000  0.5287240000000  0.4540020000000 1.0
C      1  0.4303100000000  0.4878940000000  0.5097440000000 1.0
C      1  0.5356680000000  0.5358540000000  0.4742580000000 1.0
C      1  0.4716950000000  0.5285490000000  0.5357310000000 1.0
C      1  0.4663590000000  0.4869900000000  0.4944910000000 1.0
C      1  0.5425910000000  0.4628950000000  0.4973640000000 1.0
C      1  0.4397600000000  0.4882530000000  0.4840300000000 1.0
C      1  0.4818650000000  0.4608220000000  0.5178360000000 1.0
C      1  0.4919850000000  0.4853230000000  0.5305980000000 1.0
C      1  0.4968580000000  0.5218110000000  0.4357600000000 1.0
C      1  0.5325640000000  0.5164420000000  0.5167880000000 1.0
C      1  0.5082450000000  0.4994110000000  0.5085530000000 1.0
C      1  0.4970840000000  0.4550360000000  0.4937120000000 1.0
C      1  0.4909010000000  0.5189690000000  0.4634640000000 1.0
C      1  0.4452810000000  0.4900130000000  0.5327380000000 1.0
C      1  0.5123090000000  0.4310640000000  0.4918250000000 1.0
C      1  0.5650210000000  0.4784280000000  0.5034170000000 1.0
END
