TITL C-951337-3020-695 3.69806419849729e-06 125000 -990.172158594965 0 0 160 (C1) n - 1
REM
REM in /home/bkarasulu/work/CARBON/AIRSS/Generating-Clusters/EDIP-Nigel-Params/with-SteepDescent/Only-C1/SD-CG/HFTN-CG
REM
REM
REM
REM
REM
REM ./C.cell (11c1c37f851c82e70ff6c80c92926a4b)
REM
REM compiler GCC version 9.2.1 20190827 (Red Hat 9.2.1-1)
REM options -cpp -mtune=generic -march=x86-64 -g -O0 -fpre-include=/usr/include/finclude/math-vector-fortran.h
REM seed -1588729684 -251695791 2007210682 -664483431 -1302345535 -585995507 -763103141 -1922556774 2072360712 1791407296 -211846352 -92412697 87970250 -404227336 -1484371810 -1522548218 -679427349 -1499309843 -1608953571 -630334614 -762434076 -1065496475 -2137443086 -868352581 1234025549 -784893189 634477018 418084896 -1187009612 389498786 828038148 -831070395 -553180649
REM
CELL 1.54180   50.00000   50.00000   50.00000   90.00000   90.00000   90.00000
LATT -1
SFAC C  
C      1  0.4357770000000  0.5108730000000  0.4378230000000 1.0
C      1  0.4859190000000  0.4462440000000  0.5386430000000 1.0
C      1  0.5331160000000  0.5834400000000  0.5505180000000 1.0
C      1  0.4772710000000  0.6096460000000  0.4838070000000 1.0
C      1  0.4603170000000  0.5334150000000  0.4936070000000 1.0
C      1  0.5621040000000  0.5223020000000  0.4766700000000 1.0
C      1  0.5375570000000  0.5318040000000  0.5220010000000 1.0
C      1  0.5138100000000  0.5275700000000  0.5959600000000 1.0
C      1  0.4855910000000  0.4909800000000  0.4768240000000 1.0
C      1  0.3859080000000  0.5077800000000  0.5032080000000 1.0
C      1  0.5456880000000  0.5802810000000  0.4244420000000 1.0
C      1  0.5543990000000  0.5707290000000  0.4896170000000 1.0
C      1  0.4756540000000  0.4511140000000  0.5879790000000 1.0
C      1  0.4857570000000  0.5272690000000  0.5858590000000 1.0
C      1  0.4837880000000  0.5168460000000  0.4200750000000 1.0
C      1  0.4481230000000  0.4175550000000  0.5189010000000 1.0
C      1  0.4914570000000  0.5235620000000  0.5237250000000 1.0
C      1  0.4361460000000  0.4658650000000  0.5319280000000 1.0
C      1  0.5645730000000  0.4381400000000  0.5152340000000 1.0
C      1  0.5299030000000  0.5479420000000  0.5822320000000 1.0
C      1  0.4405310000000  0.4621460000000  0.4179280000000 1.0
C      1  0.4516860000000  0.4853370000000  0.5146010000000 1.0
C      1  0.5017930000000  0.4509100000000  0.4078890000000 1.0
C      1  0.5351780000000  0.4608470000000  0.4605630000000 1.0
C      1  0.4369650000000  0.5786830000000  0.5494640000000 1.0
C      1  0.5305660000000  0.5427420000000  0.4515840000000 1.0
C      1  0.4109510000000  0.4768530000000  0.5664270000000 1.0
C      1  0.4085730000000  0.4704820000000  0.4873680000000 1.0
C      1  0.5470940000000  0.4830350000000  0.4082730000000 1.0
C      1  0.4485010000000  0.5146810000000  0.5163640000000 1.0
C      1  0.3983280000000  0.4724290000000  0.5386270000000 1.0
C      1  0.4799150000000  0.4803300000000  0.5932560000000 1.0
C      1  0.4818480000000  0.5590600000000  0.4921040000000 1.0
C      1  0.5033110000000  0.4070730000000  0.4538020000000 1.0
C      1  0.6017440000000  0.4805340000000  0.4331220000000 1.0
C      1  0.5632710000000  0.4457050000000  0.5634920000000 1.0
C      1  0.4834410000000  0.4454320000000  0.4619860000000 1.0
C      1  0.4768400000000  0.4743080000000  0.5020450000000 1.0
C      1  0.5230070000000  0.4375420000000  0.5004730000000 1.0
C      1  0.5325960000000  0.4000050000000  0.5508000000000 1.0
C      1  0.5087890000000  0.3892880000000  0.5409740000000 1.0
C      1  0.5198400000000  0.4910950000000  0.4176400000000 1.0
C      1  0.5461250000000  0.4124260000000  0.4655090000000 1.0
C      1  0.5004510000000  0.4781330000000  0.3984400000000 1.0
C      1  0.5529700000000  0.5104470000000  0.4483070000000 1.0
C      1  0.4651760000000  0.5125360000000  0.4710680000000 1.0
C      1  0.3861880000000  0.4886560000000  0.4819940000000 1.0
C      1  0.5749720000000  0.4229720000000  0.5492100000000 1.0
C      1  0.5262570000000  0.4651610000000  0.5099230000000 1.0
C      1  0.4577800000000  0.4409940000000  0.4197570000000 1.0
C      1  0.4361510000000  0.4984650000000  0.4668590000000 1.0
C      1  0.4159110000000  0.5323910000000  0.4422260000000 1.0
C      1  0.5258660000000  0.4368330000000  0.4149800000000 1.0
C      1  0.5851590000000  0.5428070000000  0.5185010000000 1.0
C      1  0.5132420000000  0.5037360000000  0.4794430000000 1.0
C      1  0.5131260000000  0.4703870000000  0.4401390000000 1.0
C      1  0.5758830000000  0.4725290000000  0.5598510000000 1.0
C      1  0.5791220000000  0.5512350000000  0.4479190000000 1.0
C      1  0.5447660000000  0.3988700000000  0.4395510000000 1.0
C      1  0.4682610000000  0.3989460000000  0.4794600000000 1.0
C      1  0.4814120000000  0.3905970000000  0.5468560000000 1.0
C      1  0.4937000000000  0.6162920000000  0.5077580000000 1.0
C      1  0.5376920000000  0.5975400000000  0.4849950000000 1.0
C      1  0.4118490000000  0.4580620000000  0.5143370000000 1.0
C      1  0.5837940000000  0.4451470000000  0.4949270000000 1.0
C      1  0.3969980000000  0.5201810000000  0.4623890000000 1.0
C      1  0.4631300000000  0.4778960000000  0.4288640000000 1.0
C      1  0.5917300000000  0.5196880000000  0.5370250000000 1.0
C      1  0.4478750000000  0.4446090000000  0.5828160000000 1.0
C      1  0.5126050000000  0.5293330000000  0.5021250000000 1.0
C      1  0.5575400000000  0.5476230000000  0.5709120000000 1.0
C      1  0.4733190000000  0.4038050000000  0.4503580000000 1.0
C      1  0.4976220000000  0.4730890000000  0.5248360000000 1.0
C      1  0.4580030000000  0.5893640000000  0.4898690000000 1.0
C      1  0.5239910000000  0.5016810000000  0.5988850000000 1.0
C      1  0.5250660000000  0.4339250000000  0.4715870000000 1.0
C      1  0.5402760000000  0.4402120000000  0.5805180000000 1.0
C      1  0.4853960000000  0.5711730000000  0.4602830000000 1.0
C      1  0.5878080000000  0.4704140000000  0.5340470000000 1.0
C      1  0.5910690000000  0.5056030000000  0.4273310000000 1.0
C      1  0.5204780000000  0.6050560000000  0.4641270000000 1.0
C      1  0.5304340000000  0.4148700000000  0.5742320000000 1.0
C      1  0.4631210000000  0.6168300000000  0.5313080000000 1.0
C      1  0.4420490000000  0.5172350000000  0.5887380000000 1.0
C      1  0.4531150000000  0.4237300000000  0.4905060000000 1.0
C      1  0.4219970000000  0.5645100000000  0.5053610000000 1.0
C      1  0.4624630000000  0.3945800000000  0.5265570000000 1.0
C      1  0.5621630000000  0.5574820000000  0.4249880000000 1.0
C      1  0.5230740000000  0.6054320000000  0.5086890000000 1.0
C      1  0.4639010000000  0.5511480000000  0.5556890000000 1.0
C      1  0.5562010000000  0.4063280000000  0.5354990000000 1.0
C      1  0.4332540000000  0.5541220000000  0.4552430000000 1.0
C      1  0.3889660000000  0.4995100000000  0.5305630000000 1.0
C      1  0.4633060000000  0.5316360000000  0.6035750000000 1.0
C      1  0.5595830000000  0.4984050000000  0.4958930000000 1.0
C      1  0.5083210000000  0.5600300000000  0.4452780000000 1.0
C      1  0.5211970000000  0.5125000000000  0.4503610000000 1.0
C      1  0.6016670000000  0.5202100000000  0.4768920000000 1.0
C      1  0.5219940000000  0.5806580000000  0.5231950000000 1.0
C      1  0.4607070000000  0.5635540000000  0.4423760000000 1.0
C      1  0.4648210000000  0.5734320000000  0.5754350000000 1.0
C      1  0.5582320000000  0.5552070000000  0.5211110000000 1.0
C      1  0.5625100000000  0.4999200000000  0.5535800000000 1.0
C      1  0.5652250000000  0.5075410000000  0.4114200000000 1.0
C      1  0.4331820000000  0.5917350000000  0.5036050000000 1.0
C      1  0.5943880000000  0.5261440000000  0.4480030000000 1.0
C      1  0.5911200000000  0.4934820000000  0.4938000000000 1.0
C      1  0.4298110000000  0.5271370000000  0.5375690000000 1.0
C      1  0.5486650000000  0.5339450000000  0.4139940000000 1.0
C      1  0.4374010000000  0.4701750000000  0.5751320000000 1.0
C      1  0.4501630000000  0.5244310000000  0.5597360000000 1.0
C      1  0.5692130000000  0.4252110000000  0.4536280000000 1.0
C      1  0.4812720000000  0.5961560000000  0.5376780000000 1.0
C      1  0.5849400000000  0.4698620000000  0.4527860000000 1.0
C      1  0.4881080000000  0.5402210000000  0.4032720000000 1.0
C      1  0.4972240000000  0.4266640000000  0.5065790000000 1.0
C      1  0.5165920000000  0.5716740000000  0.5719260000000 1.0
C      1  0.5516710000000  0.5066020000000  0.5243880000000 1.0
C      1  0.5185340000000  0.5726770000000  0.4206800000000 1.0
C      1  0.5104000000000  0.4776070000000  0.5971250000000 1.0
C      1  0.4693530000000  0.5585900000000  0.4148050000000 1.0
C      1  0.4371770000000  0.4350060000000  0.4657140000000 1.0
C      1  0.4961030000000  0.4995910000000  0.5405400000000 1.0
C      1  0.4810300000000  0.5018760000000  0.5671400000000 1.0
C      1  0.4378240000000  0.6026430000000  0.5310940000000 1.0
C      1  0.5210250000000  0.4100530000000  0.4287400000000 1.0
C      1  0.5941550000000  0.4670440000000  0.4802450000000 1.0
C      1  0.4034470000000  0.5170780000000  0.5487220000000 1.0
C      1  0.4927510000000  0.6004200000000  0.4612550000000 1.0
C      1  0.4255420000000  0.4613470000000  0.4661610000000 1.0
C      1  0.4927790000000  0.5727500000000  0.5223490000000 1.0
C      1  0.4329510000000  0.5451890000000  0.4845550000000 1.0
C      1  0.5182030000000  0.4578870000000  0.5771410000000 1.0
C      1  0.5996260000000  0.4937850000000  0.5223990000000 1.0
C      1  0.4265800000000  0.5563880000000  0.5327260000000 1.0
C      1  0.4948500000000  0.4007590000000  0.4913820000000 1.0
C      1  0.4088730000000  0.5046490000000  0.5741930000000 1.0
C      1  0.4951360000000  0.4397350000000  0.5682870000000 1.0
C      1  0.4767420000000  0.4439550000000  0.4911820000000 1.0
C      1  0.4179940000000  0.5179720000000  0.4840230000000 1.0
C      1  0.5400260000000  0.5450490000000  0.4802760000000 1.0
C      1  0.4856910000000  0.4722630000000  0.4522110000000 1.0
C      1  0.5618950000000  0.4525770000000  0.4457710000000 1.0
C      1  0.4766640000000  0.4924210000000  0.4069490000000 1.0
C      1  0.5519460000000  0.4540110000000  0.4170330000000 1.0
C      1  0.5753160000000  0.5236760000000  0.5674330000000 1.0
C      1  0.5514130000000  0.4625010000000  0.5244900000000 1.0
C      1  0.4618120000000  0.4311750000000  0.4470620000000 1.0
C      1  0.5805140000000  0.5653030000000  0.4743920000000 1.0
C      1  0.5584720000000  0.5684200000000  0.5489950000000 1.0
C      1  0.4910470000000  0.5819630000000  0.5783190000000 1.0
C      1  0.4631530000000  0.5245610000000  0.4410660000000 1.0
C      1  0.4742470000000  0.4077660000000  0.5684670000000 1.0
C      1  0.4505570000000  0.4242590000000  0.5629040000000 1.0
C      1  0.5343860000000  0.4818020000000  0.4856200000000 1.0
C      1  0.5960650000000  0.5458690000000  0.4914940000000 1.0
C      1  0.4545540000000  0.4397400000000  0.5375070000000 1.0
C      1  0.4874940000000  0.5485320000000  0.5382180000000 1.0
C      1  0.4488510000000  0.4886410000000  0.5940390000000 1.0
C      1  0.5163820000000  0.5494680000000  0.4028930000000 1.0
END
