TITL C-951336-9012-357 -8.71656104549448e-07 125000 -782.469195969107 0 0 125 (C1) n - 1
REM
REM in /home/bkarasulu/work/CARBON/AIRSS/Generating-Clusters/EDIP-Nigel-Params/with-SteepDescent/Only-C1/SD-CG/HFTN-CG
REM
REM
REM
REM
REM
REM ./C.cell (11c1c37f851c82e70ff6c80c92926a4b)
REM
REM compiler GCC version 9.2.1 20190827 (Red Hat 9.2.1-1)
REM options -cpp -mtune=generic -march=x86-64 -g -O0 -fpre-include=/usr/include/finclude/math-vector-fortran.h
REM seed 1478378723 446373338 2022313357 -467639185 -1567221089 1178347373 939842151 576923897 2129198802 -735906140 -1599126120 -1249854108 -1731088177 -965966680 -1920773306 -505437792 1280156336 290652173 -1508671705 -1638966696 -1049722106 321580403 507038382 -988673256 1164949775 506466116 -193831293 573203585 676696273 -1528583817 480213839 157518173 -1082360687
REM
CELL 1.54180   50.00000   50.00000   50.00000   90.00000   90.00000   90.00000
LATT -1
SFAC C  
C      1  0.4829070000000  0.4026940000000  0.5518010000000 1.0
C      1  0.4579550000000  0.5236060000000  0.5719490000000 1.0
C      1  0.4144920000000  0.5037870000000  0.4698140000000 1.0
C      1  0.4372620000000  0.4756460000000  0.5520670000000 1.0
C      1  0.5833930000000  0.4687500000000  0.4963560000000 1.0
C      1  0.4725190000000  0.5102770000000  0.4143850000000 1.0
C      1  0.4979830000000  0.4081750000000  0.4773540000000 1.0
C      1  0.5417970000000  0.5972080000000  0.5230890000000 1.0
C      1  0.5789510000000  0.4648490000000  0.5253110000000 1.0
C      1  0.5184280000000  0.5821530000000  0.4864470000000 1.0
C      1  0.5341600000000  0.5122240000000  0.5022660000000 1.0
C      1  0.4722910000000  0.5477030000000  0.5830700000000 1.0
C      1  0.4439990000000  0.5339820000000  0.5459230000000 1.0
C      1  0.4389850000000  0.4107340000000  0.5247660000000 1.0
C      1  0.4681200000000  0.4436810000000  0.5289670000000 1.0
C      1  0.5788630000000  0.4888720000000  0.5408360000000 1.0
C      1  0.4301100000000  0.4363690000000  0.4847180000000 1.0
C      1  0.5590570000000  0.5744880000000  0.5228030000000 1.0
C      1  0.5455880000000  0.4925620000000  0.5210070000000 1.0
C      1  0.5145170000000  0.4527420000000  0.4215310000000 1.0
C      1  0.4925010000000  0.4143270000000  0.5080640000000 1.0
C      1  0.4337770000000  0.4713710000000  0.4432780000000 1.0
C      1  0.4140470000000  0.4433580000000  0.5084200000000 1.0
C      1  0.5446120000000  0.4455590000000  0.5592600000000 1.0
C      1  0.4943220000000  0.5717630000000  0.5461270000000 1.0
C      1  0.4350580000000  0.5709680000000  0.4891660000000 1.0
C      1  0.4290470000000  0.5001500000000  0.4448320000000 1.0
C      1  0.4324030000000  0.4558600000000  0.5713070000000 1.0
C      1  0.5485170000000  0.4263650000000  0.5169590000000 1.0
C      1  0.5142770000000  0.4756990000000  0.5491090000000 1.0
C      1  0.5858040000000  0.5194340000000  0.5028460000000 1.0
C      1  0.4619040000000  0.5227430000000  0.4974870000000 1.0
C      1  0.5101600000000  0.4892280000000  0.4648640000000 1.0
C      1  0.4756670000000  0.5766260000000  0.4656690000000 1.0
C      1  0.5103580000000  0.4675490000000  0.3983570000000 1.0
C      1  0.4909540000000  0.5607190000000  0.4253020000000 1.0
C      1  0.5433430000000  0.5687300000000  0.4482050000000 1.0
C      1  0.5054110000000  0.5497580000000  0.5032880000000 1.0
C      1  0.4902720000000  0.5286270000000  0.4862360000000 1.0
C      1  0.4946840000000  0.4871200000000  0.5088580000000 1.0
C      1  0.4879350000000  0.4714990000000  0.4594540000000 1.0
C      1  0.5040540000000  0.4976960000000  0.5942470000000 1.0
C      1  0.5393640000000  0.4374830000000  0.4596400000000 1.0
C      1  0.5489640000000  0.5295330000000  0.4173650000000 1.0
C      1  0.5244220000000  0.5553170000000  0.5827090000000 1.0
C      1  0.5416970000000  0.4474480000000  0.4310620000000 1.0
C      1  0.4530400000000  0.4626260000000  0.4231110000000 1.0
C      1  0.4540780000000  0.4383330000000  0.5725590000000 1.0
C      1  0.5638630000000  0.4418380000000  0.5365500000000 1.0
C      1  0.4103510000000  0.4731960000000  0.5110060000000 1.0
C      1  0.4635800000000  0.4843530000000  0.4085190000000 1.0
C      1  0.5079100000000  0.5041200000000  0.4899480000000 1.0
C      1  0.5730610000000  0.4538660000000  0.4717910000000 1.0
C      1  0.4923250000000  0.5938880000000  0.5257070000000 1.0
C      1  0.5385780000000  0.4621760000000  0.5077410000000 1.0
C      1  0.4650890000000  0.5934600000000  0.5128640000000 1.0
C      1  0.5804620000000  0.5163030000000  0.5323660000000 1.0
C      1  0.4907090000000  0.5457100000000  0.5303430000000 1.0
C      1  0.4689200000000  0.5709440000000  0.5651300000000 1.0
C      1  0.5140800000000  0.5720130000000  0.4408340000000 1.0
C      1  0.4799320000000  0.5001730000000  0.5734430000000 1.0
C      1  0.4684140000000  0.4045730000000  0.4793190000000 1.0
C      1  0.4838310000000  0.4505720000000  0.5772800000000 1.0
C      1  0.5899260000000  0.4963000000000  0.4593230000000 1.0
C      1  0.5378590000000  0.5235250000000  0.4598750000000 1.0
C      1  0.4840420000000  0.4753420000000  0.5572350000000 1.0
C      1  0.5922660000000  0.4951150000000  0.4879070000000 1.0
C      1  0.4245100000000  0.4839350000000  0.4879850000000 1.0
C      1  0.4637420000000  0.5357540000000  0.5238710000000 1.0
C      1  0.5998330000000  0.5188350000000  0.4462100000000 1.0
C      1  0.5123570000000  0.5277710000000  0.4432340000000 1.0
C      1  0.5093250000000  0.4297480000000  0.4611400000000 1.0
C      1  0.5020120000000  0.5159710000000  0.4075470000000 1.0
C      1  0.5463870000000  0.5791570000000  0.4758780000000 1.0
C      1  0.4656280000000  0.4888250000000  0.5040980000000 1.0
C      1  0.4135350000000  0.4230520000000  0.5282950000000 1.0
C      1  0.5378260000000  0.4938540000000  0.4535860000000 1.0
C      1  0.5006010000000  0.5383990000000  0.5782480000000 1.0
C      1  0.5558980000000  0.5415850000000  0.4444840000000 1.0
C      1  0.5437990000000  0.4635660000000  0.4766210000000 1.0
C      1  0.4502730000000  0.4188630000000  0.4973170000000 1.0
C      1  0.4621620000000  0.4720140000000  0.5351630000000 1.0
C      1  0.4416300000000  0.5806360000000  0.5254300000000 1.0
C      1  0.5168900000000  0.6004170000000  0.5097730000000 1.0
C      1  0.4989510000000  0.4256650000000  0.5643050000000 1.0
C      1  0.5309700000000  0.5390290000000  0.5128430000000 1.0
C      1  0.5265350000000  0.4239120000000  0.5562650000000 1.0
C      1  0.5018600000000  0.5868090000000  0.4629500000000 1.0
C      1  0.5296580000000  0.5178810000000  0.5913560000000 1.0
C      1  0.5623230000000  0.5318860000000  0.5513040000000 1.0
C      1  0.4150350000000  0.4887030000000  0.5374170000000 1.0
C      1  0.4934500000000  0.4475810000000  0.4422060000000 1.0
C      1  0.5458500000000  0.5109330000000  0.5667370000000 1.0
C      1  0.5198160000000  0.4930120000000  0.4039090000000 1.0
C      1  0.4430690000000  0.5650040000000  0.5502000000000 1.0
C      1  0.5833060000000  0.5441330000000  0.4862550000000 1.0
C      1  0.5105570000000  0.4646500000000  0.5207530000000 1.0
C      1  0.5213660000000  0.5418480000000  0.4091670000000 1.0
C      1  0.5106510000000  0.4683470000000  0.5922150000000 1.0
C      1  0.4076000000000  0.5280890000000  0.5100340000000 1.0
C      1  0.4581340000000  0.4214810000000  0.5464180000000 1.0
C      1  0.4188940000000  0.5186290000000  0.5339270000000 1.0
C      1  0.4133340000000  0.5298380000000  0.4825680000000 1.0
C      1  0.4964330000000  0.4384580000000  0.5273180000000 1.0
C      1  0.5013670000000  0.5239570000000  0.5499840000000 1.0
C      1  0.4650530000000  0.5676160000000  0.4401660000000 1.0
C      1  0.5820450000000  0.4702980000000  0.4480890000000 1.0
C      1  0.5441140000000  0.4979140000000  0.4206950000000 1.0
C      1  0.5244060000000  0.5678380000000  0.5563140000000 1.0
C      1  0.5293330000000  0.4088090000000  0.5319280000000 1.0
C      1  0.5617360000000  0.4692300000000  0.4261060000000 1.0
C      1  0.5364320000000  0.4648370000000  0.5791070000000 1.0
C      1  0.4384200000000  0.4630230000000  0.4722070000000 1.0
C      1  0.5443690000000  0.5528450000000  0.5371400000000 1.0
C      1  0.4464440000000  0.5444800000000  0.4468530000000 1.0
C      1  0.5261640000000  0.5033670000000  0.5450510000000 1.0
C      1  0.4576880000000  0.5883650000000  0.4847250000000 1.0
C      1  0.4624370000000  0.5183700000000  0.4419140000000 1.0
C      1  0.5840170000000  0.5400840000000  0.4562520000000 1.0
C      1  0.4392430000000  0.5433540000000  0.4779230000000 1.0
C      1  0.5009640000000  0.3941660000000  0.5280830000000 1.0
C      1  0.4683990000000  0.4395500000000  0.4297070000000 1.0
C      1  0.4659510000000  0.4706940000000  0.4793880000000 1.0
C      1  0.5629500000000  0.5642430000000  0.4950540000000 1.0
C      1  0.4870200000000  0.5348320000000  0.4568600000000 1.0
END
