TITL C-950530-3293-409 3.7151554777668e-08 125000 -963.808447151991 0 0 154 (C1) n - 1
REM
REM in /home/bkarasulu/work/CARBON/AIRSS/Generating-Clusters/EDIP-Nigel-Params/with-SteepDescent/Only-C1/SD-CG/HFTN-CG
REM
REM
REM
REM
REM
REM ./C.cell (11c1c37f851c82e70ff6c80c92926a4b)
REM
REM compiler GCC version 9.2.1 20190827 (Red Hat 9.2.1-1)
REM options -cpp -mtune=generic -march=x86-64 -g -O0 -fpre-include=/usr/include/finclude/math-vector-fortran.h
REM seed 1457082274 802421715 430643618 -19599554 -1749988084 1491959282 -1463529669 2133554290 1242941047 -1993930704 1844347961 1680872941 -701405715 -1570152203 -449995010 -729802730 -402097957 605373383 -1887674012 -396308871 -1004806147 -991775301 1493097965 1137675146 305349050 495234504 642793619 1469948519 -317819058 852222937 -2114785664 1347328862 -1999736426
REM
CELL 1.54180   50.00000   50.00000   50.00000   90.00000   90.00000   90.00000
LATT -1
SFAC C  
C      1  0.4347740000000  0.5689290000000  0.5409160000000 1.0
C      1  0.4566240000000  0.5591460000000  0.4351820000000 1.0
C      1  0.5053150000000  0.4851960000000  0.4881220000000 1.0
C      1  0.5329750000000  0.4435620000000  0.4975800000000 1.0
C      1  0.5001830000000  0.5550400000000  0.6065870000000 1.0
C      1  0.5310960000000  0.4411260000000  0.5286800000000 1.0
C      1  0.5105390000000  0.4556140000000  0.4812070000000 1.0
C      1  0.4745920000000  0.5891570000000  0.5221460000000 1.0
C      1  0.5041040000000  0.4663810000000  0.5653190000000 1.0
C      1  0.5136990000000  0.4167320000000  0.5382760000000 1.0
C      1  0.4831580000000  0.5097040000000  0.5816980000000 1.0
C      1  0.5176690000000  0.5764910000000  0.5418680000000 1.0
C      1  0.5763060000000  0.5569900000000  0.4648970000000 1.0
C      1  0.4249800000000  0.4496570000000  0.4929230000000 1.0
C      1  0.4562950000000  0.4023520000000  0.4912780000000 1.0
C      1  0.4566840000000  0.4694290000000  0.5784580000000 1.0
C      1  0.4589450000000  0.5281160000000  0.5832510000000 1.0
C      1  0.5465790000000  0.5027250000000  0.4356250000000 1.0
C      1  0.5486920000000  0.4417950000000  0.4499440000000 1.0
C      1  0.5195760000000  0.4692540000000  0.5393260000000 1.0
C      1  0.5486780000000  0.4595290000000  0.6085460000000 1.0
C      1  0.5092290000000  0.5799710000000  0.4466590000000 1.0
C      1  0.4301570000000  0.4378950000000  0.4663480000000 1.0
C      1  0.4998980000000  0.5527080000000  0.4089420000000 1.0
C      1  0.5041090000000  0.5233320000000  0.5653320000000 1.0
C      1  0.4494940000000  0.5038140000000  0.4173520000000 1.0
C      1  0.4840610000000  0.4432940000000  0.5178190000000 1.0
C      1  0.5456120000000  0.4131280000000  0.4860290000000 1.0
C      1  0.4931090000000  0.5434270000000  0.4661040000000 1.0
C      1  0.4552810000000  0.4769090000000  0.4061730000000 1.0
C      1  0.4006350000000  0.5317490000000  0.4527380000000 1.0
C      1  0.5181780000000  0.4532160000000  0.4516500000000 1.0
C      1  0.4605310000000  0.4651610000000  0.4819270000000 1.0
C      1  0.4750770000000  0.5144470000000  0.4285250000000 1.0
C      1  0.5299600000000  0.5355720000000  0.5773580000000 1.0
C      1  0.5651770000000  0.5552910000000  0.5406940000000 1.0
C      1  0.4418170000000  0.4089260000000  0.5160160000000 1.0
C      1  0.4328780000000  0.5169280000000  0.5743640000000 1.0
C      1  0.4238860000000  0.5458930000000  0.4622070000000 1.0
C      1  0.5170260000000  0.5081820000000  0.4033120000000 1.0
C      1  0.4311780000000  0.4848260000000  0.5681210000000 1.0
C      1  0.5494620000000  0.4894490000000  0.4635540000000 1.0
C      1  0.4443160000000  0.4535080000000  0.4197230000000 1.0
C      1  0.4657080000000  0.4430300000000  0.5867370000000 1.0
C      1  0.3953020000000  0.5146300000000  0.4760830000000 1.0
C      1  0.4187810000000  0.4740780000000  0.5410740000000 1.0
C      1  0.5766910000000  0.5151470000000  0.4352310000000 1.0
C      1  0.5982200000000  0.5277930000000  0.5106630000000 1.0
C      1  0.4628270000000  0.5277890000000  0.5051420000000 1.0
C      1  0.4040260000000  0.4707630000000  0.4951890000000 1.0
C      1  0.5413560000000  0.4846470000000  0.5503250000000 1.0
C      1  0.4270140000000  0.5652950000000  0.5117120000000 1.0
C      1  0.3993880000000  0.4857840000000  0.4705770000000 1.0
C      1  0.5931830000000  0.4922880000000  0.4287660000000 1.0
C      1  0.5095420000000  0.5802270000000  0.5694450000000 1.0
C      1  0.5067770000000  0.5432420000000  0.5142960000000 1.0
C      1  0.4858970000000  0.5922240000000  0.4317260000000 1.0
C      1  0.4589530000000  0.4302970000000  0.4129670000000 1.0
C      1  0.5439760000000  0.5170430000000  0.3942330000000 1.0
C      1  0.5441630000000  0.5105960000000  0.5386650000000 1.0
C      1  0.5518960000000  0.4918490000000  0.6039870000000 1.0
C      1  0.5471500000000  0.5586390000000  0.4237090000000 1.0
C      1  0.5034880000000  0.5919340000000  0.5220250000000 1.0
C      1  0.5545680000000  0.4744010000000  0.5091220000000 1.0
C      1  0.5000860000000  0.5810070000000  0.4747550000000 1.0
C      1  0.5463010000000  0.4120920000000  0.4564800000000 1.0
C      1  0.5808370000000  0.5507850000000  0.5152640000000 1.0
C      1  0.4355440000000  0.4584100000000  0.4470560000000 1.0
C      1  0.5454750000000  0.5757290000000  0.5330850000000 1.0
C      1  0.5679470000000  0.4745200000000  0.4820820000000 1.0
C      1  0.5965950000000  0.5151490000000  0.4841920000000 1.0
C      1  0.4681870000000  0.5358600000000  0.4487050000000 1.0
C      1  0.4180250000000  0.5417390000000  0.5477750000000 1.0
C      1  0.4932610000000  0.5244760000000  0.4063720000000 1.0
C      1  0.4434260000000  0.5237970000000  0.4620250000000 1.0
C      1  0.5302820000000  0.5486150000000  0.4977070000000 1.0
C      1  0.5611470000000  0.5051590000000  0.5157950000000 1.0
C      1  0.4880000000000  0.5348270000000  0.4939850000000 1.0
C      1  0.5592230000000  0.5365170000000  0.4098760000000 1.0
C      1  0.5694970000000  0.4472540000000  0.4727910000000 1.0
C      1  0.5186590000000  0.5913100000000  0.4962200000000 1.0
C      1  0.4857730000000  0.4393810000000  0.4133380000000 1.0
C      1  0.5155190000000  0.4794630000000  0.4104480000000 1.0
C      1  0.4645120000000  0.5190820000000  0.5326250000000 1.0
C      1  0.4348670000000  0.5147050000000  0.5427840000000 1.0
C      1  0.5135670000000  0.4816580000000  0.4396480000000 1.0
C      1  0.5032140000000  0.4892390000000  0.5196070000000 1.0
C      1  0.4775640000000  0.6001490000000  0.4747690000000 1.0
C      1  0.4810180000000  0.5743620000000  0.5786950000000 1.0
C      1  0.5098850000000  0.5285980000000  0.6178560000000 1.0
C      1  0.4782370000000  0.4837100000000  0.5647860000000 1.0
C      1  0.4089080000000  0.4894000000000  0.5175030000000 1.0
C      1  0.4198610000000  0.4285880000000  0.5137640000000 1.0
C      1  0.5251660000000  0.3979360000000  0.4456210000000 1.0
C      1  0.5635160000000  0.5694400000000  0.4434440000000 1.0
C      1  0.5057720000000  0.4186840000000  0.5678150000000 1.0
C      1  0.4867240000000  0.4924060000000  0.4457910000000 1.0
C      1  0.5839770000000  0.5290420000000  0.4614040000000 1.0
C      1  0.5277650000000  0.5049490000000  0.4756710000000 1.0
C      1  0.5549580000000  0.5319040000000  0.5577940000000 1.0
C      1  0.5762120000000  0.5184860000000  0.5717110000000 1.0
C      1  0.4886820000000  0.4154300000000  0.5226510000000 1.0
C      1  0.4995870000000  0.4334930000000  0.4380910000000 1.0
C      1  0.5678200000000  0.4347360000000  0.5232350000000 1.0
C      1  0.5189880000000  0.5546100000000  0.4325680000000 1.0
C      1  0.5721770000000  0.4251180000000  0.4953120000000 1.0
C      1  0.5964580000000  0.5067370000000  0.5299640000000 1.0
C      1  0.4848630000000  0.4050580000000  0.4953840000000 1.0
C      1  0.5608620000000  0.4528570000000  0.4239990000000 1.0
C      1  0.5178650000000  0.5156340000000  0.5245410000000 1.0
C      1  0.4278260000000  0.5079750000000  0.4392210000000 1.0
C      1  0.5358650000000  0.5209510000000  0.6035790000000 1.0
C      1  0.4558380000000  0.4117140000000  0.5517550000000 1.0
C      1  0.5721120000000  0.4926820000000  0.5817350000000 1.0
C      1  0.5438870000000  0.5747200000000  0.5028940000000 1.0
C      1  0.4758030000000  0.5705360000000  0.4145960000000 1.0
C      1  0.4455580000000  0.4147400000000  0.4684460000000 1.0
C      1  0.4101530000000  0.5407470000000  0.5171610000000 1.0
C      1  0.4900060000000  0.4656120000000  0.4012620000000 1.0
C      1  0.5143370000000  0.4830970000000  0.5994790000000 1.0
C      1  0.5978630000000  0.4801280000000  0.5185540000000 1.0
C      1  0.4359720000000  0.5752160000000  0.4564700000000 1.0
C      1  0.5433290000000  0.5217730000000  0.4949940000000 1.0
C      1  0.4144870000000  0.5152090000000  0.5011240000000 1.0
C      1  0.4459820000000  0.4396540000000  0.5478350000000 1.0
C      1  0.5856020000000  0.4662980000000  0.4262490000000 1.0
C      1  0.4508280000000  0.4784830000000  0.5113590000000 1.0
C      1  0.5220970000000  0.5625890000000  0.5885970000000 1.0
C      1  0.4951590000000  0.5041480000000  0.6089180000000 1.0
C      1  0.5439930000000  0.4696290000000  0.4061870000000 1.0
C      1  0.4639360000000  0.5998940000000  0.4496720000000 1.0
C      1  0.4603780000000  0.5955870000000  0.4973290000000 1.0
C      1  0.5169300000000  0.5240860000000  0.4518050000000 1.0
C      1  0.5732370000000  0.5684290000000  0.4922680000000 1.0
C      1  0.4193130000000  0.4821510000000  0.4497540000000 1.0
C      1  0.5583380000000  0.4925560000000  0.3977960000000 1.0
C      1  0.4597600000000  0.5847480000000  0.5477260000000 1.0
C      1  0.4571310000000  0.4506960000000  0.5229420000000 1.0
C      1  0.5189890000000  0.4566210000000  0.6148230000000 1.0
C      1  0.4785860000000  0.4893800000000  0.4739110000000 1.0
C      1  0.4863570000000  0.5377810000000  0.5460750000000 1.0
C      1  0.5631690000000  0.4705990000000  0.5630690000000 1.0
C      1  0.5185120000000  0.4433640000000  0.5809570000000 1.0
C      1  0.4668950000000  0.5508780000000  0.5648040000000 1.0
C      1  0.4169550000000  0.4433080000000  0.5409010000000 1.0
C      1  0.5742340000000  0.4629420000000  0.5298900000000 1.0
C      1  0.4838220000000  0.4430730000000  0.4881220000000 1.0
C      1  0.4753940000000  0.4190260000000  0.5736600000000 1.0
C      1  0.4743140000000  0.4906770000000  0.5318560000000 1.0
C      1  0.5951690000000  0.4857070000000  0.4887080000000 1.0
C      1  0.4440450000000  0.5112730000000  0.4906650000000 1.0
C      1  0.4997600000000  0.4064890000000  0.4451220000000 1.0
C      1  0.5506210000000  0.4481140000000  0.5801480000000 1.0
C      1  0.4392110000000  0.5783730000000  0.4881470000000 1.0
END
