TITL C-951333-8791-235 -7.61558526247705e-07 125000 -331.018665934692 0 0 54 (C1) n - 1
REM
REM in /home/bkarasulu/work/CARBON/AIRSS/Generating-Clusters/EDIP-Nigel-Params/with-SteepDescent/Only-C1/SD-CG/HFTN-CG
REM
REM
REM
REM
REM
REM ./C.cell (11c1c37f851c82e70ff6c80c92926a4b)
REM
REM compiler GCC version 9.2.1 20190827 (Red Hat 9.2.1-1)
REM options -cpp -mtune=generic -march=x86-64 -g -O0 -fpre-include=/usr/include/finclude/math-vector-fortran.h
REM seed -553841348 1644954891 1081249150 -1322419141 1485249141 344221201 331926562 -151855071 -266152629 1350638736 -1224963094 -1872011251 1983227086 -1467279256 -1859181057 -1561396985 960669407 214313904 -2101403922 2004184669 579223151 380740750 1906955076 -388957088 750275945 -126031597 -1536826501 -1667780119 -777329009 200200081 -553311600 -77757455 -377802373
REM
CELL 1.54180   50.00000   50.00000   50.00000   90.00000   90.00000   90.00000
LATT -1
SFAC C  
C      1  0.5382050000000  0.4839230000000  0.4571210000000 1.0
C      1  0.5443680000000  0.4940880000000  0.5170540000000 1.0
C      1  0.4807580000000  0.4105870000000  0.4938020000000 1.0
C      1  0.4700220000000  0.5024620000000  0.5540810000000 1.0
C      1  0.5292490000000  0.4669630000000  0.4794410000000 1.0
C      1  0.4550880000000  0.4119220000000  0.5009270000000 1.0
C      1  0.5537740000000  0.5534880000000  0.4476380000000 1.0
C      1  0.5157100000000  0.5070810000000  0.5155840000000 1.0
C      1  0.4525030000000  0.4548880000000  0.5259180000000 1.0
C      1  0.5462580000000  0.5253660000000  0.4855080000000 1.0
C      1  0.4846520000000  0.5617990000000  0.4952800000000 1.0
C      1  0.4877370000000  0.5407430000000  0.4492560000000 1.0
C      1  0.4516990000000  0.5045810000000  0.4685490000000 1.0
C      1  0.5420520000000  0.4665760000000  0.5058190000000 1.0
C      1  0.4374270000000  0.4812410000000  0.4784080000000 1.0
C      1  0.4968930000000  0.4848530000000  0.4415670000000 1.0
C      1  0.5304080000000  0.4524080000000  0.5302210000000 1.0
C      1  0.4872410000000  0.4951200000000  0.5058330000000 1.0
C      1  0.5129100000000  0.5527900000000  0.4963660000000 1.0
C      1  0.4708150000000  0.5520830000000  0.5206790000000 1.0
C      1  0.4874410000000  0.5252970000000  0.5625170000000 1.0
C      1  0.4801710000000  0.4558700000000  0.5381000000000 1.0
C      1  0.4473020000000  0.4388740000000  0.5011430000000 1.0
C      1  0.4222570000000  0.4855510000000  0.5018850000000 1.0
C      1  0.5632330000000  0.5092240000000  0.5011490000000 1.0
C      1  0.5232010000000  0.4772850000000  0.4338370000000 1.0
C      1  0.4522740000000  0.5299100000000  0.5140210000000 1.0
C      1  0.5138500000000  0.5138800000000  0.5717790000000 1.0
C      1  0.4847020000000  0.4769120000000  0.5584980000000 1.0
C      1  0.5009370000000  0.4301170000000  0.4974620000000 1.0
C      1  0.4874240000000  0.4601650000000  0.4571150000000 1.0
C      1  0.4927750000000  0.5442170000000  0.5394110000000 1.0
C      1  0.4804950000000  0.5094610000000  0.4799860000000 1.0
C      1  0.4828380000000  0.4648700000000  0.4953000000000 1.0
C      1  0.5333710000000  0.5697620000000  0.4831110000000 1.0
C      1  0.5032710000000  0.4410400000000  0.5259860000000 1.0
C      1  0.4998680000000  0.5125290000000  0.4566120000000 1.0
C      1  0.4693180000000  0.5513390000000  0.4716280000000 1.0
C      1  0.5357010000000  0.4709000000000  0.5539660000000 1.0
C      1  0.4486680000000  0.5315760000000  0.4834830000000 1.0
C      1  0.4558410000000  0.4578300000000  0.4789310000000 1.0
C      1  0.4622980000000  0.5030650000000  0.5248240000000 1.0
C      1  0.5338070000000  0.5137080000000  0.4602280000000 1.0
C      1  0.5407510000000  0.5423560000000  0.5386980000000 1.0
C      1  0.4409850000000  0.4820910000000  0.5225880000000 1.0
C      1  0.5361350000000  0.5286300000000  0.5620400000000 1.0
C      1  0.5575880000000  0.5516590000000  0.4785680000000 1.0
C      1  0.5121590000000  0.4841840000000  0.5666910000000 1.0
C      1  0.5544240000000  0.4908870000000  0.5450930000000 1.0
C      1  0.5453070000000  0.5282120000000  0.4377700000000 1.0
C      1  0.5168240000000  0.5368420000000  0.5225020000000 1.0
C      1  0.5109160000000  0.4456820000000  0.4718070000000 1.0
C      1  0.5063400000000  0.5603690000000  0.4424600000000 1.0
C      1  0.5297560000000  0.5727450000000  0.4517620000000 1.0
END
