TITL C-951338-5626-162 -1.89979743164437e-06 125000 -1041.39870173616 0 0 168 (C1) n - 1
REM
REM in /home/bkarasulu/work/CARBON/AIRSS/Generating-Clusters/EDIP-Nigel-Params/with-SteepDescent/Only-C1/SD-CG/HFTN-CG
REM
REM
REM
REM
REM
REM ./C.cell (11c1c37f851c82e70ff6c80c92926a4b)
REM
REM compiler GCC version 9.2.1 20190827 (Red Hat 9.2.1-1)
REM options -cpp -mtune=generic -march=x86-64 -g -O0 -fpre-include=/usr/include/finclude/math-vector-fortran.h
REM seed 1011277004 -204764989 1844170413 -10499571 179983086 -2043087682 1096660876 -723542870 -1656075724 -1101175943 -1737622811 -1037036440 -505689973 1854526660 -936361168 -1194557592 -1286138144 -81693073 318762365 1259362487 -542099876 1259231567 -82187593 488618220 1514987854 20489954 192304416 -2066925365 -943755283 -611119027 357770116 -1117429747 -920047280
REM
CELL 1.54180   50.00000   50.00000   50.00000   90.00000   90.00000   90.00000
LATT -1
SFAC C  
C      1  0.5341530000000  0.5115940000000  0.5015950000000 1.0
C      1  0.4052250000000  0.5672730000000  0.5361880000000 1.0
C      1  0.4529480000000  0.5533680000000  0.4341860000000 1.0
C      1  0.4180710000000  0.5094000000000  0.4343000000000 1.0
C      1  0.4875580000000  0.5384930000000  0.5048120000000 1.0
C      1  0.4590480000000  0.4456260000000  0.4170340000000 1.0
C      1  0.4801900000000  0.5951010000000  0.5536860000000 1.0
C      1  0.4988900000000  0.4865250000000  0.5631500000000 1.0
C      1  0.4243890000000  0.5373750000000  0.4433290000000 1.0
C      1  0.5524680000000  0.5770540000000  0.5668690000000 1.0
C      1  0.3992130000000  0.5208920000000  0.5184270000000 1.0
C      1  0.3959610000000  0.5082180000000  0.4906410000000 1.0
C      1  0.4997320000000  0.5784650000000  0.4426030000000 1.0
C      1  0.4940280000000  0.4831250000000  0.4644650000000 1.0
C      1  0.4749100000000  0.5204340000000  0.3947360000000 1.0
C      1  0.4410960000000  0.4829950000000  0.5866260000000 1.0
C      1  0.4260770000000  0.5165040000000  0.5338040000000 1.0
C      1  0.5282120000000  0.4487590000000  0.4085230000000 1.0
C      1  0.4484910000000  0.5362480000000  0.5406360000000 1.0
C      1  0.4845910000000  0.4453550000000  0.4325790000000 1.0
C      1  0.4703320000000  0.5191170000000  0.5543920000000 1.0
C      1  0.4771650000000  0.5127800000000  0.4602910000000 1.0
C      1  0.5961810000000  0.5292200000000  0.5151080000000 1.0
C      1  0.4712590000000  0.6017210000000  0.5266720000000 1.0
C      1  0.4745600000000  0.4622530000000  0.4551850000000 1.0
C      1  0.4738520000000  0.5352250000000  0.4199070000000 1.0
C      1  0.5448910000000  0.5648230000000  0.4335370000000 1.0
C      1  0.4801330000000  0.5593050000000  0.4773820000000 1.0
C      1  0.4651800000000  0.4864460000000  0.5444160000000 1.0
C      1  0.3964790000000  0.5504630000000  0.5133020000000 1.0
C      1  0.4686780000000  0.5754600000000  0.5720680000000 1.0
C      1  0.6011330000000  0.4245280000000  0.4978350000000 1.0
C      1  0.5424490000000  0.4291660000000  0.5660750000000 1.0
C      1  0.4566000000000  0.5236600000000  0.5820190000000 1.0
C      1  0.5224920000000  0.5178080000000  0.4053400000000 1.0
C      1  0.4868870000000  0.4671390000000  0.5848120000000 1.0
C      1  0.4421730000000  0.4247420000000  0.5149570000000 1.0
C      1  0.4391470000000  0.4915940000000  0.5261300000000 1.0
C      1  0.4287020000000  0.5113500000000  0.5839170000000 1.0
C      1  0.5341620000000  0.4785690000000  0.5958880000000 1.0
C      1  0.4148990000000  0.5539770000000  0.5622630000000 1.0
C      1  0.5625260000000  0.4669180000000  0.4368920000000 1.0
C      1  0.5917940000000  0.5446890000000  0.4654850000000 1.0
C      1  0.5038750000000  0.3829330000000  0.4765310000000 1.0
C      1  0.4140660000000  0.5571690000000  0.4902250000000 1.0
C      1  0.5414540000000  0.4893900000000  0.5238070000000 1.0
C      1  0.5159140000000  0.5630920000000  0.4812010000000 1.0
C      1  0.4917890000000  0.4757920000000  0.3964610000000 1.0
C      1  0.4970370000000  0.5330870000000  0.5513890000000 1.0
C      1  0.5187060000000  0.5682940000000  0.4216720000000 1.0
C      1  0.5063750000000  0.4630150000000  0.4192700000000 1.0
C      1  0.5346560000000  0.5961000000000  0.4748660000000 1.0
C      1  0.5890820000000  0.4691680000000  0.4772160000000 1.0
C      1  0.5512790000000  0.5368590000000  0.5471940000000 1.0
C      1  0.5964140000000  0.4314690000000  0.4486370000000 1.0
C      1  0.5170510000000  0.3928590000000  0.5533500000000 1.0
C      1  0.5349560000000  0.4120630000000  0.5429970000000 1.0
C      1  0.6133380000000  0.4815150000000  0.5435830000000 1.0
C      1  0.6109410000000  0.4518850000000  0.5032560000000 1.0
C      1  0.4343330000000  0.4404570000000  0.4910260000000 1.0
C      1  0.5434220000000  0.4171270000000  0.4607260000000 1.0
C      1  0.4149410000000  0.4612380000000  0.4374710000000 1.0
C      1  0.5474320000000  0.6022130000000  0.5004350000000 1.0
C      1  0.5133740000000  0.4098520000000  0.4645840000000 1.0
C      1  0.4441750000000  0.4313770000000  0.4643600000000 1.0
C      1  0.5338760000000  0.5552430000000  0.5630260000000 1.0
C      1  0.5742490000000  0.4548670000000  0.5362260000000 1.0
C      1  0.5646230000000  0.4075750000000  0.4791920000000 1.0
C      1  0.4956680000000  0.3860810000000  0.5069250000000 1.0
C      1  0.5087950000000  0.5442240000000  0.5762220000000 1.0
C      1  0.4248740000000  0.5868750000000  0.5239400000000 1.0
C      1  0.5635400000000  0.5406830000000  0.4228350000000 1.0
C      1  0.4420940000000  0.4585560000000  0.5684390000000 1.0
C      1  0.4700420000000  0.5395340000000  0.6056700000000 1.0
C      1  0.5891570000000  0.5049520000000  0.4410640000000 1.0
C      1  0.5722830000000  0.4972710000000  0.5725690000000 1.0
C      1  0.5772670000000  0.5507310000000  0.5548760000000 1.0
C      1  0.5415170000000  0.5237650000000  0.4503330000000 1.0
C      1  0.4986930000000  0.5040620000000  0.3903610000000 1.0
C      1  0.5175220000000  0.5122280000000  0.4345350000000 1.0
C      1  0.4580020000000  0.5447160000000  0.5129680000000 1.0
C      1  0.5695690000000  0.4929370000000  0.4219250000000 1.0
C      1  0.4284550000000  0.5819660000000  0.4944810000000 1.0
C      1  0.5825830000000  0.5001530000000  0.4708570000000 1.0
C      1  0.5686150000000  0.5523980000000  0.5025240000000 1.0
C      1  0.3877110000000  0.5263620000000  0.4707860000000 1.0
C      1  0.5461330000000  0.5948180000000  0.5468970000000 1.0
C      1  0.5671710000000  0.5578280000000  0.4741740000000 1.0
C      1  0.4279430000000  0.5023490000000  0.4092060000000 1.0
C      1  0.4944960000000  0.4162010000000  0.5109560000000 1.0
C      1  0.5410830000000  0.4765000000000  0.4584020000000 1.0
C      1  0.4142030000000  0.4612810000000  0.4971820000000 1.0
C      1  0.4684690000000  0.3769980000000  0.5005800000000 1.0
C      1  0.4928670000000  0.4018120000000  0.5619570000000 1.0
C      1  0.5535840000000  0.5155040000000  0.4086110000000 1.0
C      1  0.5268560000000  0.4702140000000  0.5457780000000 1.0
C      1  0.4233600000000  0.4498120000000  0.5466130000000 1.0
C      1  0.4421870000000  0.5622650000000  0.5690850000000 1.0
C      1  0.5098820000000  0.6006110000000  0.4595700000000 1.0
C      1  0.4927770000000  0.5261110000000  0.4403560000000 1.0
C      1  0.4788230000000  0.5109270000000  0.6107890000000 1.0
C      1  0.5521220000000  0.4441400000000  0.4205950000000 1.0
C      1  0.5163220000000  0.5463680000000  0.4037710000000 1.0
C      1  0.4938190000000  0.4275840000000  0.4835580000000 1.0
C      1  0.5175580000000  0.5234750000000  0.5938250000000 1.0
C      1  0.5380400000000  0.4563640000000  0.4805280000000 1.0
C      1  0.4058540000000  0.5466230000000  0.4642400000000 1.0
C      1  0.5242400000000  0.5008250000000  0.5777240000000 1.0
C      1  0.5973270000000  0.4950630000000  0.5604690000000 1.0
C      1  0.5328720000000  0.5903670000000  0.5224210000000 1.0
C      1  0.3897420000000  0.4810360000000  0.5352460000000 1.0
C      1  0.5152480000000  0.4829790000000  0.4430960000000 1.0
C      1  0.4916560000000  0.4173340000000  0.4410240000000 1.0
C      1  0.5711700000000  0.4267560000000  0.5021570000000 1.0
C      1  0.4553890000000  0.4953630000000  0.4150950000000 1.0
C      1  0.5742410000000  0.5945970000000  0.5063770000000 1.0
C      1  0.5200120000000  0.4564860000000  0.5042840000000 1.0
C      1  0.5128410000000  0.4565030000000  0.5968240000000 1.0
C      1  0.5975010000000  0.5230750000000  0.4860920000000 1.0
C      1  0.6041870000000  0.4578300000000  0.5316100000000 1.0
C      1  0.4237760000000  0.4242230000000  0.5359340000000 1.0
C      1  0.4699010000000  0.4275590000000  0.5268800000000 1.0
C      1  0.5507450000000  0.5034960000000  0.4717770000000 1.0
C      1  0.5954300000000  0.4119450000000  0.4688070000000 1.0
C      1  0.5879270000000  0.4577660000000  0.4503480000000 1.0
C      1  0.4460340000000  0.5266200000000  0.4929010000000 1.0
C      1  0.4623510000000  0.5985310000000  0.4622190000000 1.0
C      1  0.4701140000000  0.5801810000000  0.4398090000000 1.0
C      1  0.5655410000000  0.4737630000000  0.5159800000000 1.0
C      1  0.5890370000000  0.5340230000000  0.4377500000000 1.0
C      1  0.5188730000000  0.4305830000000  0.5238730000000 1.0
C      1  0.4698680000000  0.3835200000000  0.4720450000000 1.0
C      1  0.4919620000000  0.4661570000000  0.5048000000000 1.0
C      1  0.4874230000000  0.6055990000000  0.5032110000000 1.0
C      1  0.4077610000000  0.5278880000000  0.5723740000000 1.0
C      1  0.4871620000000  0.6129750000000  0.4743260000000 1.0
C      1  0.5652360000000  0.4556440000000  0.4926750000000 1.0
C      1  0.4152200000000  0.4701680000000  0.5263770000000 1.0
C      1  0.3794190000000  0.5065870000000  0.5348920000000 1.0
C      1  0.5241260000000  0.5621950000000  0.5128900000000 1.0
C      1  0.4722400000000  0.4199120000000  0.5559010000000 1.0
C      1  0.4838850000000  0.4941910000000  0.5054590000000 1.0
C      1  0.4680800000000  0.4852590000000  0.6004200000000 1.0
C      1  0.4691950000000  0.4135610000000  0.4647070000000 1.0
C      1  0.4673080000000  0.4438850000000  0.5733540000000 1.0
C      1  0.5522150000000  0.4200370000000  0.4343340000000 1.0
C      1  0.5522700000000  0.4563800000000  0.5588320000000 1.0
C      1  0.4102930000000  0.4854130000000  0.4503950000000 1.0
C      1  0.5412450000000  0.5528590000000  0.4607140000000 1.0
C      1  0.4597230000000  0.5361360000000  0.4681590000000 1.0
C      1  0.4800330000000  0.4574540000000  0.5307160000000 1.0
C      1  0.4374000000000  0.4447610000000  0.4385770000000 1.0
C      1  0.5005450000000  0.5504980000000  0.5278860000000 1.0
C      1  0.4624430000000  0.4703280000000  0.3999590000000 1.0
C      1  0.5180570000000  0.4329860000000  0.5806870000000 1.0
C      1  0.4597120000000  0.4897730000000  0.4465780000000 1.0
C      1  0.4598780000000  0.5824130000000  0.4883240000000 1.0
C      1  0.5446610000000  0.5401780000000  0.5159490000000 1.0
C      1  0.5604380000000  0.4721310000000  0.5831680000000 1.0
C      1  0.4543430000000  0.4986740000000  0.5008930000000 1.0
C      1  0.4865700000000  0.5604410000000  0.5908010000000 1.0
C      1  0.5982300000000  0.5528760000000  0.5340900000000 1.0
C      1  0.5033950000000  0.5130880000000  0.4958080000000 1.0
C      1  0.5934100000000  0.5779500000000  0.5186640000000 1.0
C      1  0.4087340000000  0.4846840000000  0.4797010000000 1.0
C      1  0.4525760000000  0.5785090000000  0.5310250000000 1.0
C      1  0.5483010000000  0.5072860000000  0.5571260000000 1.0
C      1  0.5062650000000  0.4470190000000  0.5467400000000 1.0
END
