TITL C-950525-1983-386 -3.03924803019593e-06 125000 -901.333798487908 0 0 144 (C1) n - 1
REM
REM in /home/bkarasulu/work/CARBON/AIRSS/Generating-Clusters/EDIP-Nigel-Params/with-SteepDescent/Only-C1/SD-CG/HFTN-CG
REM
REM
REM
REM
REM
REM ./C.cell (11c1c37f851c82e70ff6c80c92926a4b)
REM
REM compiler GCC version 9.2.1 20190827 (Red Hat 9.2.1-1)
REM options -cpp -mtune=generic -march=x86-64 -g -O0 -fpre-include=/usr/include/finclude/math-vector-fortran.h
REM seed 570187528 1411440782 670540153 -1912431905 1124038847 1710346998 -1504494294 -952351859 -550952955 -1309230823 1297654327 -916250317 1789370957 750247362 279778226 -1259772992 -1154905393 1682133322 -797563133 -56390990 -1642556385 350632435 901399575 -1418972011 -1580948073 -1967667023 -2070131525 383975333 -455674266 1033823874 -1260933080 26284744 1113624169
REM
CELL 1.54180   50.00000   50.00000   50.00000   90.00000   90.00000   90.00000
LATT -1
SFAC C  
C      1  0.5809260000000  0.4899170000000  0.5458360000000 1.0
C      1  0.5080280000000  0.5141220000000  0.4571300000000 1.0
C      1  0.5499750000000  0.4652590000000  0.4157840000000 1.0
C      1  0.4290420000000  0.5778710000000  0.5584750000000 1.0
C      1  0.4244920000000  0.4626700000000  0.4835640000000 1.0
C      1  0.3875380000000  0.5238710000000  0.4516230000000 1.0
C      1  0.4797380000000  0.4821110000000  0.5014650000000 1.0
C      1  0.5020610000000  0.4684260000000  0.4224140000000 1.0
C      1  0.4153210000000  0.4827230000000  0.5265620000000 1.0
C      1  0.4680190000000  0.4982810000000  0.4800520000000 1.0
C      1  0.5724820000000  0.5062660000000  0.5690880000000 1.0
C      1  0.4364760000000  0.4997780000000  0.5689940000000 1.0
C      1  0.5398630000000  0.4671560000000  0.5804300000000 1.0
C      1  0.4455860000000  0.5057230000000  0.5965260000000 1.0
C      1  0.5864480000000  0.5168510000000  0.4475260000000 1.0
C      1  0.4836640000000  0.5246870000000  0.4818030000000 1.0
C      1  0.4192420000000  0.5750530000000  0.5058530000000 1.0
C      1  0.4990070000000  0.3878600000000  0.5252500000000 1.0
C      1  0.5118570000000  0.5711200000000  0.4739740000000 1.0
C      1  0.4809710000000  0.4271850000000  0.5751840000000 1.0
C      1  0.4990930000000  0.4547260000000  0.4711070000000 1.0
C      1  0.4381150000000  0.5310590000000  0.4727400000000 1.0
C      1  0.5397610000000  0.4189040000000  0.5330890000000 1.0
C      1  0.5552810000000  0.4392900000000  0.5589860000000 1.0
C      1  0.5693190000000  0.4515470000000  0.4779580000000 1.0
C      1  0.4918770000000  0.5682990000000  0.4540080000000 1.0
C      1  0.4552370000000  0.5507240000000  0.5141650000000 1.0
C      1  0.5692240000000  0.5343400000000  0.5601730000000 1.0
C      1  0.4983290000000  0.4305360000000  0.4508450000000 1.0
C      1  0.5653410000000  0.4796590000000  0.4951040000000 1.0
C      1  0.5248990000000  0.5638210000000  0.5621360000000 1.0
C      1  0.4195840000000  0.4580860000000  0.5114320000000 1.0
C      1  0.5957820000000  0.4994740000000  0.5054780000000 1.0
C      1  0.5356710000000  0.5266320000000  0.4086740000000 1.0
C      1  0.5019220000000  0.4737800000000  0.5584830000000 1.0
C      1  0.4747460000000  0.4552160000000  0.4896320000000 1.0
C      1  0.5533070000000  0.5857190000000  0.5301850000000 1.0
C      1  0.5095470000000  0.4662950000000  0.5859220000000 1.0
C      1  0.4614280000000  0.5459760000000  0.4836880000000 1.0
C      1  0.5767070000000  0.5539350000000  0.4422830000000 1.0
C      1  0.4916040000000  0.4151340000000  0.5517090000000 1.0
C      1  0.6127950000000  0.4584040000000  0.4835890000000 1.0
C      1  0.4357400000000  0.5265190000000  0.5568380000000 1.0
C      1  0.5122910000000  0.4875490000000  0.5014060000000 1.0
C      1  0.5938010000000  0.5280050000000  0.5118900000000 1.0
C      1  0.5440040000000  0.4450350000000  0.4610220000000 1.0
C      1  0.5340390000000  0.5323650000000  0.5266630000000 1.0
C      1  0.4197470000000  0.5681760000000  0.5339310000000 1.0
C      1  0.4515130000000  0.4770920000000  0.4047910000000 1.0
C      1  0.4611600000000  0.4494340000000  0.5690330000000 1.0
C      1  0.5094590000000  0.5485270000000  0.5208350000000 1.0
C      1  0.4823630000000  0.5127630000000  0.5356600000000 1.0
C      1  0.6128670000000  0.4885650000000  0.4845470000000 1.0
C      1  0.5359320000000  0.5917160000000  0.5077920000000 1.0
C      1  0.4836710000000  0.5902090000000  0.5090370000000 1.0
C      1  0.4390990000000  0.5041300000000  0.4854600000000 1.0
C      1  0.5388010000000  0.5654870000000  0.4693120000000 1.0
C      1  0.4789730000000  0.5325750000000  0.4114400000000 1.0
C      1  0.5390970000000  0.5377950000000  0.5559750000000 1.0
C      1  0.5365200000000  0.5258360000000  0.4395920000000 1.0
C      1  0.5402600000000  0.4616620000000  0.5416610000000 1.0
C      1  0.5097990000000  0.5760230000000  0.5028440000000 1.0
C      1  0.5289140000000  0.5017100000000  0.5256160000000 1.0
C      1  0.5113950000000  0.4080220000000  0.4654200000000 1.0
C      1  0.5071790000000  0.5170370000000  0.5949520000000 1.0
C      1  0.5562900000000  0.4836080000000  0.5273910000000 1.0
C      1  0.4376460000000  0.5945380000000  0.4973140000000 1.0
C      1  0.5838600000000  0.4416210000000  0.5514270000000 1.0
C      1  0.4926430000000  0.5268920000000  0.5108760000000 1.0
C      1  0.5830890000000  0.5457800000000  0.4921330000000 1.0
C      1  0.4646490000000  0.5713910000000  0.4669620000000 1.0
C      1  0.5653780000000  0.4131600000000  0.5163360000000 1.0
C      1  0.4524750000000  0.4142310000000  0.5121850000000 1.0
C      1  0.5946550000000  0.4669730000000  0.5544930000000 1.0
C      1  0.4699370000000  0.4246420000000  0.4437660000000 1.0
C      1  0.4869840000000  0.3959020000000  0.4797160000000 1.0
C      1  0.4680850000000  0.4870890000000  0.5286340000000 1.0
C      1  0.5255510000000  0.4448600000000  0.5213820000000 1.0
C      1  0.4658090000000  0.4862080000000  0.6063330000000 1.0
C      1  0.5093350000000  0.5004430000000  0.5493140000000 1.0
C      1  0.4533360000000  0.4495180000000  0.4482310000000 1.0
C      1  0.3941090000000  0.5077860000000  0.4737540000000 1.0
C      1  0.4899530000000  0.5078690000000  0.3994480000000 1.0
C      1  0.5583380000000  0.5083300000000  0.4507290000000 1.0
C      1  0.4958460000000  0.4901360000000  0.6020950000000 1.0
C      1  0.5018500000000  0.5736400000000  0.4266000000000 1.0
C      1  0.5211990000000  0.4592270000000  0.4960220000000 1.0
C      1  0.4130020000000  0.4845030000000  0.4645860000000 1.0
C      1  0.4814450000000  0.4031260000000  0.5079580000000 1.0
C      1  0.5166480000000  0.4012560000000  0.5445450000000 1.0
C      1  0.4345550000000  0.5250130000000  0.4423360000000 1.0
C      1  0.5875800000000  0.4306910000000  0.5248300000000 1.0
C      1  0.4483750000000  0.4465610000000  0.4769390000000 1.0
C      1  0.4097720000000  0.5542670000000  0.4858530000000 1.0
C      1  0.4403040000000  0.5725850000000  0.4506740000000 1.0
C      1  0.5002640000000  0.4392790000000  0.5918100000000 1.0
C      1  0.4460880000000  0.5252950000000  0.5290760000000 1.0
C      1  0.4629520000000  0.4794490000000  0.4467410000000 1.0
C      1  0.4702640000000  0.5730740000000  0.5295510000000 1.0
C      1  0.4923280000000  0.5405230000000  0.5945340000000 1.0
C      1  0.5404840000000  0.5852690000000  0.5545090000000 1.0
C      1  0.4330070000000  0.4939770000000  0.4413300000000 1.0
C      1  0.5921870000000  0.5426290000000  0.4644750000000 1.0
C      1  0.5119410000000  0.4396010000000  0.4261180000000 1.0
C      1  0.4271880000000  0.4844700000000  0.4145580000000 1.0
C      1  0.4349610000000  0.4472360000000  0.5544300000000 1.0
C      1  0.5751480000000  0.5717670000000  0.5020880000000 1.0
C      1  0.5354980000000  0.4217280000000  0.4773920000000 1.0
C      1  0.4377110000000  0.4389010000000  0.5257360000000 1.0
C      1  0.5199260000000  0.5045150000000  0.3985540000000 1.0
C      1  0.5408710000000  0.4432860000000  0.4317150000000 1.0
C      1  0.4251730000000  0.5090400000000  0.5124650000000 1.0
C      1  0.4079120000000  0.5389360000000  0.4395940000000 1.0
C      1  0.4505610000000  0.5887210000000  0.5449480000000 1.0
C      1  0.5540970000000  0.5832340000000  0.4861640000000 1.0
C      1  0.4917740000000  0.5572790000000  0.4045750000000 1.0
C      1  0.5936480000000  0.4567250000000  0.4608220000000 1.0
C      1  0.5230940000000  0.4997650000000  0.4778040000000 1.0
C      1  0.5286940000000  0.5528130000000  0.3981670000000 1.0
C      1  0.5466590000000  0.5551400000000  0.4433750000000 1.0
C      1  0.4235750000000  0.4762930000000  0.5544940000000 1.0
C      1  0.5253000000000  0.5142500000000  0.5715490000000 1.0
C      1  0.5265060000000  0.4809330000000  0.4136270000000 1.0
C      1  0.6031610000000  0.4926440000000  0.4568960000000 1.0
C      1  0.4622930000000  0.4038800000000  0.4644040000000 1.0
C      1  0.5509870000000  0.4988450000000  0.4766800000000 1.0
C      1  0.4964350000000  0.5597970000000  0.5492890000000 1.0
C      1  0.4439250000000  0.4175820000000  0.4837810000000 1.0
C      1  0.4815260000000  0.5415670000000  0.5684180000000 1.0
C      1  0.4763520000000  0.4668220000000  0.5491770000000 1.0
C      1  0.5470190000000  0.4959990000000  0.5797190000000 1.0
C      1  0.4488420000000  0.5337320000000  0.6014540000000 1.0
C      1  0.4791840000000  0.4809980000000  0.4056540000000 1.0
C      1  0.5316340000000  0.5706230000000  0.4214220000000 1.0
C      1  0.4950550000000  0.4794090000000  0.4504760000000 1.0
C      1  0.5619510000000  0.4152120000000  0.4882270000000 1.0
C      1  0.6043920000000  0.4442400000000  0.5066050000000 1.0
C      1  0.4021420000000  0.5251260000000  0.4971310000000 1.0
C      1  0.4574290000000  0.4623090000000  0.5945040000000 1.0
C      1  0.4540900000000  0.5342070000000  0.4235680000000 1.0
C      1  0.4639200000000  0.5937210000000  0.4871370000000 1.0
C      1  0.4525250000000  0.5436210000000  0.5745150000000 1.0
C      1  0.4137090000000  0.5632220000000  0.4555820000000 1.0
C      1  0.5859930000000  0.5357540000000  0.5376620000000 1.0
END
