TITL C-951343-2256-168 3.46486092277176e-06 125000 -999.14733017209 0 0 159 (C1) n - 1
REM
REM in /home/bkarasulu/work/CARBON/AIRSS/Generating-Clusters/EDIP-Nigel-Params/with-SteepDescent/Only-C1/SD-CG/HFTN-CG
REM
REM
REM
REM
REM
REM ./C.cell (11c1c37f851c82e70ff6c80c92926a4b)
REM
REM compiler GCC version 9.2.1 20190827 (Red Hat 9.2.1-1)
REM options -cpp -mtune=generic -march=x86-64 -g -O0 -fpre-include=/usr/include/finclude/math-vector-fortran.h
REM seed 244045717 -1487783723 -59546025 1985732116 -777207773 1816908662 -726148498 731688518 -1627742169 518431572 -429752868 171762922 661830984 -890572736 1100002690 1471983434 -1479179587 -1891054486 763748849 959713715 -1824800765 465348204 1253874627 47975345 1709589505 -1488959671 1412622541 730106116 1951384396 -1787021035 -1507846557 -1621137230 -158899462
REM
CELL 1.54180   50.00000   50.00000   50.00000   90.00000   90.00000   90.00000
LATT -1
SFAC C  
C      1  0.4731500000000  0.5187450000000  0.5544080000000 1.0
C      1  0.5900620000000  0.5235180000000  0.4480450000000 1.0
C      1  0.5560280000000  0.5547980000000  0.4245130000000 1.0
C      1  0.5502060000000  0.5085880000000  0.4171340000000 1.0
C      1  0.5117940000000  0.4051960000000  0.5518620000000 1.0
C      1  0.4765620000000  0.5657340000000  0.4887660000000 1.0
C      1  0.5527030000000  0.4938240000000  0.5807640000000 1.0
C      1  0.5316570000000  0.4746270000000  0.4899570000000 1.0
C      1  0.5790290000000  0.5705250000000  0.5102310000000 1.0
C      1  0.3923230000000  0.4869390000000  0.5280630000000 1.0
C      1  0.4424940000000  0.4610240000000  0.5009110000000 1.0
C      1  0.4345820000000  0.5491880000000  0.5492600000000 1.0
C      1  0.4119410000000  0.5031150000000  0.5416640000000 1.0
C      1  0.4690780000000  0.5479890000000  0.5886260000000 1.0
C      1  0.4438930000000  0.4599000000000  0.4348960000000 1.0
C      1  0.4025860000000  0.5217210000000  0.4886610000000 1.0
C      1  0.4150020000000  0.4964660000000  0.4979710000000 1.0
C      1  0.3939220000000  0.4637130000000  0.5107590000000 1.0
C      1  0.5121900000000  0.4917110000000  0.3950230000000 1.0
C      1  0.5770590000000  0.4567200000000  0.5068150000000 1.0
C      1  0.5632140000000  0.5481870000000  0.4974350000000 1.0
C      1  0.4286010000000  0.4842960000000  0.4316200000000 1.0
C      1  0.4147780000000  0.5322520000000  0.5355470000000 1.0
C      1  0.4468640000000  0.4189160000000  0.5457370000000 1.0
C      1  0.5409730000000  0.4093880000000  0.5520930000000 1.0
C      1  0.4150170000000  0.4235880000000  0.4936770000000 1.0
C      1  0.5084170000000  0.3927190000000  0.4694540000000 1.0
C      1  0.5164520000000  0.5894500000000  0.4827510000000 1.0
C      1  0.4678560000000  0.5068400000000  0.4797990000000 1.0
C      1  0.5381660000000  0.5418080000000  0.5098050000000 1.0
C      1  0.5846750000000  0.4454970000000  0.5541590000000 1.0
C      1  0.4280990000000  0.5633660000000  0.5008740000000 1.0
C      1  0.6126480000000  0.5402770000000  0.4877900000000 1.0
C      1  0.4602640000000  0.5464820000000  0.4095780000000 1.0
C      1  0.5143700000000  0.4431050000000  0.4139400000000 1.0
C      1  0.5271320000000  0.5375620000000  0.4625520000000 1.0
C      1  0.4812510000000  0.4887550000000  0.5532330000000 1.0
C      1  0.4833720000000  0.3993280000000  0.4846730000000 1.0
C      1  0.5626120000000  0.5082620000000  0.4791110000000 1.0
C      1  0.4760530000000  0.4283640000000  0.4761920000000 1.0
C      1  0.5236750000000  0.4708250000000  0.4113020000000 1.0
C      1  0.5767710000000  0.5360230000000  0.5545510000000 1.0
C      1  0.4795750000000  0.4132550000000  0.4307880000000 1.0
C      1  0.4711210000000  0.4893520000000  0.4117120000000 1.0
C      1  0.5210080000000  0.5091180000000  0.4494070000000 1.0
C      1  0.4536320000000  0.5320500000000  0.4713030000000 1.0
C      1  0.5170160000000  0.4395180000000  0.5842300000000 1.0
C      1  0.5236640000000  0.4457320000000  0.4855000000000 1.0
C      1  0.5968120000000  0.5204160000000  0.5424440000000 1.0
C      1  0.4188340000000  0.4467700000000  0.5134540000000 1.0
C      1  0.4785240000000  0.5725220000000  0.5452380000000 1.0
C      1  0.4775430000000  0.5735500000000  0.5756390000000 1.0
C      1  0.4396620000000  0.4649570000000  0.5574210000000 1.0
C      1  0.4906060000000  0.5982630000000  0.5322740000000 1.0
C      1  0.4021380000000  0.4691660000000  0.4731290000000 1.0
C      1  0.4423180000000  0.5257210000000  0.4034350000000 1.0
C      1  0.5000500000000  0.5520080000000  0.5369770000000 1.0
C      1  0.5643060000000  0.5755820000000  0.4625560000000 1.0
C      1  0.5609910000000  0.5943800000000  0.5070440000000 1.0
C      1  0.5524520000000  0.4180510000000  0.5229580000000 1.0
C      1  0.5020220000000  0.4199730000000  0.5277060000000 1.0
C      1  0.5233920000000  0.5114760000000  0.5446780000000 1.0
C      1  0.5632480000000  0.5024170000000  0.5107860000000 1.0
C      1  0.4916310000000  0.4987310000000  0.4550090000000 1.0
C      1  0.4971630000000  0.4192070000000  0.5743700000000 1.0
C      1  0.4362110000000  0.4017100000000  0.4963350000000 1.0
C      1  0.5747740000000  0.5635400000000  0.5428870000000 1.0
C      1  0.5489370000000  0.4794600000000  0.4217360000000 1.0
C      1  0.4503230000000  0.3929030000000  0.4709390000000 1.0
C      1  0.5529140000000  0.4743190000000  0.5115600000000 1.0
C      1  0.5264650000000  0.4910470000000  0.5947330000000 1.0
C      1  0.4892690000000  0.5336600000000  0.5163550000000 1.0
C      1  0.4241990000000  0.5710790000000  0.4723010000000 1.0
C      1  0.4644610000000  0.6018040000000  0.5150830000000 1.0
C      1  0.5478760000000  0.5938080000000  0.4803690000000 1.0
C      1  0.4112770000000  0.4924680000000  0.4539970000000 1.0
C      1  0.5912170000000  0.5004750000000  0.4715470000000 1.0
C      1  0.5249570000000  0.5653160000000  0.5251700000000 1.0
C      1  0.5927850000000  0.5711380000000  0.4739130000000 1.0
C      1  0.4439740000000  0.5930130000000  0.4664210000000 1.0
C      1  0.5481770000000  0.5793260000000  0.5397140000000 1.0
C      1  0.5326370000000  0.3940190000000  0.4831590000000 1.0
C      1  0.4844580000000  0.4412340000000  0.5379410000000 1.0
C      1  0.4893100000000  0.5378920000000  0.4184460000000 1.0
C      1  0.4899640000000  0.4692620000000  0.4517290000000 1.0
C      1  0.5693910000000  0.4396050000000  0.5774360000000 1.0
C      1  0.4680680000000  0.4576650000000  0.5183430000000 1.0
C      1  0.5122250000000  0.5888720000000  0.5123920000000 1.0
C      1  0.5355970000000  0.5392510000000  0.5888300000000 1.0
C      1  0.4129960000000  0.4405010000000  0.4681910000000 1.0
C      1  0.4081330000000  0.5429740000000  0.5087870000000 1.0
C      1  0.4983050000000  0.5144300000000  0.4959500000000 1.0
C      1  0.5678420000000  0.5293050000000  0.4279790000000 1.0
C      1  0.4634450000000  0.5252220000000  0.5253610000000 1.0
C      1  0.4941420000000  0.4519980000000  0.4764440000000 1.0
C      1  0.4598210000000  0.4545240000000  0.5776000000000 1.0
C      1  0.5206770000000  0.5154610000000  0.4111580000000 1.0
C      1  0.4310730000000  0.5453790000000  0.4555640000000 1.0
C      1  0.4571490000000  0.5865420000000  0.4402140000000 1.0
C      1  0.5425800000000  0.4316010000000  0.5711540000000 1.0
C      1  0.4859800000000  0.4692040000000  0.4986100000000 1.0
C      1  0.5495890000000  0.4384720000000  0.4501810000000 1.0
C      1  0.5309320000000  0.5648870000000  0.4274430000000 1.0
C      1  0.5770560000000  0.4357770000000  0.5276670000000 1.0
C      1  0.5039260000000  0.5822670000000  0.5830610000000 1.0
C      1  0.5069870000000  0.4872650000000  0.5061120000000 1.0
C      1  0.4847020000000  0.4379920000000  0.4137220000000 1.0
C      1  0.4682460000000  0.5939500000000  0.4857500000000 1.0
C      1  0.5070390000000  0.4062400000000  0.4427830000000 1.0
C      1  0.6070650000000  0.5125280000000  0.4941290000000 1.0
C      1  0.4726010000000  0.4626080000000  0.4274890000000 1.0
C      1  0.5033900000000  0.5622380000000  0.4731790000000 1.0
C      1  0.4813130000000  0.5104010000000  0.4301170000000 1.0
C      1  0.5604430000000  0.4642070000000  0.4426160000000 1.0
C      1  0.4708040000000  0.4311430000000  0.5621610000000 1.0
C      1  0.4408850000000  0.5083530000000  0.5836170000000 1.0
C      1  0.4795650000000  0.4764410000000  0.5813740000000 1.0
C      1  0.4432670000000  0.4987180000000  0.4100940000000 1.0
C      1  0.5235190000000  0.5274200000000  0.4893430000000 1.0
C      1  0.5078980000000  0.4680260000000  0.5890870000000 1.0
C      1  0.5362520000000  0.4661620000000  0.5368180000000 1.0
C      1  0.5116280000000  0.4858460000000  0.5367350000000 1.0
C      1  0.5274450000000  0.4358760000000  0.5157130000000 1.0
C      1  0.4250180000000  0.4902370000000  0.5652420000000 1.0
C      1  0.5257210000000  0.4280350000000  0.4362410000000 1.0
C      1  0.5571550000000  0.4714980000000  0.5599590000000 1.0
C      1  0.4358240000000  0.4375720000000  0.4500790000000 1.0
C      1  0.5903400000000  0.4409960000000  0.4745640000000 1.0
C      1  0.5578840000000  0.5451030000000  0.4675880000000 1.0
C      1  0.5454510000000  0.5206440000000  0.5274650000000 1.0
C      1  0.5634960000000  0.4297090000000  0.4745860000000 1.0
C      1  0.4079920000000  0.5226510000000  0.4594060000000 1.0
C      1  0.5032160000000  0.5621890000000  0.4347400000000 1.0
C      1  0.5156460000000  0.5187660000000  0.5986870000000 1.0
C      1  0.4580340000000  0.4791230000000  0.5373940000000 1.0
C      1  0.6054630000000  0.5465350000000  0.4603660000000 1.0
C      1  0.5581850000000  0.5238940000000  0.5760390000000 1.0
C      1  0.5103340000000  0.6029300000000  0.5623940000000 1.0
C      1  0.4580230000000  0.4177830000000  0.4534790000000 1.0
C      1  0.4548020000000  0.4065930000000  0.5196590000000 1.0
C      1  0.5923340000000  0.5055620000000  0.5190370000000 1.0
C      1  0.4460230000000  0.4926550000000  0.5018770000000 1.0
C      1  0.4504020000000  0.5334300000000  0.5702820000000 1.0
C      1  0.5387990000000  0.5970890000000  0.5607380000000 1.0
C      1  0.4454190000000  0.5609100000000  0.4305440000000 1.0
C      1  0.5423060000000  0.4899830000000  0.4643110000000 1.0
C      1  0.5053870000000  0.5320550000000  0.5585050000000 1.0
C      1  0.4871450000000  0.5893020000000  0.4423420000000 1.0
C      1  0.4832100000000  0.4002870000000  0.5140960000000 1.0
C      1  0.4540360000000  0.5474390000000  0.4957500000000 1.0
C      1  0.4676240000000  0.4993150000000  0.5965600000000 1.0
C      1  0.5545110000000  0.4079280000000  0.4932710000000 1.0
C      1  0.4930780000000  0.6047660000000  0.4688390000000 1.0
C      1  0.5245450000000  0.5624890000000  0.5726530000000 1.0
C      1  0.4855860000000  0.4891230000000  0.3866120000000 1.0
C      1  0.4263950000000  0.4407140000000  0.5428000000000 1.0
C      1  0.4492190000000  0.5713810000000  0.5326010000000 1.0
C      1  0.5940260000000  0.4696360000000  0.4745790000000 1.0
C      1  0.4859790000000  0.5233040000000  0.5969220000000 1.0
END
