TITL C-950529-3362-36 -1.13909047524868e-05 125000 -987.515113452034 0 0 159 (C1) n - 1
REM
REM in /home/bkarasulu/work/CARBON/AIRSS/Generating-Clusters/EDIP-Nigel-Params/with-SteepDescent/Only-C1/SD-CG/HFTN-CG
REM
REM
REM
REM
REM
REM ./C.cell (11c1c37f851c82e70ff6c80c92926a4b)
REM
REM compiler GCC version 9.2.1 20190827 (Red Hat 9.2.1-1)
REM options -cpp -mtune=generic -march=x86-64 -g -O0 -fpre-include=/usr/include/finclude/math-vector-fortran.h
REM seed -1843579829 -593287196 -726773162 1694369399 340544525 1051749549 -541006711 547173307 -1205871468 -71014708 -20606983 -86521521 1608200166 -147773429 -734954797 -1806870376 -786512541 1613282080 608824539 -166706651 1665086943 -1758814751 -920907430 -1915295300 28840731 -108092931 2137430267 -41467900 -1003250465 -1814372928 -1213743852 1546936293 1124398871
REM
CELL 1.54180   50.00000   50.00000   50.00000   90.00000   90.00000   90.00000
LATT -1
SFAC C  
C      1  0.4398770000000  0.4299000000000  0.4530160000000 1.0
C      1  0.5380220000000  0.5530380000000  0.5923270000000 1.0
C      1  0.5898390000000  0.4776050000000  0.5688450000000 1.0
C      1  0.4346460000000  0.5658880000000  0.5605030000000 1.0
C      1  0.5953190000000  0.5209200000000  0.5114290000000 1.0
C      1  0.5256780000000  0.4434070000000  0.4153570000000 1.0
C      1  0.4656850000000  0.3994660000000  0.5071440000000 1.0
C      1  0.4399800000000  0.5858870000000  0.5018340000000 1.0
C      1  0.4750270000000  0.4981640000000  0.4348880000000 1.0
C      1  0.4133000000000  0.4757590000000  0.5566350000000 1.0
C      1  0.4709790000000  0.4912260000000  0.4866600000000 1.0
C      1  0.4176750000000  0.5301380000000  0.4637900000000 1.0
C      1  0.4258750000000  0.5641880000000  0.5122360000000 1.0
C      1  0.4957730000000  0.5035550000000  0.5354780000000 1.0
C      1  0.4886660000000  0.5772140000000  0.5356290000000 1.0
C      1  0.4495180000000  0.4243310000000  0.5006680000000 1.0
C      1  0.4850470000000  0.4130810000000  0.4873300000000 1.0
C      1  0.4849020000000  0.4445850000000  0.4856310000000 1.0
C      1  0.4224450000000  0.4740820000000  0.4653610000000 1.0
C      1  0.5112330000000  0.5836630000000  0.4286630000000 1.0
C      1  0.4305800000000  0.4551460000000  0.4430560000000 1.0
C      1  0.5958050000000  0.5251320000000  0.4359400000000 1.0
C      1  0.4047570000000  0.5208700000000  0.5138690000000 1.0
C      1  0.5679180000000  0.4140450000000  0.4952880000000 1.0
C      1  0.4285900000000  0.4613170000000  0.5781280000000 1.0
C      1  0.4904110000000  0.5316520000000  0.5451250000000 1.0
C      1  0.4956410000000  0.4944090000000  0.5920280000000 1.0
C      1  0.5409810000000  0.4805080000000  0.5310370000000 1.0
C      1  0.5437680000000  0.4779780000000  0.5881630000000 1.0
C      1  0.5040480000000  0.5211570000000  0.6005100000000 1.0
C      1  0.5849360000000  0.5152040000000  0.5601420000000 1.0
C      1  0.5012150000000  0.5127360000000  0.4262510000000 1.0
C      1  0.5265290000000  0.4412360000000  0.4705420000000 1.0
C      1  0.5643720000000  0.4638540000000  0.5714630000000 1.0
C      1  0.4414400000000  0.4830660000000  0.5927660000000 1.0
C      1  0.3959770000000  0.4926370000000  0.5085470000000 1.0
C      1  0.6015720000000  0.4790560000000  0.5410290000000 1.0
C      1  0.3967720000000  0.4647800000000  0.5354990000000 1.0
C      1  0.5360400000000  0.5218040000000  0.5600620000000 1.0
C      1  0.5111830000000  0.5662890000000  0.5851470000000 1.0
C      1  0.5189960000000  0.6050060000000  0.5094030000000 1.0
C      1  0.4038480000000  0.4410780000000  0.4892080000000 1.0
C      1  0.5784760000000  0.5649300000000  0.4607770000000 1.0
C      1  0.4769800000000  0.4561140000000  0.4128650000000 1.0
C      1  0.5638580000000  0.5560590000000  0.5797990000000 1.0
C      1  0.5637070000000  0.5342890000000  0.5613410000000 1.0
C      1  0.5573450000000  0.4569220000000  0.4313340000000 1.0
C      1  0.4975910000000  0.5371240000000  0.4756550000000 1.0
C      1  0.5019310000000  0.4509710000000  0.5730930000000 1.0
C      1  0.5376060000000  0.5832200000000  0.4772140000000 1.0
C      1  0.5160130000000  0.4779670000000  0.5763900000000 1.0
C      1  0.4691760000000  0.4945350000000  0.5768680000000 1.0
C      1  0.4368440000000  0.3959690000000  0.5581890000000 1.0
C      1  0.4646730000000  0.4166580000000  0.4422090000000 1.0
C      1  0.4301540000000  0.4955970000000  0.4252150000000 1.0
C      1  0.5905250000000  0.5044770000000  0.5340170000000 1.0
C      1  0.4433110000000  0.4133590000000  0.5787850000000 1.0
C      1  0.4650660000000  0.5980160000000  0.5019930000000 1.0
C      1  0.4410570000000  0.4683730000000  0.4191460000000 1.0
C      1  0.5004330000000  0.4551690000000  0.4622360000000 1.0
C      1  0.5631730000000  0.4172640000000  0.4657670000000 1.0
C      1  0.5812570000000  0.5811360000000  0.4857830000000 1.0
C      1  0.5080760000000  0.4197210000000  0.4217500000000 1.0
C      1  0.5360320000000  0.5710440000000  0.4284260000000 1.0
C      1  0.5115570000000  0.5816980000000  0.5592330000000 1.0
C      1  0.5181850000000  0.4903160000000  0.4143570000000 1.0
C      1  0.5575880000000  0.5840150000000  0.5288730000000 1.0
C      1  0.5490870000000  0.5677570000000  0.4542850000000 1.0
C      1  0.4473270000000  0.5682050000000  0.4622860000000 1.0
C      1  0.4117110000000  0.5048000000000  0.5610420000000 1.0
C      1  0.4671350000000  0.5358780000000  0.4697100000000 1.0
C      1  0.4322390000000  0.5497830000000  0.4468340000000 1.0
C      1  0.4747060000000  0.4851450000000  0.5476310000000 1.0
C      1  0.5487970000000  0.6074210000000  0.5128000000000 1.0
C      1  0.4304330000000  0.5026620000000  0.4548760000000 1.0
C      1  0.5320200000000  0.5463720000000  0.4155930000000 1.0
C      1  0.4392220000000  0.5506410000000  0.5367060000000 1.0
C      1  0.5686310000000  0.4455460000000  0.4573760000000 1.0
C      1  0.5312850000000  0.4117750000000  0.4671270000000 1.0
C      1  0.4282750000000  0.5097070000000  0.5849650000000 1.0
C      1  0.4501080000000  0.5705320000000  0.5820440000000 1.0
C      1  0.5066210000000  0.4642870000000  0.4040030000000 1.0
C      1  0.4416680000000  0.4962980000000  0.5229500000000 1.0
C      1  0.5107030000000  0.4024760000000  0.4462050000000 1.0
C      1  0.4873100000000  0.5708210000000  0.4349680000000 1.0
C      1  0.4551890000000  0.5352340000000  0.4978670000000 1.0
C      1  0.4744640000000  0.6011860000000  0.5281440000000 1.0
C      1  0.5312080000000  0.4459320000000  0.4996610000000 1.0
C      1  0.5114060000000  0.4292920000000  0.5561180000000 1.0
C      1  0.4609750000000  0.5066390000000  0.4611610000000 1.0
C      1  0.4241760000000  0.5189090000000  0.5366590000000 1.0
C      1  0.5111390000000  0.5748250000000  0.5150490000000 1.0
C      1  0.5382230000000  0.5751260000000  0.5489210000000 1.0
C      1  0.4612390000000  0.4627120000000  0.5287990000000 1.0
C      1  0.4792560000000  0.4266010000000  0.4184260000000 1.0
C      1  0.4668500000000  0.5082540000000  0.3985630000000 1.0
C      1  0.5238640000000  0.4725030000000  0.5092340000000 1.0
C      1  0.4875540000000  0.5291210000000  0.4042740000000 1.0
C      1  0.4279490000000  0.4237390000000  0.4794770000000 1.0
C      1  0.4235900000000  0.4798080000000  0.5036010000000 1.0
C      1  0.5460700000000  0.5488930000000  0.4940480000000 1.0
C      1  0.5261530000000  0.3991350000000  0.4948400000000 1.0
C      1  0.5691010000000  0.5646470000000  0.5079570000000 1.0
C      1  0.5992900000000  0.4607030000000  0.5204430000000 1.0
C      1  0.5242320000000  0.5378120000000  0.5131570000000 1.0
C      1  0.4389630000000  0.4382130000000  0.5258610000000 1.0
C      1  0.4499720000000  0.4409370000000  0.5747050000000 1.0
C      1  0.4850150000000  0.5898840000000  0.4801310000000 1.0
C      1  0.4431180000000  0.5166100000000  0.4112630000000 1.0
C      1  0.5542740000000  0.4554640000000  0.5440380000000 1.0
C      1  0.5604930000000  0.6025910000000  0.4854720000000 1.0
C      1  0.5179880000000  0.4216590000000  0.5130480000000 1.0
C      1  0.5163630000000  0.5309840000000  0.4478050000000 1.0
C      1  0.4508380000000  0.5379320000000  0.4284500000000 1.0
C      1  0.4768990000000  0.3981950000000  0.5328180000000 1.0
C      1  0.5896280000000  0.5357800000000  0.4634490000000 1.0
C      1  0.5808800000000  0.5381540000000  0.4149510000000 1.0
C      1  0.5192210000000  0.5420250000000  0.5435310000000 1.0
C      1  0.4757610000000  0.4482150000000  0.5829480000000 1.0
C      1  0.5222640000000  0.4950810000000  0.5501230000000 1.0
C      1  0.5991600000000  0.5133830000000  0.4830800000000 1.0
C      1  0.5415560000000  0.5159620000000  0.4549170000000 1.0
C      1  0.5571170000000  0.5223730000000  0.4802380000000 1.0
C      1  0.5504800000000  0.5055680000000  0.5925180000000 1.0
C      1  0.5378210000000  0.4314680000000  0.5453240000000 1.0
C      1  0.5329070000000  0.5258940000000  0.6032210000000 1.0
C      1  0.4685990000000  0.4643220000000  0.4989280000000 1.0
C      1  0.4992110000000  0.5647080000000  0.4887400000000 1.0
C      1  0.5139240000000  0.4829050000000  0.4637940000000 1.0
C      1  0.5054060000000  0.5162310000000  0.5000190000000 1.0
C      1  0.5895680000000  0.5472900000000  0.5170210000000 1.0
C      1  0.5721950000000  0.4827340000000  0.4221180000000 1.0
C      1  0.5113310000000  0.6059910000000  0.4797360000000 1.0
C      1  0.5776710000000  0.4648860000000  0.5019370000000 1.0
C      1  0.5940560000000  0.4889230000000  0.4659360000000 1.0
C      1  0.5543590000000  0.5305920000000  0.4069050000000 1.0
C      1  0.4221380000000  0.5379840000000  0.4945730000000 1.0
C      1  0.4266630000000  0.4181910000000  0.5447270000000 1.0
C      1  0.5597870000000  0.4408970000000  0.5083470000000 1.0
C      1  0.5311960000000  0.4768460000000  0.4382580000000 1.0
C      1  0.4800120000000  0.4689010000000  0.4391600000000 1.0
C      1  0.3945260000000  0.4657340000000  0.4728890000000 1.0
C      1  0.4625120000000  0.5089410000000  0.5072750000000 1.0
C      1  0.4916400000000  0.5443540000000  0.5875160000000 1.0
C      1  0.4148480000000  0.4529540000000  0.5148830000000 1.0
C      1  0.4734720000000  0.5521010000000  0.4174620000000 1.0
C      1  0.4948500000000  0.4196750000000  0.5338080000000 1.0
C      1  0.5866690000000  0.4621220000000  0.4742540000000 1.0
C      1  0.4534320000000  0.5223980000000  0.5764570000000 1.0
C      1  0.4835710000000  0.4013470000000  0.4592100000000 1.0
C      1  0.5957470000000  0.4945430000000  0.4373210000000 1.0
C      1  0.5555750000000  0.5088280000000  0.4281230000000 1.0
C      1  0.4712830000000  0.5500210000000  0.5306300000000 1.0
C      1  0.5603410000000  0.4955380000000  0.5032720000000 1.0
C      1  0.4629610000000  0.5466410000000  0.5887750000000 1.0
C      1  0.5518730000000  0.3922340000000  0.5040550000000 1.0
C      1  0.4707320000000  0.5830010000000  0.4548840000000 1.0
C      1  0.5247000000000  0.4944430000000  0.4895500000000 1.0
C      1  0.3797470000000  0.4861790000000  0.4858020000000 1.0
END
