TITL C-951334-9093-670 2.47903571877777e-06 125000 -1005.54443463956 0 0 162 (C1) n - 1
REM
REM in /home/bkarasulu/work/CARBON/AIRSS/Generating-Clusters/EDIP-Nigel-Params/with-SteepDescent/Only-C1/SD-CG/HFTN-CG
REM
REM
REM
REM
REM
REM ./C.cell (11c1c37f851c82e70ff6c80c92926a4b)
REM
REM compiler GCC version 9.2.1 20190827 (Red Hat 9.2.1-1)
REM options -cpp -mtune=generic -march=x86-64 -g -O0 -fpre-include=/usr/include/finclude/math-vector-fortran.h
REM seed -1082116284 584996399 -106626234 -181022556 1003651184 -758894997 1936234517 1828306459 1464493753 687050053 -2023256537 -972561976 848237654 -691040888 -1329825224 2069608521 185493357 -151383 1117636683 720961816 -1530297895 -28307212 -636339086 1425900372 702661563 -1009918215 -59352104 -314168072 -1606578427 1887157267 -378485043 -1782985936 702891373
REM
CELL 1.54180   50.00000   50.00000   50.00000   90.00000   90.00000   90.00000
LATT -1
SFAC C  
C      1  0.4748100000000  0.5821540000000  0.4274060000000 1.0
C      1  0.5166160000000  0.4165950000000  0.5691590000000 1.0
C      1  0.6023130000000  0.5302830000000  0.4975350000000 1.0
C      1  0.5926970000000  0.5083270000000  0.5626840000000 1.0
C      1  0.5486800000000  0.3964940000000  0.5127620000000 1.0
C      1  0.4546180000000  0.5391480000000  0.4167370000000 1.0
C      1  0.4692050000000  0.4298840000000  0.5847360000000 1.0
C      1  0.5210420000000  0.4387790000000  0.5150940000000 1.0
C      1  0.5007380000000  0.4843380000000  0.4307400000000 1.0
C      1  0.4292940000000  0.5917160000000  0.4923160000000 1.0
C      1  0.4606610000000  0.5635530000000  0.5108060000000 1.0
C      1  0.3989870000000  0.5215940000000  0.5485810000000 1.0
C      1  0.4199290000000  0.5660650000000  0.5403420000000 1.0
C      1  0.4659480000000  0.4986720000000  0.4671710000000 1.0
C      1  0.4824830000000  0.4154350000000  0.4537970000000 1.0
C      1  0.5046700000000  0.5060310000000  0.6083830000000 1.0
C      1  0.4406220000000  0.4872230000000  0.4130700000000 1.0
C      1  0.4864370000000  0.5357160000000  0.5779870000000 1.0
C      1  0.3992130000000  0.5285360000000  0.4915550000000 1.0
C      1  0.5326350000000  0.4608060000000  0.4996720000000 1.0
C      1  0.4830580000000  0.5023860000000  0.3946110000000 1.0
C      1  0.5280800000000  0.5969750000000  0.4789820000000 1.0
C      1  0.5228260000000  0.4624340000000  0.5942290000000 1.0
C      1  0.5366860000000  0.4635470000000  0.5691710000000 1.0
C      1  0.4855810000000  0.5470290000000  0.4656280000000 1.0
C      1  0.4926690000000  0.4329180000000  0.4775310000000 1.0
C      1  0.5089150000000  0.5251390000000  0.5076970000000 1.0
C      1  0.5002050000000  0.4772240000000  0.6004920000000 1.0
C      1  0.4886920000000  0.4834080000000  0.4831240000000 1.0
C      1  0.4146180000000  0.4733440000000  0.5506970000000 1.0
C      1  0.4976740000000  0.4293330000000  0.5864380000000 1.0
C      1  0.4778600000000  0.4764680000000  0.5802570000000 1.0
C      1  0.4849460000000  0.4719260000000  0.3975890000000 1.0
C      1  0.5671270000000  0.5846220000000  0.5113230000000 1.0
C      1  0.5864050000000  0.4317340000000  0.5391110000000 1.0
C      1  0.4548140000000  0.6027730000000  0.5357600000000 1.0
C      1  0.5757160000000  0.4649020000000  0.4708850000000 1.0
C      1  0.4000210000000  0.5465970000000  0.5317750000000 1.0
C      1  0.5033120000000  0.5952130000000  0.5489660000000 1.0
C      1  0.5305860000000  0.4785030000000  0.4503910000000 1.0
C      1  0.5634850000000  0.4139430000000  0.4958830000000 1.0
C      1  0.4613010000000  0.4993340000000  0.5892340000000 1.0
C      1  0.4749550000000  0.5970430000000  0.4741360000000 1.0
C      1  0.4213290000000  0.4378990000000  0.4982580000000 1.0
C      1  0.5517380000000  0.4197140000000  0.4695540000000 1.0
C      1  0.4461640000000  0.5110300000000  0.5680700000000 1.0
C      1  0.4392140000000  0.5827340000000  0.5211470000000 1.0
C      1  0.5226930000000  0.5712180000000  0.5173170000000 1.0
C      1  0.5044420000000  0.5475810000000  0.4089040000000 1.0
C      1  0.4514450000000  0.4010310000000  0.4858260000000 1.0
C      1  0.4350640000000  0.4228880000000  0.5210050000000 1.0
C      1  0.4173930000000  0.4831890000000  0.4318430000000 1.0
C      1  0.5278410000000  0.5318450000000  0.5543470000000 1.0
C      1  0.5069570000000  0.5174330000000  0.4018580000000 1.0
C      1  0.5322910000000  0.5043390000000  0.4666260000000 1.0
C      1  0.4337230000000  0.4240480000000  0.4741400000000 1.0
C      1  0.5672860000000  0.5007780000000  0.5746770000000 1.0
C      1  0.5492950000000  0.5641950000000  0.5548590000000 1.0
C      1  0.4768680000000  0.5576620000000  0.4147470000000 1.0
C      1  0.5715880000000  0.4948820000000  0.4302930000000 1.0
C      1  0.5895690000000  0.5550810000000  0.5058150000000 1.0
C      1  0.6023460000000  0.5222760000000  0.4698030000000 1.0
C      1  0.5506390000000  0.5440460000000  0.4251700000000 1.0
C      1  0.4412600000000  0.4478370000000  0.4540450000000 1.0
C      1  0.6009800000000  0.5326880000000  0.5455000000000 1.0
C      1  0.5601040000000  0.5011820000000  0.5058150000000 1.0
C      1  0.5836170000000  0.4321010000000  0.5086700000000 1.0
C      1  0.5103930000000  0.5928890000000  0.5043060000000 1.0
C      1  0.5092830000000  0.5547710000000  0.5868500000000 1.0
C      1  0.5533990000000  0.5157350000000  0.4187080000000 1.0
C      1  0.4868010000000  0.5207170000000  0.5293870000000 1.0
C      1  0.5243600000000  0.4281790000000  0.4286710000000 1.0
C      1  0.4979980000000  0.3838920000000  0.4811360000000 1.0
C      1  0.5692170000000  0.4453310000000  0.4316300000000 1.0
C      1  0.4117570000000  0.5044820000000  0.4512510000000 1.0
C      1  0.5157690000000  0.4505070000000  0.4078000000000 1.0
C      1  0.4802030000000  0.5048180000000  0.4396970000000 1.0
C      1  0.4697720000000  0.5456870000000  0.5333620000000 1.0
C      1  0.5807220000000  0.4927910000000  0.4592780000000 1.0
C      1  0.5574610000000  0.5952500000000  0.4851320000000 1.0
C      1  0.4443740000000  0.4968600000000  0.5417310000000 1.0
C      1  0.4165580000000  0.4567590000000  0.4420200000000 1.0
C      1  0.5323000000000  0.5292930000000  0.5265760000000 1.0
C      1  0.5254720000000  0.5280000000000  0.4501410000000 1.0
C      1  0.6034830000000  0.4944430000000  0.5357390000000 1.0
C      1  0.5508460000000  0.4267590000000  0.4410770000000 1.0
C      1  0.5639200000000  0.4630600000000  0.5327560000000 1.0
C      1  0.4323420000000  0.5528690000000  0.5640840000000 1.0
C      1  0.5464500000000  0.5801730000000  0.5303260000000 1.0
C      1  0.5460930000000  0.4330490000000  0.5317570000000 1.0
C      1  0.4825670000000  0.5834090000000  0.4981990000000 1.0
C      1  0.5277390000000  0.5624130000000  0.4229010000000 1.0
C      1  0.4304120000000  0.5482080000000  0.4303250000000 1.0
C      1  0.4205390000000  0.5264540000000  0.5715170000000 1.0
C      1  0.4958860000000  0.4458100000000  0.5352820000000 1.0
C      1  0.4124150000000  0.5288800000000  0.4383080000000 1.0
C      1  0.5188430000000  0.3916650000000  0.4627380000000 1.0
C      1  0.5086110000000  0.5493530000000  0.4888310000000 1.0
C      1  0.4274790000000  0.5674310000000  0.4749040000000 1.0
C      1  0.4731430000000  0.4414320000000  0.4979220000000 1.0
C      1  0.5814220000000  0.4816070000000  0.5160290000000 1.0
C      1  0.4629690000000  0.5518490000000  0.5625640000000 1.0
C      1  0.4484400000000  0.6063050000000  0.4773310000000 1.0
C      1  0.4868640000000  0.5777470000000  0.4534550000000 1.0
C      1  0.4259950000000  0.4673910000000  0.4956880000000 1.0
C      1  0.5108870000000  0.6124240000000  0.5266470000000 1.0
C      1  0.5454240000000  0.4576440000000  0.4717310000000 1.0
C      1  0.5594880000000  0.5261140000000  0.5210190000000 1.0
C      1  0.5614130000000  0.4696410000000  0.4204730000000 1.0
C      1  0.5257350000000  0.5253230000000  0.5978390000000 1.0
C      1  0.4750780000000  0.5987640000000  0.5550400000000 1.0
C      1  0.4447570000000  0.5470270000000  0.4892530000000 1.0
C      1  0.5854750000000  0.4588820000000  0.5555040000000 1.0
C      1  0.4728880000000  0.3914440000000  0.4680610000000 1.0
C      1  0.5316910000000  0.5023320000000  0.4051910000000 1.0
C      1  0.4817070000000  0.4180150000000  0.5392250000000 1.0
C      1  0.4308190000000  0.5706720000000  0.4469920000000 1.0
C      1  0.5892380000000  0.4596260000000  0.4965460000000 1.0
C      1  0.4387610000000  0.4753590000000  0.4691600000000 1.0
C      1  0.4911340000000  0.4744920000000  0.5490350000000 1.0
C      1  0.5807910000000  0.5362710000000  0.4567440000000 1.0
C      1  0.5371980000000  0.4350710000000  0.5596860000000 1.0
C      1  0.6158600000000  0.5186170000000  0.5207190000000 1.0
C      1  0.4353740000000  0.4288440000000  0.5501570000000 1.0
C      1  0.4320200000000  0.5254210000000  0.5290240000000 1.0
C      1  0.3980730000000  0.5036650000000  0.4782240000000 1.0
C      1  0.5256880000000  0.3940570000000  0.5274090000000 1.0
C      1  0.4616150000000  0.5096650000000  0.4149520000000 1.0
C      1  0.5137900000000  0.5004440000000  0.4918630000000 1.0
C      1  0.4920610000000  0.4557790000000  0.4381830000000 1.0
C      1  0.5707150000000  0.5807070000000  0.4650930000000 1.0
C      1  0.4683620000000  0.5782490000000  0.5715170000000 1.0
C      1  0.5018740000000  0.5177480000000  0.5566780000000 1.0
C      1  0.4631320000000  0.4487190000000  0.4326460000000 1.0
C      1  0.4601350000000  0.4160590000000  0.5608020000000 1.0
C      1  0.5604730000000  0.5097230000000  0.4760620000000 1.0
C      1  0.5058120000000  0.4000070000000  0.5465000000000 1.0
C      1  0.4729750000000  0.4908100000000  0.5299370000000 1.0
C      1  0.4576540000000  0.4631080000000  0.4077470000000 1.0
C      1  0.5147650000000  0.4164050000000  0.4916550000000 1.0
C      1  0.4372810000000  0.4564050000000  0.5576600000000 1.0
C      1  0.4041050000000  0.4855630000000  0.5024420000000 1.0
C      1  0.4633550000000  0.5296660000000  0.4746410000000 1.0
C      1  0.5075330000000  0.4067640000000  0.4400600000000 1.0
C      1  0.5199520000000  0.5783330000000  0.4517790000000 1.0
C      1  0.5519220000000  0.5163820000000  0.5921890000000 1.0
C      1  0.5319980000000  0.4866260000000  0.5128420000000 1.0
C      1  0.5317190000000  0.5519330000000  0.4671400000000 1.0
C      1  0.5360460000000  0.4730060000000  0.4071410000000 1.0
C      1  0.4749720000000  0.4712280000000  0.5057720000000 1.0
C      1  0.4786790000000  0.5188270000000  0.6018400000000 1.0
C      1  0.5021580000000  0.4594470000000  0.4672900000000 1.0
C      1  0.5765750000000  0.5480600000000  0.5323010000000 1.0
C      1  0.5627240000000  0.5538540000000  0.4706130000000 1.0
C      1  0.4264900000000  0.5284800000000  0.5009510000000 1.0
C      1  0.5652530000000  0.4719030000000  0.5750610000000 1.0
C      1  0.5206770000000  0.4846270000000  0.5473350000000 1.0
C      1  0.4565500000000  0.4559170000000  0.5807240000000 1.0
C      1  0.4964850000000  0.5303480000000  0.4431510000000 1.0
C      1  0.4627230000000  0.4163720000000  0.5113970000000 1.0
C      1  0.5203410000000  0.5736760000000  0.5655100000000 1.0
C      1  0.4023220000000  0.4933690000000  0.5327060000000 1.0
END
