TITL C-950526-5686-656 -1.03673065759535e-06 125000 -616.500656863319 0 0 98 (C1) n - 1
REM
REM in /home/bkarasulu/work/CARBON/AIRSS/Generating-Clusters/EDIP-Nigel-Params/with-SteepDescent/Only-C1/SD-CG/HFTN-CG
REM
REM
REM
REM
REM
REM ./C.cell (11c1c37f851c82e70ff6c80c92926a4b)
REM
REM compiler GCC version 9.2.1 20190827 (Red Hat 9.2.1-1)
REM options -cpp -mtune=generic -march=x86-64 -g -O0 -fpre-include=/usr/include/finclude/math-vector-fortran.h
REM seed -1323168986 5117690 -479602656 1819083677 -106015450 -336092921 -1508244132 1917791573 -208389953 1564589336 209970572 -1231135284 1291605811 2143169212 -1038448671 -1450946402 1324215040 -426173752 -267838394 1574655043 -1280203146 1108277928 -183343896 -909028228 -1972485394 -60002655 1245413883 1355485415 -348421868 -174062012 -455503872 -1849819110 -1817501440
REM
CELL 1.54180   50.00000   50.00000   50.00000   90.00000   90.00000   90.00000
LATT -1
SFAC C  
C      1  0.4132710000000  0.5387290000000  0.4809410000000 1.0
C      1  0.4847950000000  0.4439830000000  0.4300860000000 1.0
C      1  0.5766530000000  0.4415980000000  0.4825130000000 1.0
C      1  0.4729880000000  0.5030810000000  0.5758060000000 1.0
C      1  0.5950480000000  0.5038470000000  0.5098220000000 1.0
C      1  0.4802980000000  0.4731990000000  0.5268670000000 1.0
C      1  0.5092680000000  0.4599770000000  0.4250180000000 1.0
C      1  0.5795610000000  0.4851240000000  0.4913610000000 1.0
C      1  0.5185340000000  0.4904480000000  0.5861370000000 1.0
C      1  0.4625520000000  0.5517700000000  0.4754330000000 1.0
C      1  0.4205630000000  0.4895030000000  0.5370770000000 1.0
C      1  0.5443690000000  0.4886620000000  0.4524900000000 1.0
C      1  0.5041070000000  0.4369670000000  0.4948620000000 1.0
C      1  0.5257360000000  0.5470610000000  0.5612720000000 1.0
C      1  0.4606400000000  0.5658740000000  0.5027120000000 1.0
C      1  0.4693360000000  0.4282430000000  0.5430930000000 1.0
C      1  0.5003080000000  0.4851200000000  0.4123300000000 1.0
C      1  0.4338300000000  0.5143850000000  0.5460320000000 1.0
C      1  0.5621200000000  0.5327180000000  0.5299430000000 1.0
C      1  0.5012420000000  0.4684840000000  0.5746580000000 1.0
C      1  0.5399090000000  0.5839500000000  0.4519090000000 1.0
C      1  0.4093770000000  0.5262450000000  0.5057900000000 1.0
C      1  0.4605620000000  0.4597970000000  0.4237830000000 1.0
C      1  0.5087430000000  0.5665080000000  0.5731550000000 1.0
C      1  0.5471690000000  0.5357970000000  0.4450300000000 1.0
C      1  0.5573220000000  0.4757120000000  0.5091680000000 1.0
C      1  0.4550770000000  0.5238140000000  0.5635160000000 1.0
C      1  0.5182580000000  0.5259260000000  0.4697370000000 1.0
C      1  0.5002740000000  0.5125830000000  0.5799000000000 1.0
C      1  0.4718850000000  0.4728710000000  0.5743150000000 1.0
C      1  0.4429680000000  0.4660960000000  0.4469630000000 1.0
C      1  0.5678270000000  0.5004460000000  0.4690580000000 1.0
C      1  0.4915900000000  0.4091420000000  0.5028890000000 1.0
C      1  0.5397190000000  0.5407920000000  0.4874340000000 1.0
C      1  0.5402000000000  0.5251530000000  0.5122390000000 1.0
C      1  0.5096190000000  0.5221870000000  0.5530660000000 1.0
C      1  0.5834840000000  0.5312180000000  0.5059900000000 1.0
C      1  0.5335790000000  0.4962030000000  0.5105270000000 1.0
C      1  0.4845140000000  0.5686140000000  0.4587050000000 1.0
C      1  0.4487960000000  0.4215050000000  0.5217440000000 1.0
C      1  0.4627100000000  0.4588780000000  0.5479600000000 1.0
C      1  0.5034440000000  0.5548830000000  0.4400210000000 1.0
C      1  0.5320970000000  0.5604890000000  0.4390990000000 1.0
C      1  0.5945940000000  0.4618990000000  0.4820820000000 1.0
C      1  0.4740370000000  0.5036970000000  0.4626120000000 1.0
C      1  0.4704700000000  0.4848960000000  0.4110630000000 1.0
C      1  0.5373660000000  0.5104110000000  0.4336770000000 1.0
C      1  0.4321140000000  0.4454430000000  0.5168960000000 1.0
C      1  0.4660170000000  0.5003630000000  0.5198420000000 1.0
C      1  0.4913650000000  0.4824180000000  0.4774510000000 1.0
C      1  0.4331380000000  0.4623950000000  0.5411150000000 1.0
C      1  0.5072170000000  0.4706390000000  0.5442850000000 1.0
C      1  0.4469830000000  0.4599590000000  0.4950750000000 1.0
C      1  0.4622590000000  0.5073190000000  0.4278800000000 1.0
C      1  0.4626280000000  0.4115980000000  0.4967740000000 1.0
C      1  0.5329880000000  0.4364160000000  0.4617980000000 1.0
C      1  0.5386300000000  0.4273270000000  0.5102960000000 1.0
C      1  0.5213060000000  0.5987150000000  0.5338610000000 1.0
C      1  0.4860090000000  0.5299060000000  0.5353120000000 1.0
C      1  0.5290420000000  0.5826330000000  0.4774580000000 1.0
C      1  0.4818050000000  0.4608680000000  0.4972480000000 1.0
C      1  0.4284430000000  0.4901240000000  0.4497790000000 1.0
C      1  0.5475170000000  0.5562650000000  0.5431610000000 1.0
C      1  0.4280990000000  0.5344490000000  0.5264460000000 1.0
C      1  0.4417140000000  0.4910650000000  0.4979240000000 1.0
C      1  0.5319110000000  0.4603240000000  0.4443130000000 1.0
C      1  0.5104770000000  0.5100590000000  0.4234510000000 1.0
C      1  0.5395370000000  0.5787750000000  0.5259540000000 1.0
C      1  0.4830900000000  0.4265230000000  0.4532840000000 1.0
C      1  0.4677490000000  0.5325470000000  0.4169270000000 1.0
C      1  0.4857350000000  0.5284530000000  0.4780010000000 1.0
C      1  0.5540470000000  0.4643330000000  0.5582960000000 1.0
C      1  0.4129250000000  0.4963000000000  0.5084660000000 1.0
C      1  0.5187890000000  0.4956490000000  0.4810200000000 1.0
C      1  0.4998240000000  0.5815360000000  0.4804270000000 1.0
C      1  0.4959370000000  0.4169350000000  0.5328380000000 1.0
C      1  0.4882770000000  0.5697720000000  0.5541320000000 1.0
C      1  0.4863190000000  0.5187210000000  0.5068240000000 1.0
C      1  0.5874460000000  0.4932510000000  0.5374200000000 1.0
C      1  0.4403430000000  0.4473550000000  0.4689200000000 1.0
C      1  0.4378860000000  0.5339110000000  0.4691760000000 1.0
C      1  0.4955110000000  0.5350080000000  0.4206080000000 1.0
C      1  0.5676700000000  0.5110370000000  0.5508530000000 1.0
C      1  0.5332020000000  0.4441190000000  0.5565990000000 1.0
C      1  0.4443940000000  0.5044010000000  0.4699580000000 1.0
C      1  0.5719490000000  0.4672900000000  0.5346890000000 1.0
C      1  0.5072870000000  0.4205900000000  0.4688600000000 1.0
C      1  0.4579300000000  0.4235500000000  0.4689240000000 1.0
C      1  0.5447290000000  0.4925550000000  0.5622060000000 1.0
C      1  0.5230570000000  0.4958090000000  0.5407870000000 1.0
C      1  0.4617060000000  0.5543560000000  0.5531120000000 1.0
C      1  0.4459310000000  0.5577230000000  0.5273090000000 1.0
C      1  0.5468700000000  0.5768480000000  0.4986790000000 1.0
C      1  0.4961390000000  0.5864520000000  0.5318320000000 1.0
C      1  0.5678660000000  0.5301080000000  0.4778500000000 1.0
C      1  0.4859470000000  0.5791040000000  0.5058960000000 1.0
C      1  0.5223770000000  0.4311140000000  0.5339660000000 1.0
C      1  0.5490600000000  0.4391050000000  0.4859360000000 1.0
END
