TITL C-951341-1326-40 4.81973604702829e-08 125000 -386.922230056943 0 0 64 (C1) n - 1
REM
REM in /home/bkarasulu/work/CARBON/AIRSS/Generating-Clusters/EDIP-Nigel-Params/with-SteepDescent/Only-C1/SD-CG/HFTN-CG
REM
REM
REM
REM
REM
REM ./C.cell (11c1c37f851c82e70ff6c80c92926a4b)
REM
REM compiler GCC version 9.2.1 20190827 (Red Hat 9.2.1-1)
REM options -cpp -mtune=generic -march=x86-64 -g -O0 -fpre-include=/usr/include/finclude/math-vector-fortran.h
REM seed -1519955009 -1130044326 1078937651 -855189519 -1753304 1009142993 -693981520 -1834016331 1565080216 -1304126424 -1648088342 469535636 1212487815 -758766493 -226648093 -613081189 -1854838452 -1196921825 1594364121 -1892570485 -194356126 2017831933 -2088739451 -782328479 -298253071 723613444 554171738 -1301852165 -356369513 1635263034 -1439297327 182649558 1918627244
REM
CELL 1.54180   50.00000   50.00000   50.00000   90.00000   90.00000   90.00000
LATT -1
SFAC C  
C      1  0.5458050000000  0.5218650000000  0.5377720000000 1.0
C      1  0.5398020000000  0.5639850000000  0.4878280000000 1.0
C      1  0.5555330000000  0.4934940000000  0.5360750000000 1.0
C      1  0.5143680000000  0.4209570000000  0.4885150000000 1.0
C      1  0.5604040000000  0.4879110000000  0.4439920000000 1.0
C      1  0.4749390000000  0.5730140000000  0.5182010000000 1.0
C      1  0.5501660000000  0.5377790000000  0.5142250000000 1.0
C      1  0.4990380000000  0.4933370000000  0.5240040000000 1.0
C      1  0.4618120000000  0.4793600000000  0.5494480000000 1.0
C      1  0.5371840000000  0.5194720000000  0.4940290000000 1.0
C      1  0.5647330000000  0.4386000000000  0.5189190000000 1.0
C      1  0.5699330000000  0.5098070000000  0.4614290000000 1.0
C      1  0.5239490000000  0.5300470000000  0.5562000000000 1.0
C      1  0.4643770000000  0.5014040000000  0.4536460000000 1.0
C      1  0.4847190000000  0.5165440000000  0.4888430000000 1.0
C      1  0.5364010000000  0.5398690000000  0.4701840000000 1.0
C      1  0.5149850000000  0.4315830000000  0.5168740000000 1.0
C      1  0.5092100000000  0.4622070000000  0.4708270000000 1.0
C      1  0.5789470000000  0.4605980000000  0.5120350000000 1.0
C      1  0.4355790000000  0.5160300000000  0.5506260000000 1.0
C      1  0.4916900000000  0.4374090000000  0.4745910000000 1.0
C      1  0.4894930000000  0.4803040000000  0.4203510000000 1.0
C      1  0.4370460000000  0.5269040000000  0.4836830000000 1.0
C      1  0.5093880000000  0.5079550000000  0.5688170000000 1.0
C      1  0.5572970000000  0.4972460000000  0.4870420000000 1.0
C      1  0.4883300000000  0.4430440000000  0.5205610000000 1.0
C      1  0.5048150000000  0.5523910000000  0.5515180000000 1.0
C      1  0.4626240000000  0.4549120000000  0.4553190000000 1.0
C      1  0.5358290000000  0.4916530000000  0.4310070000000 1.0
C      1  0.4401280000000  0.5551820000000  0.4903020000000 1.0
C      1  0.4672360000000  0.4777990000000  0.4381000000000 1.0
C      1  0.4474810000000  0.5245440000000  0.4562660000000 1.0
C      1  0.4595540000000  0.5529500000000  0.4568310000000 1.0
C      1  0.4809440000000  0.5477150000000  0.4890540000000 1.0
C      1  0.5000370000000  0.4910400000000  0.4645300000000 1.0
C      1  0.4531820000000  0.5078360000000  0.5029650000000 1.0
C      1  0.4820600000000  0.5206450000000  0.5725120000000 1.0
C      1  0.5044910000000  0.5257210000000  0.4300590000000 1.0
C      1  0.4234600000000  0.4948720000000  0.5357420000000 1.0
C      1  0.5580800000000  0.4668950000000  0.4629320000000 1.0
C      1  0.4817780000000  0.5489380000000  0.5679660000000 1.0
C      1  0.4709500000000  0.4919350000000  0.5235180000000 1.0
C      1  0.4294890000000  0.4660320000000  0.4952670000000 1.0
C      1  0.4570860000000  0.5038450000000  0.5673350000000 1.0
C      1  0.4533320000000  0.4575000000000  0.4831320000000 1.0
C      1  0.5108090000000  0.5406200000000  0.4530430000000 1.0
C      1  0.5385220000000  0.4248410000000  0.4738710000000 1.0
C      1  0.4452470000000  0.5372530000000  0.5347660000000 1.0
C      1  0.4495560000000  0.5592120000000  0.5176190000000 1.0
C      1  0.4877450000000  0.4651370000000  0.5628030000000 1.0
C      1  0.5598700000000  0.5350090000000  0.4539760000000 1.0
C      1  0.5093850000000  0.4833170000000  0.5504810000000 1.0
C      1  0.4716180000000  0.4397760000000  0.4969370000000 1.0
C      1  0.5219540000000  0.5707510000000  0.5079590000000 1.0
C      1  0.5367340000000  0.4711820000000  0.5437030000000 1.0
C      1  0.5721980000000  0.4877990000000  0.5119320000000 1.0
C      1  0.5351160000000  0.4508860000000  0.4635480000000 1.0
C      1  0.4771930000000  0.4438520000000  0.5465900000000 1.0
C      1  0.4289810000000  0.4908140000000  0.5083400000000 1.0
C      1  0.4899630000000  0.5582280000000  0.4625280000000 1.0
C      1  0.5009820000000  0.5636500000000  0.5248290000000 1.0
C      1  0.5095860000000  0.5096280000000  0.5029370000000 1.0
C      1  0.5080310000000  0.4975990000000  0.4354090000000 1.0
C      1  0.5388260000000  0.4473190000000  0.5256590000000 1.0
END
