TITL C-950533-5798-648 -2.96771632938193e-06 125000 -564.617372680532 0 0 92 (C1) n - 1
REM
REM in /home/bkarasulu/work/CARBON/AIRSS/Generating-Clusters/EDIP-Nigel-Params/with-SteepDescent/Only-C1/SD-CG/HFTN-CG
REM
REM
REM
REM
REM
REM ./C.cell (11c1c37f851c82e70ff6c80c92926a4b)
REM
REM compiler GCC version 9.2.1 20190827 (Red Hat 9.2.1-1)
REM options -cpp -mtune=generic -march=x86-64 -g -O0 -fpre-include=/usr/include/finclude/math-vector-fortran.h
REM seed 1010654961 1252641921 590317752 -1994746044 1651003421 -764087889 1637036024 -768702006 -1350239597 2088942855 -1313073389 -1743630879 375664476 -223444802 -348261130 740612904 353499001 -611989545 1069428011 -445105715 561574798 1352636969 -1297901130 -1925053585 -1824952748 1884293226 1009024096 -948347918 -1846052493 830759156 -59808024 800246271 -198323073
REM
CELL 1.54180   50.00000   50.00000   50.00000   90.00000   90.00000   90.00000
LATT -1
SFAC C  
C      1  0.5319620000000  0.5544980000000  0.4477890000000 1.0
C      1  0.4663150000000  0.4388060000000  0.5213920000000 1.0
C      1  0.5913600000000  0.5071760000000  0.5245830000000 1.0
C      1  0.5548630000000  0.5253010000000  0.4444470000000 1.0
C      1  0.5627160000000  0.5055290000000  0.4882300000000 1.0
C      1  0.5681530000000  0.4469950000000  0.5018260000000 1.0
C      1  0.4473180000000  0.5532210000000  0.4595730000000 1.0
C      1  0.5436620000000  0.5732440000000  0.4645560000000 1.0
C      1  0.4901530000000  0.5233480000000  0.5838810000000 1.0
C      1  0.5796550000000  0.4858350000000  0.5387140000000 1.0
C      1  0.4460060000000  0.4685380000000  0.4380730000000 1.0
C      1  0.4734760000000  0.4531840000000  0.4429320000000 1.0
C      1  0.4547740000000  0.5692250000000  0.5034070000000 1.0
C      1  0.5082160000000  0.5793640000000  0.4969450000000 1.0
C      1  0.4753270000000  0.4986870000000  0.5240380000000 1.0
C      1  0.5163260000000  0.4798210000000  0.5812490000000 1.0
C      1  0.5774990000000  0.5486330000000  0.5038020000000 1.0
C      1  0.5470880000000  0.5434070000000  0.5555430000000 1.0
C      1  0.4208480000000  0.5084540000000  0.4735640000000 1.0
C      1  0.5273680000000  0.4210800000000  0.4846220000000 1.0
C      1  0.5145220000000  0.4280540000000  0.4486920000000 1.0
C      1  0.5132610000000  0.4498100000000  0.4811830000000 1.0
C      1  0.4668190000000  0.4800070000000  0.5740000000000 1.0
C      1  0.5147990000000  0.5085530000000  0.5859590000000 1.0
C      1  0.5381190000000  0.4580800000000  0.5388350000000 1.0
C      1  0.5422920000000  0.4691110000000  0.4288520000000 1.0
C      1  0.4785900000000  0.4150520000000  0.4813320000000 1.0
C      1  0.4582270000000  0.5132660000000  0.4417180000000 1.0
C      1  0.4618040000000  0.5747250000000  0.4755690000000 1.0
C      1  0.5032220000000  0.4259480000000  0.5225150000000 1.0
C      1  0.4705140000000  0.5355220000000  0.4926770000000 1.0
C      1  0.5032080000000  0.4083720000000  0.4978180000000 1.0
C      1  0.4242320000000  0.5116370000000  0.5487010000000 1.0
C      1  0.4993840000000  0.4891820000000  0.5400170000000 1.0
C      1  0.4445630000000  0.5250910000000  0.5626300000000 1.0
C      1  0.4996580000000  0.4538150000000  0.5079580000000 1.0
C      1  0.4766130000000  0.4866110000000  0.4628980000000 1.0
C      1  0.4997760000000  0.5022060000000  0.4719140000000 1.0
C      1  0.4137700000000  0.4749880000000  0.5071670000000 1.0
C      1  0.5483810000000  0.4243000000000  0.5068530000000 1.0
C      1  0.4933900000000  0.4712150000000  0.5644290000000 1.0
C      1  0.4505220000000  0.4845770000000  0.5132670000000 1.0
C      1  0.5428090000000  0.5188230000000  0.4702730000000 1.0
C      1  0.5323230000000  0.4290350000000  0.5320590000000 1.0
C      1  0.5630680000000  0.4655250000000  0.5247290000000 1.0
C      1  0.4673700000000  0.5095550000000  0.5719370000000 1.0
C      1  0.5139010000000  0.5153970000000  0.5480500000000 1.0
C      1  0.5415360000000  0.4713380000000  0.5668190000000 1.0
C      1  0.4923640000000  0.5765830000000  0.4715940000000 1.0
C      1  0.5022070000000  0.5527260000000  0.4549140000000 1.0
C      1  0.4272590000000  0.5203160000000  0.5218960000000 1.0
C      1  0.5334970000000  0.4721160000000  0.4800720000000 1.0
C      1  0.4863480000000  0.5513870000000  0.4306800000000 1.0
C      1  0.5364310000000  0.4945850000000  0.4183780000000 1.0
C      1  0.5258740000000  0.5509700000000  0.5736660000000 1.0
C      1  0.4175690000000  0.4589240000000  0.4828410000000 1.0
C      1  0.4949070000000  0.5306950000000  0.4756670000000 1.0
C      1  0.5382290000000  0.4980660000000  0.5091950000000 1.0
C      1  0.5592320000000  0.4945370000000  0.5586470000000 1.0
C      1  0.5007070000000  0.5672800000000  0.5300590000000 1.0
C      1  0.4322230000000  0.4352200000000  0.4857930000000 1.0
C      1  0.5747080000000  0.4849480000000  0.4690810000000 1.0
C      1  0.5482030000000  0.5661030000000  0.5377340000000 1.0
C      1  0.4572000000000  0.4789830000000  0.4838310000000 1.0
C      1  0.4760630000000  0.5276490000000  0.5212310000000 1.0
C      1  0.4853840000000  0.4278540000000  0.4552130000000 1.0
C      1  0.5104270000000  0.5029590000000  0.4252190000000 1.0
C      1  0.5834470000000  0.5216370000000  0.5021080000000 1.0
C      1  0.5255980000000  0.4958270000000  0.4601580000000 1.0
C      1  0.4481190000000  0.4600530000000  0.5307980000000 1.0
C      1  0.4131920000000  0.5036480000000  0.5019050000000 1.0
C      1  0.4351470000000  0.5335960000000  0.4775340000000 1.0
C      1  0.5370460000000  0.5760430000000  0.4914740000000 1.0
C      1  0.5440040000000  0.5145940000000  0.5410890000000 1.0
C      1  0.4557820000000  0.4252670000000  0.4975820000000 1.0
C      1  0.5534920000000  0.5610390000000  0.5101660000000 1.0
C      1  0.4609880000000  0.5411640000000  0.4365750000000 1.0
C      1  0.5241420000000  0.5796420000000  0.5415910000000 1.0
C      1  0.5182130000000  0.4742310000000  0.5220780000000 1.0
C      1  0.4539340000000  0.5479460000000  0.5460790000000 1.0
C      1  0.4382880000000  0.5495980000000  0.5190080000000 1.0
C      1  0.4969520000000  0.5508700000000  0.5759770000000 1.0
C      1  0.5670400000000  0.4960280000000  0.4414050000000 1.0
C      1  0.5608060000000  0.4599820000000  0.4755030000000 1.0
C      1  0.4480920000000  0.4663560000000  0.5581800000000 1.0
C      1  0.4885130000000  0.4865900000000  0.4149730000000 1.0
C      1  0.4329410000000  0.4791860000000  0.4663360000000 1.0
C      1  0.5031460000000  0.5364320000000  0.5278530000000 1.0
C      1  0.4800420000000  0.5636620000000  0.5538610000000 1.0
C      1  0.5201550000000  0.4500430000000  0.4292980000000 1.0
C      1  0.4593820000000  0.4917920000000  0.4232110000000 1.0
C      1  0.4929470000000  0.4587300000000  0.4215300000000 1.0
END
