TITL C-950536-5891-305 -3.50537225496113e-06 125000 -680.947105384439 0 0 110 (C1) n - 1
REM
REM in /home/bkarasulu/work/CARBON/AIRSS/Generating-Clusters/EDIP-Nigel-Params/with-SteepDescent/Only-C1/SD-CG/HFTN-CG
REM
REM
REM
REM
REM
REM ./C.cell (11c1c37f851c82e70ff6c80c92926a4b)
REM
REM compiler GCC version 9.2.1 20190827 (Red Hat 9.2.1-1)
REM options -cpp -mtune=generic -march=x86-64 -g -O0 -fpre-include=/usr/include/finclude/math-vector-fortran.h
REM seed 416139202 663911441 439160139 1638990123 1742741816 1418524357 -18878678 1865607949 1194333331 -1846377063 403840399 -1865708609 -59286288 1241825797 1913736593 1523176599 236307412 -1317573260 2016585483 1581261501 -954829976 340333323 -1783796267 1748198655 -1365049638 2037069356 1216436355 1390609060 -1774037348 -886825340 1141891915 1658540621 -1612662631
REM
CELL 1.54180   50.00000   50.00000   50.00000   90.00000   90.00000   90.00000
LATT -1
SFAC C  
C      1  0.5593630000000  0.4232120000000  0.4762080000000 1.0
C      1  0.5008500000000  0.5315860000000  0.4643130000000 1.0
C      1  0.5396000000000  0.5176640000000  0.4249170000000 1.0
C      1  0.4711010000000  0.5342710000000  0.5492430000000 1.0
C      1  0.5076420000000  0.4088700000000  0.5040440000000 1.0
C      1  0.5613100000000  0.5208020000000  0.4443160000000 1.0
C      1  0.4636310000000  0.5199940000000  0.5076710000000 1.0
C      1  0.4896670000000  0.4582930000000  0.4525560000000 1.0
C      1  0.5111890000000  0.5255940000000  0.4901520000000 1.0
C      1  0.4875650000000  0.5195790000000  0.4197950000000 1.0
C      1  0.4897180000000  0.5333550000000  0.5088250000000 1.0
C      1  0.4916670000000  0.4789080000000  0.4969930000000 1.0
C      1  0.4644340000000  0.4167700000000  0.4417510000000 1.0
C      1  0.5713840000000  0.5493010000000  0.4464860000000 1.0
C      1  0.4724910000000  0.4126300000000  0.4694290000000 1.0
C      1  0.4442010000000  0.4812950000000  0.4311630000000 1.0
C      1  0.4563210000000  0.5459700000000  0.4363440000000 1.0
C      1  0.5703270000000  0.5128150000000  0.5007180000000 1.0
C      1  0.4084620000000  0.4956260000000  0.5241130000000 1.0
C      1  0.5283960000000  0.5273530000000  0.5617090000000 1.0
C      1  0.5201690000000  0.5393470000000  0.4197370000000 1.0
C      1  0.4908590000000  0.5486590000000  0.5335160000000 1.0
C      1  0.4538010000000  0.4420300000000  0.5596030000000 1.0
C      1  0.5440080000000  0.4118250000000  0.4562720000000 1.0
C      1  0.4085140000000  0.5188230000000  0.4863610000000 1.0
C      1  0.5761420000000  0.4966240000000  0.4558890000000 1.0
C      1  0.4605290000000  0.4293330000000  0.5349440000000 1.0
C      1  0.5638970000000  0.4095400000000  0.4998650000000 1.0
C      1  0.4625110000000  0.4967930000000  0.5711490000000 1.0
C      1  0.5899560000000  0.5002990000000  0.4822070000000 1.0
C      1  0.4360360000000  0.4297190000000  0.4393680000000 1.0
C      1  0.4347330000000  0.4816730000000  0.5195200000000 1.0
C      1  0.5847140000000  0.5639930000000  0.5140160000000 1.0
C      1  0.5160980000000  0.4528330000000  0.5728020000000 1.0
C      1  0.5179700000000  0.4966760000000  0.4912150000000 1.0
C      1  0.5212750000000  0.5631800000000  0.4379620000000 1.0
C      1  0.4420810000000  0.4788300000000  0.4879030000000 1.0
C      1  0.4818700000000  0.5220580000000  0.5728940000000 1.0
C      1  0.5167090000000  0.4269630000000  0.5234180000000 1.0
C      1  0.5095440000000  0.4891220000000  0.5400110000000 1.0
C      1  0.4363190000000  0.5030660000000  0.5811100000000 1.0
C      1  0.4262410000000  0.4857780000000  0.4534100000000 1.0
C      1  0.5320410000000  0.5706040000000  0.4981470000000 1.0
C      1  0.4247580000000  0.5120890000000  0.4636960000000 1.0
C      1  0.5691360000000  0.4501710000000  0.4753510000000 1.0
C      1  0.4338130000000  0.4379400000000  0.4659550000000 1.0
C      1  0.4632650000000  0.5021130000000  0.4217310000000 1.0
C      1  0.5575160000000  0.4644210000000  0.5453730000000 1.0
C      1  0.5425690000000  0.4440340000000  0.5620290000000 1.0
C      1  0.4786000000000  0.5764190000000  0.5341160000000 1.0
C      1  0.5661790000000  0.5641160000000  0.5364890000000 1.0
C      1  0.4433640000000  0.4350420000000  0.5121530000000 1.0
C      1  0.6036010000000  0.4790150000000  0.4940640000000 1.0
C      1  0.4276070000000  0.5575140000000  0.4716540000000 1.0
C      1  0.4728820000000  0.4473340000000  0.5805500000000 1.0
C      1  0.4703420000000  0.5661620000000  0.4510650000000 1.0
C      1  0.4855320000000  0.4805260000000  0.5261910000000 1.0
C      1  0.5177580000000  0.5527630000000  0.5491730000000 1.0
C      1  0.5437550000000  0.4945200000000  0.5065150000000 1.0
C      1  0.4540210000000  0.5686960000000  0.4748450000000 1.0
C      1  0.5057780000000  0.5771530000000  0.4851520000000 1.0
C      1  0.4307110000000  0.4540990000000  0.5311130000000 1.0
C      1  0.5231370000000  0.4526870000000  0.5144810000000 1.0
C      1  0.4591260000000  0.5875720000000  0.4961070000000 1.0
C      1  0.5387300000000  0.4689840000000  0.4388660000000 1.0
C      1  0.5344000000000  0.4755880000000  0.5277580000000 1.0
C      1  0.5622390000000  0.4709070000000  0.4556090000000 1.0
C      1  0.5742680000000  0.5373140000000  0.5478220000000 1.0
C      1  0.5853210000000  0.5262740000000  0.5231600000000 1.0
C      1  0.5397040000000  0.4202370000000  0.5422620000000 1.0
C      1  0.5491050000000  0.5694490000000  0.4501910000000 1.0
C      1  0.4604800000000  0.4956570000000  0.5322080000000 1.0
C      1  0.5062290000000  0.5686370000000  0.5724570000000 1.0
C      1  0.5372000000000  0.5684030000000  0.5301060000000 1.0
C      1  0.5771070000000  0.4483390000000  0.5269210000000 1.0
C      1  0.4782780000000  0.4758320000000  0.5865430000000 1.0
C      1  0.5610060000000  0.5347540000000  0.4830020000000 1.0
C      1  0.4974430000000  0.4327700000000  0.5801460000000 1.0
C      1  0.5290240000000  0.4915610000000  0.4246950000000 1.0
C      1  0.4805180000000  0.4885830000000  0.4540630000000 1.0
C      1  0.4991030000000  0.5611500000000  0.4591450000000 1.0
C      1  0.5350510000000  0.5422850000000  0.4942620000000 1.0
C      1  0.4879480000000  0.5504100000000  0.5866510000000 1.0
C      1  0.5653030000000  0.4205420000000  0.5258090000000 1.0
C      1  0.4872590000000  0.5927850000000  0.5003450000000 1.0
C      1  0.4424070000000  0.5339470000000  0.5437920000000 1.0
C      1  0.4820150000000  0.4481350000000  0.4809600000000 1.0
C      1  0.4248570000000  0.5169160000000  0.5595170000000 1.0
C      1  0.3931860000000  0.5012630000000  0.5018350000000 1.0
C      1  0.5904910000000  0.5539510000000  0.4681220000000 1.0
C      1  0.4680770000000  0.4952180000000  0.4839630000000 1.0
C      1  0.4488220000000  0.4531400000000  0.4219490000000 1.0
C      1  0.4808930000000  0.5810920000000  0.5645850000000 1.0
C      1  0.5086510000000  0.5053790000000  0.5656400000000 1.0
C      1  0.5842720000000  0.4593280000000  0.4987400000000 1.0
C      1  0.5551280000000  0.5225160000000  0.5612430000000 1.0
C      1  0.4992630000000  0.4075360000000  0.4775020000000 1.0
C      1  0.5081450000000  0.4798900000000  0.5835110000000 1.0
C      1  0.4504120000000  0.5751180000000  0.5213040000000 1.0
C      1  0.5811110000000  0.5734930000000  0.4871180000000 1.0
C      1  0.5184520000000  0.4040160000000  0.4579370000000 1.0
C      1  0.4769280000000  0.4424130000000  0.4299010000000 1.0
C      1  0.4502580000000  0.4491730000000  0.4865190000000 1.0
C      1  0.4400870000000  0.5465090000000  0.5161870000000 1.0
C      1  0.4158730000000  0.5454450000000  0.4964220000000 1.0
C      1  0.4331830000000  0.5372130000000  0.4511440000000 1.0
C      1  0.5176980000000  0.4543590000000  0.4487680000000 1.0
C      1  0.5006960000000  0.5092460000000  0.4442930000000 1.0
C      1  0.4013950000000  0.5075860000000  0.5482510000000 1.0
C      1  0.5531920000000  0.5806190000000  0.4789080000000 1.0
END
