TITL C-951347-9520-755 -8.18487337643798e-06 125000 -85.6708338329264 0 0 15 (C1) n - 1
REM
REM in /home/bkarasulu/work/CARBON/AIRSS/Generating-Clusters/EDIP-Nigel-Params/with-SteepDescent/Only-C1/SD-CG/HFTN-CG
REM
REM
REM
REM
REM
REM ./C.cell (11c1c37f851c82e70ff6c80c92926a4b)
REM
REM compiler GCC version 9.2.1 20190827 (Red Hat 9.2.1-1)
REM options -cpp -mtune=generic -march=x86-64 -g -O0 -fpre-include=/usr/include/finclude/math-vector-fortran.h
REM seed -2136517445 1098342603 341878939 -516234676 1043149158 -1495486712 -1402021138 1279529174 1919011859 1963843350 2024602610 1701210587 1964261273 1168955360 -323546469 665163754 379175100 760604564 -105645773 1485195835 -1471949106 -1697948184 1861314915 516925736 1618890297 1470592933 2064463482 592138160 582758569 1420275167 2010954995 -829770178 -851486546
REM
CELL 1.54180   50.00000   50.00000   50.00000   90.00000   90.00000   90.00000
LATT -1
SFAC C  
C      1  0.5283970000000  0.4897970000000  0.5287900000000 1.0
C      1  0.5035310000000  0.4762330000000  0.5281300000000 1.0
C      1  0.4427810000000  0.4653390000000  0.5066570000000 1.0
C      1  0.4924230000000  0.5213370000000  0.5189020000000 1.0
C      1  0.5259310000000  0.5274820000000  0.4997840000000 1.0
C      1  0.5456080000000  0.4843740000000  0.5069150000000 1.0
C      1  0.4966630000000  0.5321680000000  0.4893400000000 1.0
C      1  0.5042590000000  0.5003840000000  0.4512690000000 1.0
C      1  0.4900880000000  0.5176170000000  0.4665000000000 1.0
C      1  0.5279180000000  0.4949780000000  0.4631020000000 1.0
C      1  0.4824080000000  0.4931400000000  0.5209470000000 1.0
C      1  0.5384100000000  0.5032330000000  0.4875210000000 1.0
C      1  0.4634200000000  0.4840500000000  0.5012820000000 1.0
C      1  0.4358620000000  0.4908010000000  0.5011060000000 1.0
C      1  0.5223010000000  0.5190670000000  0.5297550000000 1.0
END
