TITL C-951348-1603-698 -1.75119736688602e-06 125000 -904.273438481508 0 0 145 (C1) n - 1
REM
REM in /home/bkarasulu/work/CARBON/AIRSS/Generating-Clusters/EDIP-Nigel-Params/with-SteepDescent/Only-C1/SD-CG/HFTN-CG
REM
REM
REM
REM
REM
REM ./C.cell (11c1c37f851c82e70ff6c80c92926a4b)
REM
REM compiler GCC version 9.2.1 20190827 (Red Hat 9.2.1-1)
REM options -cpp -mtune=generic -march=x86-64 -g -O0 -fpre-include=/usr/include/finclude/math-vector-fortran.h
REM seed -1295006999 636907270 -710226901 1472111511 1356095038 938867145 -1624838713 -129563453 -1028347476 1499359202 1816583150 -1600448998 -10367583 -1784618908 -1347960706 924724622 -1091422567 1746973042 -136278665 194816367 187077419 -301942063 -1572855356 -169725274 1916241912 -1486737501 -799998737 -19312638 1529260116 280404937 -1362370548 1260231614 1995703305
REM
CELL 1.54180   50.00000   50.00000   50.00000   90.00000   90.00000   90.00000
LATT -1
SFAC C  
C      1  0.5261010000000  0.5404700000000  0.5199780000000 1.0
C      1  0.4429110000000  0.5697660000000  0.4590310000000 1.0
C      1  0.5810080000000  0.5656250000000  0.4981260000000 1.0
C      1  0.5344500000000  0.5021040000000  0.4154050000000 1.0
C      1  0.5662800000000  0.5622840000000  0.4520210000000 1.0
C      1  0.4917260000000  0.6001410000000  0.5061360000000 1.0
C      1  0.4784040000000  0.6084420000000  0.5299100000000 1.0
C      1  0.4097260000000  0.5450130000000  0.4971960000000 1.0
C      1  0.4980640000000  0.4577390000000  0.5517360000000 1.0
C      1  0.5226750000000  0.5610550000000  0.4291710000000 1.0
C      1  0.5800130000000  0.5074140000000  0.4475550000000 1.0
C      1  0.5152690000000  0.5418260000000  0.5745270000000 1.0
C      1  0.5467400000000  0.5452670000000  0.4383510000000 1.0
C      1  0.4678290000000  0.4074010000000  0.5046830000000 1.0
C      1  0.5538490000000  0.5849340000000  0.4650220000000 1.0
C      1  0.5819760000000  0.4534250000000  0.4415460000000 1.0
C      1  0.3908620000000  0.4829310000000  0.4977790000000 1.0
C      1  0.5543840000000  0.5104650000000  0.4999500000000 1.0
C      1  0.4844890000000  0.5210580000000  0.4964010000000 1.0
C      1  0.4435830000000  0.4834280000000  0.4203940000000 1.0
C      1  0.4577870000000  0.4049920000000  0.5553360000000 1.0
C      1  0.5373340000000  0.4900810000000  0.5391200000000 1.0
C      1  0.4946850000000  0.4478370000000  0.5799440000000 1.0
C      1  0.5157860000000  0.4386780000000  0.5324450000000 1.0
C      1  0.4222870000000  0.4942750000000  0.5402940000000 1.0
C      1  0.4440120000000  0.4768640000000  0.5513630000000 1.0
C      1  0.5642520000000  0.5894180000000  0.5010520000000 1.0
C      1  0.4144510000000  0.4492960000000  0.5262560000000 1.0
C      1  0.5940900000000  0.4883670000000  0.5603250000000 1.0
C      1  0.5652460000000  0.4489060000000  0.4205110000000 1.0
C      1  0.5277400000000  0.4606720000000  0.4515960000000 1.0
C      1  0.4256840000000  0.4620820000000  0.4594000000000 1.0
C      1  0.4899540000000  0.5349110000000  0.4088650000000 1.0
C      1  0.5619840000000  0.4190320000000  0.5301380000000 1.0
C      1  0.3859140000000  0.4579190000000  0.4847230000000 1.0
C      1  0.5432590000000  0.5903950000000  0.5214880000000 1.0
C      1  0.4792040000000  0.5613120000000  0.5305990000000 1.0
C      1  0.5409710000000  0.5647570000000  0.5376620000000 1.0
C      1  0.4289790000000  0.5666480000000  0.5380010000000 1.0
C      1  0.4892950000000  0.5038880000000  0.5405830000000 1.0
C      1  0.5849420000000  0.4289250000000  0.5123930000000 1.0
C      1  0.4709630000000  0.4792500000000  0.5344190000000 1.0
C      1  0.5763120000000  0.4785330000000  0.4565890000000 1.0
C      1  0.5131020000000  0.4658590000000  0.5964830000000 1.0
C      1  0.4637570000000  0.3958340000000  0.5307270000000 1.0
C      1  0.4953660000000  0.5303710000000  0.5256570000000 1.0
C      1  0.5279200000000  0.5780250000000  0.4785350000000 1.0
C      1  0.4359550000000  0.4974310000000  0.4911650000000 1.0
C      1  0.4540010000000  0.5207140000000  0.4876540000000 1.0
C      1  0.5829440000000  0.4328150000000  0.4605050000000 1.0
C      1  0.4603530000000  0.5704580000000  0.4329060000000 1.0
C      1  0.6042700000000  0.5115600000000  0.4953720000000 1.0
C      1  0.4621710000000  0.4346290000000  0.4293520000000 1.0
C      1  0.4302880000000  0.5421550000000  0.4533350000000 1.0
C      1  0.5612140000000  0.4741530000000  0.5974440000000 1.0
C      1  0.5103810000000  0.4870710000000  0.5536620000000 1.0
C      1  0.5690570000000  0.5556010000000  0.5444560000000 1.0
C      1  0.4964040000000  0.4698210000000  0.4146990000000 1.0
C      1  0.5453000000000  0.4837950000000  0.4610180000000 1.0
C      1  0.4505590000000  0.4722250000000  0.5891260000000 1.0
C      1  0.5859280000000  0.4700820000000  0.4843930000000 1.0
C      1  0.4780150000000  0.4589200000000  0.5092400000000 1.0
C      1  0.5372000000000  0.4507220000000  0.4239930000000 1.0
C      1  0.5124750000000  0.5175100000000  0.4033390000000 1.0
C      1  0.4199950000000  0.4988590000000  0.4292460000000 1.0
C      1  0.5163100000000  0.4242480000000  0.4431210000000 1.0
C      1  0.5080500000000  0.4547870000000  0.5086570000000 1.0
C      1  0.4188070000000  0.5191450000000  0.5557190000000 1.0
C      1  0.4753010000000  0.4711370000000  0.4813090000000 1.0
C      1  0.4945250000000  0.5478380000000  0.4836530000000 1.0
C      1  0.4541890000000  0.5526680000000  0.5425560000000 1.0
C      1  0.4760780000000  0.4224690000000  0.4692400000000 1.0
C      1  0.5312600000000  0.5192640000000  0.5850420000000 1.0
C      1  0.4087770000000  0.5011670000000  0.4793180000000 1.0
C      1  0.4929750000000  0.4958640000000  0.4288250000000 1.0
C      1  0.5115550000000  0.4945690000000  0.5840170000000 1.0
C      1  0.4580200000000  0.4356940000000  0.5062840000000 1.0
C      1  0.5456010000000  0.4105030000000  0.4851760000000 1.0
C      1  0.4408320000000  0.5219110000000  0.5766580000000 1.0
C      1  0.5075640000000  0.5881440000000  0.4607590000000 1.0
C      1  0.5443970000000  0.4394470000000  0.5712050000000 1.0
C      1  0.4831740000000  0.5863260000000  0.5470790000000 1.0
C      1  0.5678190000000  0.5293720000000  0.5543930000000 1.0
C      1  0.4280000000000  0.4419530000000  0.5005160000000 1.0
C      1  0.5164140000000  0.4818190000000  0.5009840000000 1.0
C      1  0.4623050000000  0.5311580000000  0.4019310000000 1.0
C      1  0.6019950000000  0.5253610000000  0.5211920000000 1.0
C      1  0.5901040000000  0.5229860000000  0.4712350000000 1.0
C      1  0.5883940000000  0.5518820000000  0.5223330000000 1.0
C      1  0.4646110000000  0.4462690000000  0.5857670000000 1.0
C      1  0.4396650000000  0.5448470000000  0.5015490000000 1.0
C      1  0.4349680000000  0.4493070000000  0.5477480000000 1.0
C      1  0.4905490000000  0.4452710000000  0.4322000000000 1.0
C      1  0.4443550000000  0.4712180000000  0.4825950000000 1.0
C      1  0.4493780000000  0.4299090000000  0.5650620000000 1.0
C      1  0.4794360000000  0.5717940000000  0.5004530000000 1.0
C      1  0.5451780000000  0.5164790000000  0.5259250000000 1.0
C      1  0.6072890000000  0.4828500000000  0.4987060000000 1.0
C      1  0.4990850000000  0.4054690000000  0.4960040000000 1.0
C      1  0.5831580000000  0.5511160000000  0.4726990000000 1.0
C      1  0.4836280000000  0.5414800000000  0.4563540000000 1.0
C      1  0.6001180000000  0.4534680000000  0.5226300000000 1.0
C      1  0.5240060000000  0.5497270000000  0.4896310000000 1.0
C      1  0.4460660000000  0.5535860000000  0.4119080000000 1.0
C      1  0.5848730000000  0.4650630000000  0.5445620000000 1.0
C      1  0.5747880000000  0.4941310000000  0.5832560000000 1.0
C      1  0.5254840000000  0.4731030000000  0.4089650000000 1.0
C      1  0.5191380000000  0.6026890000000  0.5134050000000 1.0
C      1  0.4587040000000  0.4994420000000  0.5852620000000 1.0
C      1  0.4594370000000  0.4130340000000  0.4477170000000 1.0
C      1  0.4029760000000  0.4771200000000  0.5250810000000 1.0
C      1  0.4636140000000  0.5058230000000  0.4292540000000 1.0
C      1  0.5425170000000  0.4033710000000  0.5137910000000 1.0
C      1  0.4422170000000  0.4567870000000  0.4340860000000 1.0
C      1  0.4867480000000  0.4499490000000  0.4630880000000 1.0
C      1  0.4092010000000  0.4862060000000  0.4532230000000 1.0
C      1  0.5091910000000  0.4942690000000  0.4552060000000 1.0
C      1  0.4591020000000  0.5437740000000  0.5701730000000 1.0
C      1  0.4074480000000  0.5312560000000  0.4723190000000 1.0
C      1  0.5057570000000  0.5868350000000  0.5629490000000 1.0
C      1  0.3923720000000  0.5388160000000  0.5184520000000 1.0
C      1  0.4923050000000  0.5542050000000  0.4306050000000 1.0
C      1  0.4080420000000  0.5442920000000  0.5415390000000 1.0
C      1  0.5202330000000  0.5882780000000  0.4361590000000 1.0
C      1  0.4300870000000  0.5813720000000  0.5120500000000 1.0
C      1  0.4961310000000  0.4941270000000  0.4830740000000 1.0
C      1  0.5568470000000  0.4665070000000  0.5332880000000 1.0
C      1  0.5447710000000  0.4407460000000  0.5425680000000 1.0
C      1  0.6052920000000  0.5096760000000  0.5446370000000 1.0
C      1  0.4085670000000  0.4433150000000  0.4759230000000 1.0
C      1  0.4867720000000  0.5358930000000  0.5800800000000 1.0
C      1  0.4854510000000  0.5087860000000  0.5910510000000 1.0
C      1  0.5250910000000  0.5670950000000  0.5633620000000 1.0
C      1  0.5602520000000  0.5190140000000  0.5795490000000 1.0
C      1  0.5191130000000  0.4144620000000  0.4724000000000 1.0
C      1  0.5408640000000  0.4555920000000  0.5936870000000 1.0
C      1  0.5434860000000  0.4856070000000  0.4909670000000 1.0
C      1  0.5144710000000  0.4093640000000  0.5219670000000 1.0
C      1  0.5545190000000  0.5171240000000  0.4332930000000 1.0
C      1  0.5688290000000  0.4293500000000  0.4853800000000 1.0
C      1  0.5605240000000  0.4640600000000  0.5018870000000 1.0
C      1  0.4500670000000  0.5721710000000  0.4904150000000 1.0
C      1  0.4215520000000  0.5429920000000  0.4246730000000 1.0
C      1  0.4098220000000  0.5200590000000  0.4136160000000 1.0
C      1  0.4572820000000  0.5253060000000  0.4562840000000 1.0
END
