TITL C-951343-2256-142 -1.76186167110602e-06 125000 -1041.10160087246 0 0 167 (C1) n - 1
REM
REM in /home/bkarasulu/work/CARBON/AIRSS/Generating-Clusters/EDIP-Nigel-Params/with-SteepDescent/Only-C1/SD-CG/HFTN-CG
REM
REM
REM
REM
REM
REM ./C.cell (11c1c37f851c82e70ff6c80c92926a4b)
REM
REM compiler GCC version 9.2.1 20190827 (Red Hat 9.2.1-1)
REM options -cpp -mtune=generic -march=x86-64 -g -O0 -fpre-include=/usr/include/finclude/math-vector-fortran.h
REM seed -955504928 2072929441 808378536 509488775 -1262295012 2002458087 2022210661 -1691087833 1440126243 1136264479 -845097709 -1292522484 -381010392 -450723750 -1023111257 1927523570 -1609861191 -912938318 -692953668 1807568313 131059366 -1099439069 -521443606 825848939 -1032006582 145598531 1610169738 743629305 925780631 2088718573 -1370071445 -233593788 692344185
REM
CELL 1.54180   50.00000   50.00000   50.00000   90.00000   90.00000   90.00000
LATT -1
SFAC C  
C      1  0.4029820000000  0.4454570000000  0.4535790000000 1.0
C      1  0.4563480000000  0.5902460000000  0.4711150000000 1.0
C      1  0.4017250000000  0.4941690000000  0.4673290000000 1.0
C      1  0.4882310000000  0.5227590000000  0.5847000000000 1.0
C      1  0.5282570000000  0.4627450000000  0.3980680000000 1.0
C      1  0.5132770000000  0.5073330000000  0.4183130000000 1.0
C      1  0.4286320000000  0.4742820000000  0.5673490000000 1.0
C      1  0.5336250000000  0.4728520000000  0.4444770000000 1.0
C      1  0.4109050000000  0.5168190000000  0.4256120000000 1.0
C      1  0.5688670000000  0.5838890000000  0.5543490000000 1.0
C      1  0.5838850000000  0.4515960000000  0.5512660000000 1.0
C      1  0.4646740000000  0.4147970000000  0.5399580000000 1.0
C      1  0.4745390000000  0.4722430000000  0.4548770000000 1.0
C      1  0.5158660000000  0.4095290000000  0.5511820000000 1.0
C      1  0.4668080000000  0.4003780000000  0.5155640000000 1.0
C      1  0.5765920000000  0.4573200000000  0.4624130000000 1.0
C      1  0.5651610000000  0.5190730000000  0.5814600000000 1.0
C      1  0.3998500000000  0.4605670000000  0.5296170000000 1.0
C      1  0.4902750000000  0.4948600000000  0.5709090000000 1.0
C      1  0.5497670000000  0.4608770000000  0.5823640000000 1.0
C      1  0.5235510000000  0.4596370000000  0.5727990000000 1.0
C      1  0.6012120000000  0.5342740000000  0.4810830000000 1.0
C      1  0.6017770000000  0.5074750000000  0.5537210000000 1.0
C      1  0.5379630000000  0.6028120000000  0.4864130000000 1.0
C      1  0.3940490000000  0.5233950000000  0.4710320000000 1.0
C      1  0.4635810000000  0.4810490000000  0.6097270000000 1.0
C      1  0.5614820000000  0.5104890000000  0.4139730000000 1.0
C      1  0.5746080000000  0.4687350000000  0.5721890000000 1.0
C      1  0.5964170000000  0.4779940000000  0.4677110000000 1.0
C      1  0.4649130000000  0.4350560000000  0.5006430000000 1.0
C      1  0.4320100000000  0.5509040000000  0.5635490000000 1.0
C      1  0.5671070000000  0.5414320000000  0.5601020000000 1.0
C      1  0.4385560000000  0.5221620000000  0.4148850000000 1.0
C      1  0.4454490000000  0.4496240000000  0.5653510000000 1.0
C      1  0.5243010000000  0.5302980000000  0.5541290000000 1.0
C      1  0.4303030000000  0.5218860000000  0.5528740000000 1.0
C      1  0.4402210000000  0.4303980000000  0.5443180000000 1.0
C      1  0.4037570000000  0.4800250000000  0.5518660000000 1.0
C      1  0.4597890000000  0.5192130000000  0.4578060000000 1.0
C      1  0.5281080000000  0.5494710000000  0.5084650000000 1.0
C      1  0.5001980000000  0.5639070000000  0.5026330000000 1.0
C      1  0.4843230000000  0.4573200000000  0.5063110000000 1.0
C      1  0.4702760000000  0.5311270000000  0.4825880000000 1.0
C      1  0.5772600000000  0.4407460000000  0.5087990000000 1.0
C      1  0.4806950000000  0.4619620000000  0.4040080000000 1.0
C      1  0.5214220000000  0.5091350000000  0.5326960000000 1.0
C      1  0.5199070000000  0.4293280000000  0.5046360000000 1.0
C      1  0.4258780000000  0.5549470000000  0.4964670000000 1.0
C      1  0.5699880000000  0.4914700000000  0.5168400000000 1.0
C      1  0.5187000000000  0.4786170000000  0.4198060000000 1.0
C      1  0.4502000000000  0.5006440000000  0.4003380000000 1.0
C      1  0.4528780000000  0.5394470000000  0.4371140000000 1.0
C      1  0.5308560000000  0.5904200000000  0.5775540000000 1.0
C      1  0.5639440000000  0.4382250000000  0.4815700000000 1.0
C      1  0.4435660000000  0.5732050000000  0.5457200000000 1.0
C      1  0.4538050000000  0.4072260000000  0.4679510000000 1.0
C      1  0.6089400000000  0.4823610000000  0.4943510000000 1.0
C      1  0.4042260000000  0.5087230000000  0.5416330000000 1.0
C      1  0.5417700000000  0.5983060000000  0.5152610000000 1.0
C      1  0.4298860000000  0.4903850000000  0.5045340000000 1.0
C      1  0.5184170000000  0.5202270000000  0.5056700000000 1.0
C      1  0.5151890000000  0.4987080000000  0.4823650000000 1.0
C      1  0.5446920000000  0.5346640000000  0.4640900000000 1.0
C      1  0.4544220000000  0.4729500000000  0.4034800000000 1.0
C      1  0.5246820000000  0.5008680000000  0.5997170000000 1.0
C      1  0.4808510000000  0.5582500000000  0.4342270000000 1.0
C      1  0.5578020000000  0.4357260000000  0.4229090000000 1.0
C      1  0.4903610000000  0.4279040000000  0.5503110000000 1.0
C      1  0.4956950000000  0.5392140000000  0.5609690000000 1.0
C      1  0.4107830000000  0.4616510000000  0.4317480000000 1.0
C      1  0.4109300000000  0.4246700000000  0.4978820000000 1.0
C      1  0.4621500000000  0.5292760000000  0.5987950000000 1.0
C      1  0.4308350000000  0.5772090000000  0.4664830000000 1.0
C      1  0.4390930000000  0.5005380000000  0.5736050000000 1.0
C      1  0.5388840000000  0.5099130000000  0.5747540000000 1.0
C      1  0.5650620000000  0.4350330000000  0.5356350000000 1.0
C      1  0.5845150000000  0.4969740000000  0.5739290000000 1.0
C      1  0.4952600000000  0.4684870000000  0.4761980000000 1.0
C      1  0.5590420000000  0.4884180000000  0.4891320000000 1.0
C      1  0.5559310000000  0.5540320000000  0.5953600000000 1.0
C      1  0.5616960000000  0.4633070000000  0.4373210000000 1.0
C      1  0.5858890000000  0.5747950000000  0.5107660000000 1.0
C      1  0.5113360000000  0.4329870000000  0.4347430000000 1.0
C      1  0.4959070000000  0.5949290000000  0.5046730000000 1.0
C      1  0.4239720000000  0.4638460000000  0.5123650000000 1.0
C      1  0.5209210000000  0.4661390000000  0.5434110000000 1.0
C      1  0.5269260000000  0.5520830000000  0.6033390000000 1.0
C      1  0.4776660000000  0.5581310000000  0.5229480000000 1.0
C      1  0.5634910000000  0.4106070000000  0.4685990000000 1.0
C      1  0.5036660000000  0.5474610000000  0.4531840000000 1.0
C      1  0.5220260000000  0.3948030000000  0.4707740000000 1.0
C      1  0.5919530000000  0.5334160000000  0.5454690000000 1.0
C      1  0.5765000000000  0.4885380000000  0.4247850000000 1.0
C      1  0.5231300000000  0.4054060000000  0.4430310000000 1.0
C      1  0.5342940000000  0.4758790000000  0.4953450000000 1.0
C      1  0.4821420000000  0.4622250000000  0.5995230000000 1.0
C      1  0.5579730000000  0.5799300000000  0.5798680000000 1.0
C      1  0.5183410000000  0.4526430000000  0.4599820000000 1.0
C      1  0.4392630000000  0.4588270000000  0.4239510000000 1.0
C      1  0.5415650000000  0.4210710000000  0.5453120000000 1.0
C      1  0.4054790000000  0.5375430000000  0.4472810000000 1.0
C      1  0.4130050000000  0.4303270000000  0.5290830000000 1.0
C      1  0.5377880000000  0.5550350000000  0.5398580000000 1.0
C      1  0.4490220000000  0.5034730000000  0.6003980000000 1.0
C      1  0.4988130000000  0.4894080000000  0.5421770000000 1.0
C      1  0.4482480000000  0.4123980000000  0.4411630000000 1.0
C      1  0.4871370000000  0.5381640000000  0.3903200000000 1.0
C      1  0.5347260000000  0.4471660000000  0.4857700000000 1.0
C      1  0.5363200000000  0.5221540000000  0.4074160000000 1.0
C      1  0.3901280000000  0.4761090000000  0.4898030000000 1.0
C      1  0.4732020000000  0.4468630000000  0.5752340000000 1.0
C      1  0.5873030000000  0.5175530000000  0.5192330000000 1.0
C      1  0.5032610000000  0.4083440000000  0.4900970000000 1.0
C      1  0.4765540000000  0.5867480000000  0.4479650000000 1.0
C      1  0.4547640000000  0.4965910000000  0.5182250000000 1.0
C      1  0.4803410000000  0.5323030000000  0.5374640000000 1.0
C      1  0.4023320000000  0.5336570000000  0.4974950000000 1.0
C      1  0.4578260000000  0.4396600000000  0.4381380000000 1.0
C      1  0.5500870000000  0.5544680000000  0.4851590000000 1.0
C      1  0.5967560000000  0.4970420000000  0.4452260000000 1.0
C      1  0.4770240000000  0.4801990000000  0.5233560000000 1.0
C      1  0.4310770000000  0.4911970000000  0.4755090000000 1.0
C      1  0.5049640000000  0.4446110000000  0.5258470000000 1.0
C      1  0.5106290000000  0.5263940000000  0.6047150000000 1.0
C      1  0.5311280000000  0.4373370000000  0.4107080000000 1.0
C      1  0.4835500000000  0.4417700000000  0.4240280000000 1.0
C      1  0.5205790000000  0.5799210000000  0.5509790000000 1.0
C      1  0.4479720000000  0.4710260000000  0.4655980000000 1.0
C      1  0.4945030000000  0.5692040000000  0.5640670000000 1.0
C      1  0.4625700000000  0.5934260000000  0.5006760000000 1.0
C      1  0.4986820000000  0.5557280000000  0.4090670000000 1.0
C      1  0.4530730000000  0.5216640000000  0.5306620000000 1.0
C      1  0.5909380000000  0.4675650000000  0.5175230000000 1.0
C      1  0.5452220000000  0.5795690000000  0.4696860000000 1.0
C      1  0.5156780000000  0.6003770000000  0.5290000000000 1.0
C      1  0.5558390000000  0.5102220000000  0.4715540000000 1.0
C      1  0.5241350000000  0.5752770000000  0.4490150000000 1.0
C      1  0.4513560000000  0.5385990000000  0.5042250000000 1.0
C      1  0.5480860000000  0.3907900000000  0.4814880000000 1.0
C      1  0.5662240000000  0.5864370000000  0.5267970000000 1.0
C      1  0.5040380000000  0.5972170000000  0.4532580000000 1.0
C      1  0.5828990000000  0.5432420000000  0.4352340000000 1.0
C      1  0.4316700000000  0.4102410000000  0.4851760000000 1.0
C      1  0.5551060000000  0.5459800000000  0.4390740000000 1.0
C      1  0.4303310000000  0.5522960000000  0.4524270000000 1.0
C      1  0.4906910000000  0.5131670000000  0.4008610000000 1.0
C      1  0.5062640000000  0.4778170000000  0.5891240000000 1.0
C      1  0.5794590000000  0.5527350000000  0.4945770000000 1.0
C      1  0.4397750000000  0.5788300000000  0.5160100000000 1.0
C      1  0.5282250000000  0.5502230000000  0.4130640000000 1.0
C      1  0.5529530000000  0.4110250000000  0.4403770000000 1.0
C      1  0.3976560000000  0.4471280000000  0.4812430000000 1.0
C      1  0.4775140000000  0.4213060000000  0.4781010000000 1.0
C      1  0.4003950000000  0.4892800000000  0.4370560000000 1.0
C      1  0.5131020000000  0.5766630000000  0.5966660000000 1.0
C      1  0.5074880000000  0.5149700000000  0.4504150000000 1.0
C      1  0.4458290000000  0.5491800000000  0.5877370000000 1.0
C      1  0.5092030000000  0.6085310000000  0.4806070000000 1.0
C      1  0.5455980000000  0.4902250000000  0.5355520000000 1.0
C      1  0.6112330000000  0.5124640000000  0.5008180000000 1.0
C      1  0.4933000000000  0.3890310000000  0.5110280000000 1.0
C      1  0.4796310000000  0.5011110000000  0.4467240000000 1.0
C      1  0.5088370000000  0.3883170000000  0.5344710000000 1.0
C      1  0.4033730000000  0.5056060000000  0.5114020000000 1.0
C      1  0.4894880000000  0.5514020000000  0.4781920000000 1.0
C      1  0.5975890000000  0.5259230000000  0.4520830000000 1.0
C      1  0.4706400000000  0.5824180000000  0.5521200000000 1.0
END
