TITL C-950530-3293-249 25.8674141867939 125000 -126.293907906845 0 0 23 (C1) n - 1
REM
REM in /home/bkarasulu/work/CARBON/AIRSS/Generating-Clusters/EDIP-Nigel-Params/with-SteepDescent/Only-C1/SD-CG/HFTN-CG
REM
REM
REM
REM
REM
REM ./C.cell (11c1c37f851c82e70ff6c80c92926a4b)
REM
REM compiler GCC version 9.2.1 20190827 (Red Hat 9.2.1-1)
REM options -cpp -mtune=generic -march=x86-64 -g -O0 -fpre-include=/usr/include/finclude/math-vector-fortran.h
REM seed -1749460359 106397622 -1175223450 227455417 -616868251 112122454 -2036924583 -1988485773 -1705072249 812901629 -2104680743 1988988888 -580181601 440015914 1602712956 -464960928 205851293 483704279 -63945898 -2021996984 51221922 -1406543991 -1250399516 -2052638786 -83015166 1240618762 358235041 -1340983853 1593683393 -183765462 -913926622 247230680 -2077843538
REM
CELL 1.54180   50.00000   50.00000   50.00000   90.00000   90.00000   90.00000
LATT -1
SFAC C  
C      1  0.5193740000000  0.4649030000000  0.5343390000000 1.0
C      1  0.5772210000000  0.5605100000000  0.4704530000000 1.0
C      1  0.3623870000000  0.4473870000000  0.5002520000000 1.0
C      1  0.5505400000000  0.5531480000000  0.4717560000000 1.0
C      1  0.4956080000000  0.5398540000000  0.4733670000000 1.0
C      1  0.4014470000000  0.4747170000000  0.5089280000000 1.0
C      1  0.5512550000000  0.4386800000000  0.5591830000000 1.0
C      1  0.5891530000000  0.5319650000000  0.4344650000000 1.0
C      1  0.5506990000000  0.4941060000000  0.5167440000000 1.0
C      1  0.5041540000000  0.5026190000000  0.5031600000000 1.0
C      1  0.5413240000000  0.5309810000000  0.4868460000000 1.0
C      1  0.4775320000000  0.4962950000000  0.5041380000000 1.0
C      1  0.4266480000000  0.4825180000000  0.5072620000000 1.0
C      1  0.5657030000000  0.4762540000000  0.5326730000000 1.0
C      1  0.5134210000000  0.5247790000000  0.4877270000000 1.0
C      1  0.5232650000000  0.4874150000000  0.5177620000000 1.0
C      1  0.4521970000000  0.4889640000000  0.5058720000000 1.0
C      1  0.5457440000000  0.4588260000000  0.5429720000000 1.0
C      1  0.3742740000000  0.4712290000000  0.5099470000000 1.0
C      1  0.5768170000000  0.5532570000000  0.4437610000000 1.0
C      1  0.3628490000000  0.4515690000000  0.5268790000000 1.0
C      1  0.4793580000000  0.5544180000000  0.4599390000000 1.0
C      1  0.5590310000000  0.5156060000000  0.5015750000000 1.0
END
