TITL C-951345-2650-604 1.29173280717691e-06 125000 -667.00055181485 0 0 106 (C1) n - 1
REM
REM in /home/bkarasulu/work/CARBON/AIRSS/Generating-Clusters/EDIP-Nigel-Params/with-SteepDescent/Only-C1/SD-CG/HFTN-CG
REM
REM
REM
REM
REM
REM ./C.cell (11c1c37f851c82e70ff6c80c92926a4b)
REM
REM compiler GCC version 9.2.1 20190827 (Red Hat 9.2.1-1)
REM options -cpp -mtune=generic -march=x86-64 -g -O0 -fpre-include=/usr/include/finclude/math-vector-fortran.h
REM seed 822094215 -93314779 -1578573090 -228538276 1612265450 -2042723014 -369237465 -621224214 -806759533 2128641281 -2130862108 -2120362637 -1343830879 1384908889 -1758986149 -699204673 -1741325457 -1026558121 -1390354337 2137323482 2063069658 833003311 -2072543789 771767298 -620155642 2026995137 -581440599 -1355885288 -820969189 1140112538 347169338 673596075 -53613721
REM
CELL 1.54180   50.00000   50.00000   50.00000   90.00000   90.00000   90.00000
LATT -1
SFAC C  
C      1  0.4988840000000  0.4662510000000  0.4554290000000 1.0
C      1  0.5670090000000  0.4795920000000  0.5571490000000 1.0
C      1  0.4898740000000  0.4864240000000  0.5979580000000 1.0
C      1  0.4953890000000  0.5375590000000  0.5123840000000 1.0
C      1  0.4785720000000  0.4451300000000  0.4626080000000 1.0
C      1  0.4420860000000  0.5451820000000  0.5027510000000 1.0
C      1  0.5297260000000  0.4380330000000  0.5516710000000 1.0
C      1  0.4442390000000  0.5493980000000  0.5322330000000 1.0
C      1  0.5216510000000  0.6009690000000  0.4886040000000 1.0
C      1  0.5138580000000  0.5149130000000  0.4481080000000 1.0
C      1  0.4302040000000  0.5134590000000  0.5732930000000 1.0
C      1  0.5585490000000  0.5842060000000  0.5167870000000 1.0
C      1  0.5116770000000  0.5445700000000  0.4388200000000 1.0
C      1  0.5710560000000  0.5574220000000  0.4776900000000 1.0
C      1  0.4467650000000  0.4447270000000  0.5530960000000 1.0
C      1  0.5786320000000  0.5068460000000  0.4598110000000 1.0
C      1  0.5492110000000  0.4448410000000  0.5296430000000 1.0
C      1  0.4130680000000  0.4852500000000  0.5367380000000 1.0
C      1  0.5309940000000  0.5839300000000  0.5096360000000 1.0
C      1  0.4430030000000  0.4738370000000  0.4770760000000 1.0
C      1  0.4670850000000  0.5470630000000  0.4592760000000 1.0
C      1  0.5615150000000  0.4837620000000  0.4642930000000 1.0
C      1  0.5198870000000  0.4811490000000  0.5873060000000 1.0
C      1  0.4870710000000  0.4913370000000  0.5040390000000 1.0
C      1  0.5086320000000  0.5099340000000  0.5546550000000 1.0
C      1  0.5799350000000  0.4766180000000  0.5109500000000 1.0
C      1  0.4512880000000  0.4713310000000  0.5653760000000 1.0
C      1  0.5801870000000  0.4575960000000  0.4611670000000 1.0
C      1  0.4418390000000  0.5041890000000  0.4723670000000 1.0
C      1  0.4871610000000  0.4434040000000  0.5766770000000 1.0
C      1  0.4580580000000  0.4675840000000  0.4272850000000 1.0
C      1  0.5357760000000  0.4885630000000  0.5140560000000 1.0
C      1  0.5778670000000  0.4531510000000  0.4913810000000 1.0
C      1  0.4537460000000  0.5466530000000  0.4321550000000 1.0
C      1  0.5840890000000  0.5060910000000  0.5099190000000 1.0
C      1  0.5159990000000  0.5571220000000  0.5505530000000 1.0
C      1  0.5029120000000  0.5408920000000  0.4105540000000 1.0
C      1  0.4736400000000  0.5814410000000  0.4956870000000 1.0
C      1  0.4679020000000  0.5643480000000  0.5422020000000 1.0
C      1  0.4871180000000  0.5517230000000  0.5625460000000 1.0
C      1  0.4984410000000  0.5868150000000  0.4538190000000 1.0
C      1  0.4641210000000  0.4155380000000  0.4999380000000 1.0
C      1  0.5203830000000  0.5121520000000  0.4765420000000 1.0
C      1  0.4775890000000  0.4091150000000  0.5347390000000 1.0
C      1  0.4474700000000  0.4658860000000  0.5068000000000 1.0
C      1  0.5116230000000  0.4600360000000  0.4290410000000 1.0
C      1  0.5194920000000  0.4629280000000  0.4766940000000 1.0
C      1  0.5148240000000  0.4248880000000  0.5115280000000 1.0
C      1  0.5720150000000  0.5501170000000  0.5296250000000 1.0
C      1  0.4347640000000  0.5081380000000  0.4428290000000 1.0
C      1  0.4973820000000  0.4489690000000  0.5126140000000 1.0
C      1  0.5591160000000  0.5060900000000  0.5593750000000 1.0
C      1  0.4236450000000  0.4853450000000  0.5661660000000 1.0
C      1  0.5068880000000  0.4052000000000  0.5326970000000 1.0
C      1  0.4994600000000  0.4817970000000  0.5471110000000 1.0
C      1  0.4232660000000  0.5104870000000  0.5246370000000 1.0
C      1  0.4598240000000  0.4967840000000  0.4292190000000 1.0
C      1  0.4527020000000  0.4555810000000  0.4544790000000 1.0
C      1  0.4675530000000  0.5092970000000  0.4027130000000 1.0
C      1  0.5387330000000  0.5180790000000  0.5189570000000 1.0
C      1  0.4863190000000  0.5666420000000  0.5187360000000 1.0
C      1  0.4771410000000  0.5134410000000  0.5928810000000 1.0
C      1  0.5316380000000  0.5066290000000  0.5740300000000 1.0
C      1  0.4713420000000  0.5173190000000  0.4696380000000 1.0
C      1  0.4279560000000  0.5202340000000  0.4958000000000 1.0
C      1  0.4618590000000  0.4898950000000  0.5182010000000 1.0
C      1  0.5356060000000  0.5624830000000  0.4426540000000 1.0
C      1  0.5884140000000  0.5168790000000  0.4841540000000 1.0
C      1  0.5551900000000  0.4349440000000  0.5007380000000 1.0
C      1  0.4699320000000  0.4286020000000  0.5567910000000 1.0
C      1  0.4827720000000  0.5215440000000  0.5652650000000 1.0
C      1  0.5610780000000  0.5217940000000  0.4424840000000 1.0
C      1  0.4288550000000  0.5336240000000  0.4332420000000 1.0
C      1  0.5067990000000  0.4767360000000  0.5194580000000 1.0
C      1  0.5159860000000  0.5307540000000  0.5330420000000 1.0
C      1  0.4853970000000  0.4990760000000  0.4484820000000 1.0
C      1  0.4337090000000  0.5264680000000  0.5465090000000 1.0
C      1  0.4912450000000  0.4692680000000  0.4100180000000 1.0
C      1  0.5590010000000  0.4539760000000  0.4402170000000 1.0
C      1  0.4936570000000  0.4957360000000  0.3966090000000 1.0
C      1  0.4682670000000  0.4412620000000  0.5149060000000 1.0
C      1  0.5364200000000  0.5045090000000  0.4290280000000 1.0
C      1  0.5102260000000  0.4123180000000  0.4834080000000 1.0
C      1  0.5115170000000  0.5790650000000  0.5302630000000 1.0
C      1  0.4491070000000  0.5150540000000  0.5943950000000 1.0
C      1  0.5165120000000  0.5146220000000  0.4036090000000 1.0
C      1  0.5767260000000  0.5651470000000  0.5046150000000 1.0
C      1  0.4938630000000  0.5162750000000  0.4911830000000 1.0
C      1  0.5324230000000  0.4354030000000  0.4784790000000 1.0
C      1  0.4930260000000  0.5992780000000  0.4794640000000 1.0
C      1  0.4813380000000  0.4177570000000  0.4758910000000 1.0
C      1  0.4929960000000  0.5586640000000  0.4550730000000 1.0
C      1  0.5576350000000  0.5483430000000  0.4544050000000 1.0
C      1  0.4542170000000  0.5627610000000  0.4820680000000 1.0
C      1  0.5110650000000  0.4589860000000  0.5661850000000 1.0
C      1  0.5654960000000  0.5211360000000  0.5302340000000 1.0
C      1  0.4210370000000  0.4610300000000  0.5211260000000 1.0
C      1  0.4704930000000  0.4647620000000  0.5892950000000 1.0
C      1  0.4694250000000  0.4892120000000  0.5473740000000 1.0
C      1  0.4238750000000  0.4385210000000  0.5379070000000 1.0
C      1  0.5583240000000  0.4725930000000  0.5301020000000 1.0
C      1  0.4722780000000  0.5380220000000  0.4085680000000 1.0
C      1  0.5222460000000  0.4110650000000  0.5552210000000 1.0
C      1  0.5388420000000  0.4728450000000  0.4289170000000 1.0
C      1  0.5275560000000  0.5887200000000  0.4528170000000 1.0
C      1  0.5357530000000  0.4868710000000  0.4830710000000 1.0
END
