TITL C-951338-5626-634 5.17906030646791e-07 125000 -302.602855162774 0 0 51 (C1) n - 1
REM
REM in /home/bkarasulu/work/CARBON/AIRSS/Generating-Clusters/EDIP-Nigel-Params/with-SteepDescent/Only-C1/SD-CG/HFTN-CG
REM
REM
REM
REM
REM
REM ./C.cell (11c1c37f851c82e70ff6c80c92926a4b)
REM
REM compiler GCC version 9.2.1 20190827 (Red Hat 9.2.1-1)
REM options -cpp -mtune=generic -march=x86-64 -g -O0 -fpre-include=/usr/include/finclude/math-vector-fortran.h
REM seed 1962713747 -1889199807 1396077265 -1597645401 -1301409820 1346695596 286597564 -84044095 438995711 -1120911720 1585549865 283646023 1179120499 2109319711 547609111 -326597277 -1752767020 -347997704 -320772814 1682778866 -625740784 888789805 -1700811345 -1345948670 -738706839 1248288105 1420241948 1287292864 2013851060 1956662703 511213040 29683124 -1390700499
REM
CELL 1.54180   50.00000   50.00000   50.00000   90.00000   90.00000   90.00000
LATT -1
SFAC C  
C      1  0.4662850000000  0.5674330000000  0.5028550000000 1.0
C      1  0.4229020000000  0.5150840000000  0.4742120000000 1.0
C      1  0.5333510000000  0.4763930000000  0.5551770000000 1.0
C      1  0.4853810000000  0.4529910000000  0.4443120000000 1.0
C      1  0.5491760000000  0.4893130000000  0.4651690000000 1.0
C      1  0.4607780000000  0.5297440000000  0.4491420000000 1.0
C      1  0.5122100000000  0.4310530000000  0.4761330000000 1.0
C      1  0.4760500000000  0.5397220000000  0.5454020000000 1.0
C      1  0.4751420000000  0.5651130000000  0.4775650000000 1.0
C      1  0.4645470000000  0.4905280000000  0.4771930000000 1.0
C      1  0.5074890000000  0.5428340000000  0.5151550000000 1.0
C      1  0.5211110000000  0.4981810000000  0.5033040000000 1.0
C      1  0.5279860000000  0.4514150000000  0.4872530000000 1.0
C      1  0.5082460000000  0.5409290000000  0.4495520000000 1.0
C      1  0.4850250000000  0.4320430000000  0.5258430000000 1.0
C      1  0.5264150000000  0.5236540000000  0.5581500000000 1.0
C      1  0.4966030000000  0.4958970000000  0.4398460000000 1.0
C      1  0.4977290000000  0.5197360000000  0.5506010000000 1.0
C      1  0.4199380000000  0.5234340000000  0.4999610000000 1.0
C      1  0.5668960000000  0.5102710000000  0.4933330000000 1.0
C      1  0.4943920000000  0.4714580000000  0.4266990000000 1.0
C      1  0.4927820000000  0.4438910000000  0.5507850000000 1.0
C      1  0.5444860000000  0.5314540000000  0.5352750000000 1.0
C      1  0.5464840000000  0.5059040000000  0.5162850000000 1.0
C      1  0.4579350000000  0.4955470000000  0.5498290000000 1.0
C      1  0.4948510000000  0.4582980000000  0.5151960000000 1.0
C      1  0.4455480000000  0.5209020000000  0.5116620000000 1.0
C      1  0.5067570000000  0.5212430000000  0.4921680000000 1.0
C      1  0.4833910000000  0.5592050000000  0.5233710000000 1.0
C      1  0.4457660000000  0.4575650000000  0.4991310000000 1.0
C      1  0.5726310000000  0.4612800000000  0.5041700000000 1.0
C      1  0.4510890000000  0.5232560000000  0.5405300000000 1.0
C      1  0.5237950000000  0.4799620000000  0.4798050000000 1.0
C      1  0.5257520000000  0.5363130000000  0.4741090000000 1.0
C      1  0.4468910000000  0.5084530000000  0.4611820000000 1.0
C      1  0.5752890000000  0.4816040000000  0.4837240000000 1.0
C      1  0.5506020000000  0.5202890000000  0.4683070000000 1.0
C      1  0.5336990000000  0.5592180000000  0.4915630000000 1.0
C      1  0.4858980000000  0.4945030000000  0.5582310000000 1.0
C      1  0.4865990000000  0.4391580000000  0.4685870000000 1.0
C      1  0.4430770000000  0.4728980000000  0.5228170000000 1.0
C      1  0.4589790000000  0.4942390000000  0.5072720000000 1.0
C      1  0.5505050000000  0.4786910000000  0.5303740000000 1.0
C      1  0.4737670000000  0.4505790000000  0.4935120000000 1.0
C      1  0.5365360000000  0.5000370000000  0.5698580000000 1.0
C      1  0.5348190000000  0.5568640000000  0.5211320000000 1.0
C      1  0.5477210000000  0.4481170000000  0.5077420000000 1.0
C      1  0.5037640000000  0.4717340000000  0.5507760000000 1.0
C      1  0.4804440000000  0.5485770000000  0.4558560000000 1.0
C      1  0.4937630000000  0.4934110000000  0.4689150000000 1.0
C      1  0.5087290000000  0.5195820000000  0.4309790000000 1.0
END
