TITL C-951335-1172-751 5.24114707170487e-07 125000 -728.45154421388 0 0 117 (C1) n - 1
REM
REM in /home/bkarasulu/work/CARBON/AIRSS/Generating-Clusters/EDIP-Nigel-Params/with-SteepDescent/Only-C1/SD-CG/HFTN-CG
REM
REM
REM
REM
REM
REM ./C.cell (11c1c37f851c82e70ff6c80c92926a4b)
REM
REM compiler GCC version 9.2.1 20190827 (Red Hat 9.2.1-1)
REM options -cpp -mtune=generic -march=x86-64 -g -O0 -fpre-include=/usr/include/finclude/math-vector-fortran.h
REM seed -68576870 -1796548368 -1583651050 1688093612 980985674 1738349978 331383704 1065283057 -335316500 -518511160 -1020460064 1754313641 1132189869 -468534120 -531112277 -489973445 -547614848 -1936230116 -2080886004 -1986157896 -251364484 -1567937872 -1039433561 -814959057 -1365373083 -2043818579 620122779 -661781133 -731581157 -92750830 1901153366 1880415666 -42078767
REM
CELL 1.54180   50.00000   50.00000   50.00000   90.00000   90.00000   90.00000
LATT -1
SFAC C  
C      1  0.4892520000000  0.4191510000000  0.4725400000000 1.0
C      1  0.5893550000000  0.5333730000000  0.5109940000000 1.0
C      1  0.5451360000000  0.5034240000000  0.5864590000000 1.0
C      1  0.5704790000000  0.4721750000000  0.5583160000000 1.0
C      1  0.4656740000000  0.5708920000000  0.5428380000000 1.0
C      1  0.5236820000000  0.5747370000000  0.4567470000000 1.0
C      1  0.4131160000000  0.4811640000000  0.4786540000000 1.0
C      1  0.4676440000000  0.4091910000000  0.5145560000000 1.0
C      1  0.5840160000000  0.5023270000000  0.4750350000000 1.0
C      1  0.5800840000000  0.4617750000000  0.4464310000000 1.0
C      1  0.4519730000000  0.5527000000000  0.4676450000000 1.0
C      1  0.5099000000000  0.5539350000000  0.4047080000000 1.0
C      1  0.5114030000000  0.4240440000000  0.4530960000000 1.0
C      1  0.5450100000000  0.5434180000000  0.4974320000000 1.0
C      1  0.5723080000000  0.4421290000000  0.5180640000000 1.0
C      1  0.5030390000000  0.5048490000000  0.4332110000000 1.0
C      1  0.4704760000000  0.4451740000000  0.4382840000000 1.0
C      1  0.4922380000000  0.4566760000000  0.5149360000000 1.0
C      1  0.5906260000000  0.5312540000000  0.4804830000000 1.0
C      1  0.4465330000000  0.4396320000000  0.4819820000000 1.0
C      1  0.4959500000000  0.5693870000000  0.4503470000000 1.0
C      1  0.4306510000000  0.4600970000000  0.4703870000000 1.0
C      1  0.4342830000000  0.5730890000000  0.5105340000000 1.0
C      1  0.5396300000000  0.4330690000000  0.5588570000000 1.0
C      1  0.4741210000000  0.4807720000000  0.5079620000000 1.0
C      1  0.4178310000000  0.5106960000000  0.5461400000000 1.0
C      1  0.4398260000000  0.5566220000000  0.5449330000000 1.0
C      1  0.4754500000000  0.4962860000000  0.6036530000000 1.0
C      1  0.4899590000000  0.5563920000000  0.4251280000000 1.0
C      1  0.5149400000000  0.4263180000000  0.5429810000000 1.0
C      1  0.5109860000000  0.4983440000000  0.5525170000000 1.0
C      1  0.5835270000000  0.4894990000000  0.4486290000000 1.0
C      1  0.4516400000000  0.4725160000000  0.5651450000000 1.0
C      1  0.4374070000000  0.4424960000000  0.5314060000000 1.0
C      1  0.4044690000000  0.5476310000000  0.4850390000000 1.0
C      1  0.4734710000000  0.5741140000000  0.4685480000000 1.0
C      1  0.5393890000000  0.4789490000000  0.5172290000000 1.0
C      1  0.4223780000000  0.4673550000000  0.5279790000000 1.0
C      1  0.5311340000000  0.4501680000000  0.5828830000000 1.0
C      1  0.4793810000000  0.5256680000000  0.5379880000000 1.0
C      1  0.4065020000000  0.5110120000000  0.5187160000000 1.0
C      1  0.4424770000000  0.5426950000000  0.4398200000000 1.0
C      1  0.4769970000000  0.4837070000000  0.5504960000000 1.0
C      1  0.5122510000000  0.5512460000000  0.5627880000000 1.0
C      1  0.4254180000000  0.4827350000000  0.5523920000000 1.0
C      1  0.4288230000000  0.5608920000000  0.4854130000000 1.0
C      1  0.4902760000000  0.4231710000000  0.5024420000000 1.0
C      1  0.5026670000000  0.4861790000000  0.5990250000000 1.0
C      1  0.5663930000000  0.5806340000000  0.4768060000000 1.0
C      1  0.5281750000000  0.4741780000000  0.5469170000000 1.0
C      1  0.5612170000000  0.4420310000000  0.4400460000000 1.0
C      1  0.5129380000000  0.4592280000000  0.4165840000000 1.0
C      1  0.4644980000000  0.5425500000000  0.4199000000000 1.0
C      1  0.5697080000000  0.5547080000000  0.5122710000000 1.0
C      1  0.4676200000000  0.5156060000000  0.4091040000000 1.0
C      1  0.5626870000000  0.4470560000000  0.5444770000000 1.0
C      1  0.5383670000000  0.4682830000000  0.4311880000000 1.0
C      1  0.5323250000000  0.4678290000000  0.4599870000000 1.0
C      1  0.4465840000000  0.4271420000000  0.5086880000000 1.0
C      1  0.4521010000000  0.4439360000000  0.5570840000000 1.0
C      1  0.4911040000000  0.4794530000000  0.4200700000000 1.0
C      1  0.5714230000000  0.5046070000000  0.4283490000000 1.0
C      1  0.4749260000000  0.5229100000000  0.5876570000000 1.0
C      1  0.5183890000000  0.5088800000000  0.4826620000000 1.0
C      1  0.5557920000000  0.5610210000000  0.5381600000000 1.0
C      1  0.5747520000000  0.5006490000000  0.5490710000000 1.0
C      1  0.5028690000000  0.4594660000000  0.5878190000000 1.0
C      1  0.4100200000000  0.4844960000000  0.5076950000000 1.0
C      1  0.4546100000000  0.4669020000000  0.4247870000000 1.0
C      1  0.5230850000000  0.5199470000000  0.5337400000000 1.0
C      1  0.4658340000000  0.4278530000000  0.5758900000000 1.0
C      1  0.4641310000000  0.5150590000000  0.5607060000000 1.0
C      1  0.5174460000000  0.5075790000000  0.3984480000000 1.0
C      1  0.5502740000000  0.4743720000000  0.5794100000000 1.0
C      1  0.5449810000000  0.5442120000000  0.4657990000000 1.0
C      1  0.5367860000000  0.5801500000000  0.5298500000000 1.0
C      1  0.4662590000000  0.5285350000000  0.4774900000000 1.0
C      1  0.4763870000000  0.4474370000000  0.5939390000000 1.0
C      1  0.5742010000000  0.5537050000000  0.4655100000000 1.0
C      1  0.4901780000000  0.5529820000000  0.5389040000000 1.0
C      1  0.4503800000000  0.4963800000000  0.4236750000000 1.0
C      1  0.4600450000000  0.5844390000000  0.5168740000000 1.0
C      1  0.5161440000000  0.5061270000000  0.5819650000000 1.0
C      1  0.4865890000000  0.4808950000000  0.4582960000000 1.0
C      1  0.4849160000000  0.5085960000000  0.5148440000000 1.0
C      1  0.5364670000000  0.4375630000000  0.4641570000000 1.0
C      1  0.4921040000000  0.5273860000000  0.4926180000000 1.0
C      1  0.5371900000000  0.5532970000000  0.4088690000000 1.0
C      1  0.4312480000000  0.5139760000000  0.4391810000000 1.0
C      1  0.5366310000000  0.5096380000000  0.5090590000000 1.0
C      1  0.5373960000000  0.5848740000000  0.4803480000000 1.0
C      1  0.5594040000000  0.5198520000000  0.5667110000000 1.0
C      1  0.4147250000000  0.5060100000000  0.4627440000000 1.0
C      1  0.5851350000000  0.4875600000000  0.5005870000000 1.0
C      1  0.4627870000000  0.4800630000000  0.4791670000000 1.0
C      1  0.5027240000000  0.4553820000000  0.5439140000000 1.0
C      1  0.4816530000000  0.5787600000000  0.4968950000000 1.0
C      1  0.4980060000000  0.4367850000000  0.4294050000000 1.0
C      1  0.4903840000000  0.5123090000000  0.3928470000000 1.0
C      1  0.5396810000000  0.5386980000000  0.5512240000000 1.0
C      1  0.5375480000000  0.5278230000000  0.3978330000000 1.0
C      1  0.5654140000000  0.4665070000000  0.5049590000000 1.0
C      1  0.5183330000000  0.4630910000000  0.5017410000000 1.0
C      1  0.5426330000000  0.5008870000000  0.4323600000000 1.0
C      1  0.5792630000000  0.5075760000000  0.5207390000000 1.0
C      1  0.4643440000000  0.4293100000000  0.4620620000000 1.0
C      1  0.5340050000000  0.5176610000000  0.4582470000000 1.0
C      1  0.3947950000000  0.5319980000000  0.5046870000000 1.0
C      1  0.5339920000000  0.4368750000000  0.4963540000000 1.0
C      1  0.4988180000000  0.5568500000000  0.5077910000000 1.0
C      1  0.5116600000000  0.4800410000000  0.4759940000000 1.0
C      1  0.5181540000000  0.4169990000000  0.5136780000000 1.0
C      1  0.4383970000000  0.5294080000000  0.5552630000000 1.0
C      1  0.4579560000000  0.4723570000000  0.5952970000000 1.0
C      1  0.4498420000000  0.5058670000000  0.4782320000000 1.0
C      1  0.5037660000000  0.5336500000000  0.5860220000000 1.0
C      1  0.5276390000000  0.5679900000000  0.5045660000000 1.0
END
