TITL C-950531-5884-538 4.03221556758474e-07 125000 -798.735885351098 0 0 128 (C1) n - 1
REM
REM in /home/bkarasulu/work/CARBON/AIRSS/Generating-Clusters/EDIP-Nigel-Params/with-SteepDescent/Only-C1/SD-CG/HFTN-CG
REM
REM
REM
REM
REM
REM ./C.cell (11c1c37f851c82e70ff6c80c92926a4b)
REM
REM compiler GCC version 9.2.1 20190827 (Red Hat 9.2.1-1)
REM options -cpp -mtune=generic -march=x86-64 -g -O0 -fpre-include=/usr/include/finclude/math-vector-fortran.h
REM seed -330779085 -709251657 2059502900 1545589640 -1914963417 -868966245 876819759 1088513319 -74915877 -2050167115 -397338925 -1583170294 636643447 1922922810 562218644 234123301 1726281142 651215127 -152885128 -1260631353 1288957753 1113082589 894169942 1911291219 641135132 1889733280 -633724597 -973867729 -707412514 -47437654 -1957942189 -2053381091 -58208152
REM
CELL 1.54180   50.00000   50.00000   50.00000   90.00000   90.00000   90.00000
LATT -1
SFAC C  
C      1  0.4782990000000  0.4361430000000  0.5492710000000 1.0
C      1  0.4191710000000  0.5381740000000  0.5413740000000 1.0
C      1  0.4695270000000  0.5587290000000  0.4554710000000 1.0
C      1  0.4353910000000  0.5582050000000  0.4887900000000 1.0
C      1  0.4422480000000  0.5585270000000  0.5370700000000 1.0
C      1  0.4906260000000  0.5608970000000  0.4354170000000 1.0
C      1  0.5205190000000  0.4531190000000  0.4047830000000 1.0
C      1  0.4775380000000  0.5212120000000  0.5437350000000 1.0
C      1  0.4855990000000  0.4361800000000  0.4257690000000 1.0
C      1  0.4613130000000  0.5736060000000  0.5580500000000 1.0
C      1  0.4405680000000  0.4437770000000  0.4608540000000 1.0
C      1  0.5390830000000  0.5325960000000  0.4908780000000 1.0
C      1  0.5611020000000  0.5498670000000  0.4494380000000 1.0
C      1  0.4894340000000  0.5002930000000  0.5019650000000 1.0
C      1  0.5128500000000  0.4480260000000  0.5196330000000 1.0
C      1  0.5675320000000  0.5334370000000  0.5021220000000 1.0
C      1  0.4164840000000  0.5018070000000  0.4738490000000 1.0
C      1  0.5573060000000  0.4458240000000  0.5063730000000 1.0
C      1  0.5480550000000  0.5390390000000  0.4257220000000 1.0
C      1  0.4976280000000  0.5368960000000  0.4179500000000 1.0
C      1  0.4096940000000  0.5063680000000  0.5025880000000 1.0
C      1  0.5499280000000  0.4658330000000  0.5768600000000 1.0
C      1  0.5084210000000  0.4191230000000  0.5234910000000 1.0
C      1  0.5854300000000  0.5348850000000  0.4570780000000 1.0
C      1  0.4583680000000  0.4995650000000  0.5056850000000 1.0
C      1  0.5673910000000  0.5207300000000  0.4161070000000 1.0
C      1  0.5183520000000  0.5501460000000  0.5649000000000 1.0
C      1  0.5492300000000  0.4790480000000  0.4287410000000 1.0
C      1  0.4642870000000  0.5417040000000  0.5239830000000 1.0
C      1  0.5305670000000  0.4962850000000  0.4140320000000 1.0
C      1  0.4580290000000  0.4255800000000  0.5063640000000 1.0
C      1  0.5770940000000  0.5006770000000  0.5508860000000 1.0
C      1  0.5173340000000  0.4966980000000  0.5417370000000 1.0
C      1  0.5095100000000  0.3978130000000  0.4737100000000 1.0
C      1  0.5882090000000  0.5477290000000  0.4844900000000 1.0
C      1  0.5147860000000  0.4307270000000  0.5601220000000 1.0
C      1  0.5428620000000  0.4626170000000  0.4817620000000 1.0
C      1  0.4557730000000  0.5120150000000  0.4322890000000 1.0
C      1  0.5457310000000  0.5952280000000  0.4607930000000 1.0
C      1  0.5387720000000  0.4551580000000  0.5284720000000 1.0
C      1  0.5853070000000  0.5043710000000  0.4541990000000 1.0
C      1  0.4761560000000  0.4663020000000  0.5364390000000 1.0
C      1  0.4915050000000  0.5368430000000  0.5714800000000 1.0
C      1  0.5225000000000  0.5944640000000  0.5128720000000 1.0
C      1  0.4303360000000  0.5241870000000  0.4344960000000 1.0
C      1  0.4126700000000  0.4836420000000  0.5201530000000 1.0
C      1  0.4925780000000  0.4668900000000  0.5072610000000 1.0
C      1  0.5960540000000  0.4592560000000  0.4885940000000 1.0
C      1  0.5782840000000  0.5055920000000  0.5026530000000 1.0
C      1  0.5286350000000  0.5099880000000  0.5894640000000 1.0
C      1  0.5435370000000  0.4498860000000  0.4226070000000 1.0
C      1  0.5059810000000  0.4600950000000  0.5744270000000 1.0
C      1  0.5022840000000  0.4700620000000  0.6034490000000 1.0
C      1  0.4859710000000  0.4560870000000  0.4789690000000 1.0
C      1  0.4908560000000  0.4090130000000  0.4353870000000 1.0
C      1  0.5613900000000  0.5261670000000  0.5519090000000 1.0
C      1  0.5061540000000  0.5943620000000  0.4882520000000 1.0
C      1  0.5625340000000  0.5456240000000  0.5294750000000 1.0
C      1  0.4920980000000  0.5168510000000  0.4767650000000 1.0
C      1  0.4547760000000  0.4326020000000  0.5679620000000 1.0
C      1  0.4059410000000  0.5299510000000  0.5176900000000 1.0
C      1  0.5839470000000  0.5757250000000  0.4812510000000 1.0
C      1  0.4282740000000  0.4882040000000  0.5453550000000 1.0
C      1  0.4806080000000  0.4067560000000  0.4645880000000 1.0
C      1  0.5203260000000  0.4041560000000  0.4449820000000 1.0
C      1  0.5092210000000  0.5942950000000  0.5391490000000 1.0
C      1  0.4131890000000  0.5501060000000  0.4726340000000 1.0
C      1  0.4656450000000  0.4323080000000  0.4771380000000 1.0
C      1  0.5209650000000  0.4458310000000  0.4657690000000 1.0
C      1  0.5403240000000  0.5313380000000  0.5721440000000 1.0
C      1  0.4753770000000  0.5176640000000  0.4107760000000 1.0
C      1  0.4252700000000  0.4644710000000  0.5643060000000 1.0
C      1  0.4410180000000  0.4439400000000  0.5213200000000 1.0
C      1  0.4520250000000  0.5333670000000  0.4968000000000 1.0
C      1  0.5422700000000  0.4447860000000  0.5566790000000 1.0
C      1  0.4362810000000  0.4343050000000  0.4349560000000 1.0
C      1  0.4599030000000  0.4858850000000  0.4444440000000 1.0
C      1  0.5520160000000  0.4187880000000  0.4928720000000 1.0
C      1  0.5755510000000  0.4887290000000  0.4777950000000 1.0
C      1  0.4877080000000  0.4792520000000  0.4546510000000 1.0
C      1  0.4583640000000  0.4401620000000  0.4207100000000 1.0
C      1  0.4847750000000  0.4949730000000  0.6017110000000 1.0
C      1  0.5384060000000  0.4294500000000  0.4468800000000 1.0
C      1  0.5718730000000  0.4819150000000  0.5705920000000 1.0
C      1  0.5363600000000  0.5618980000000  0.5270910000000 1.0
C      1  0.4367100000000  0.5774330000000  0.5128490000000 1.0
C      1  0.4570340000000  0.4918370000000  0.5353260000000 1.0
C      1  0.5149460000000  0.5427330000000  0.5143310000000 1.0
C      1  0.5395680000000  0.4849720000000  0.5241240000000 1.0
C      1  0.5354510000000  0.5070840000000  0.4767060000000 1.0
C      1  0.4675110000000  0.4955720000000  0.5781730000000 1.0
C      1  0.4479790000000  0.4755690000000  0.4905320000000 1.0
C      1  0.4380010000000  0.4759230000000  0.4624820000000 1.0
C      1  0.4766770000000  0.5965620000000  0.4878680000000 1.0
C      1  0.5129320000000  0.5084960000000  0.4571400000000 1.0
C      1  0.4630440000000  0.5840990000000  0.4664050000000 1.0
C      1  0.5659160000000  0.5768180000000  0.4596540000000 1.0
C      1  0.5735200000000  0.4960130000000  0.4283650000000 1.0
C      1  0.5227410000000  0.4128450000000  0.4950460000000 1.0
C      1  0.5792550000000  0.4508740000000  0.4663710000000 1.0
C      1  0.4482890000000  0.5182070000000  0.5767180000000 1.0
C      1  0.4309070000000  0.4380610000000  0.5481170000000 1.0
C      1  0.4860880000000  0.4936120000000  0.4002330000000 1.0
C      1  0.5106130000000  0.4803010000000  0.4022340000000 1.0
C      1  0.5013960000000  0.5184520000000  0.5946740000000 1.0
C      1  0.5832860000000  0.4598040000000  0.5147310000000 1.0
C      1  0.4816750000000  0.5823250000000  0.5345230000000 1.0
C      1  0.5184240000000  0.5953910000000  0.4618910000000 1.0
C      1  0.4264050000000  0.4623580000000  0.5054440000000 1.0
C      1  0.4498090000000  0.5417010000000  0.5923470000000 1.0
C      1  0.4942700000000  0.4810540000000  0.5565630000000 1.0
C      1  0.5223450000000  0.5218820000000  0.4281630000000 1.0
C      1  0.4150370000000  0.5258360000000  0.4579200000000 1.0
C      1  0.4778440000000  0.4153650000000  0.5255810000000 1.0
C      1  0.4877720000000  0.5582310000000  0.5175150000000 1.0
C      1  0.5308200000000  0.4856240000000  0.4950330000000 1.0
C      1  0.4626900000000  0.5948170000000  0.5138650000000 1.0
C      1  0.5313420000000  0.4802750000000  0.5962360000000 1.0
C      1  0.4705690000000  0.5563500000000  0.5802840000000 1.0
C      1  0.5058750000000  0.5843710000000  0.4394560000000 1.0
C      1  0.5235740000000  0.5783950000000  0.5591980000000 1.0
C      1  0.5017580000000  0.5152560000000  0.5258550000000 1.0
C      1  0.5037370000000  0.4573430000000  0.4392650000000 1.0
C      1  0.4472280000000  0.4572230000000  0.5833730000000 1.0
C      1  0.4718960000000  0.5369320000000  0.4752370000000 1.0
C      1  0.5715370000000  0.4878850000000  0.5244490000000 1.0
C      1  0.4258850000000  0.5150810000000  0.5585240000000 1.0
C      1  0.5623600000000  0.4262170000000  0.4655000000000 1.0
END
