TITL C-951342-2639-81 -1.36815371578266e-06 125000 -487.967465969429 0 0 79 (C1) n - 1
REM
REM in /home/bkarasulu/work/CARBON/AIRSS/Generating-Clusters/EDIP-Nigel-Params/with-SteepDescent/Only-C1/SD-CG/HFTN-CG
REM
REM
REM
REM
REM
REM ./C.cell (11c1c37f851c82e70ff6c80c92926a4b)
REM
REM compiler GCC version 9.2.1 20190827 (Red Hat 9.2.1-1)
REM options -cpp -mtune=generic -march=x86-64 -g -O0 -fpre-include=/usr/include/finclude/math-vector-fortran.h
REM seed 7616705 -654562050 747482440 -710882135 -1569009765 5380672 948595365 1183822025 42745336 1658187835 -1940403266 1427388287 738744462 -1894220817 845966166 -174913580 -1214893453 -2147036864 -2051436004 -1744682840 -1033890110 -1699572820 1275442286 -1833674257 1931091077 1095712383 454338830 2133331941 1366746140 86869061 376714355 -261420165 -983822183
REM
CELL 1.54180   50.00000   50.00000   50.00000   90.00000   90.00000   90.00000
LATT -1
SFAC C  
C      1  0.4656150000000  0.5252730000000  0.5808870000000 1.0
C      1  0.4723810000000  0.4930880000000  0.5174500000000 1.0
C      1  0.4348900000000  0.4841280000000  0.4693260000000 1.0
C      1  0.5067620000000  0.4330510000000  0.4449430000000 1.0
C      1  0.4778990000000  0.5439620000000  0.5609220000000 1.0
C      1  0.5095460000000  0.5873120000000  0.5013290000000 1.0
C      1  0.5449990000000  0.4594060000000  0.5498380000000 1.0
C      1  0.4852810000000  0.5741170000000  0.5089030000000 1.0
C      1  0.5013810000000  0.5168180000000  0.4354900000000 1.0
C      1  0.5551160000000  0.4435060000000  0.5036200000000 1.0
C      1  0.5256700000000  0.5002780000000  0.4338080000000 1.0
C      1  0.5080080000000  0.5496220000000  0.5630090000000 1.0
C      1  0.5437200000000  0.4817040000000  0.5695890000000 1.0
C      1  0.5295120000000  0.5089170000000  0.4939120000000 1.0
C      1  0.4303020000000  0.5025690000000  0.5129940000000 1.0
C      1  0.4519850000000  0.4460860000000  0.5324600000000 1.0
C      1  0.4819790000000  0.4159920000000  0.5027580000000 1.0
C      1  0.5515180000000  0.5287470000000  0.5591390000000 1.0
C      1  0.5808720000000  0.5043080000000  0.4838680000000 1.0
C      1  0.5485500000000  0.5285700000000  0.5080660000000 1.0
C      1  0.5209300000000  0.5681980000000  0.5447330000000 1.0
C      1  0.5402420000000  0.5641670000000  0.4722580000000 1.0
C      1  0.5260150000000  0.5286050000000  0.5771660000000 1.0
C      1  0.4895230000000  0.5632220000000  0.4629450000000 1.0
C      1  0.4459360000000  0.5137990000000  0.5371060000000 1.0
C      1  0.4557740000000  0.5512690000000  0.4332460000000 1.0
C      1  0.5242690000000  0.4244090000000  0.4681840000000 1.0
C      1  0.5482190000000  0.5155090000000  0.4470450000000 1.0
C      1  0.5246070000000  0.4385550000000  0.5101900000000 1.0
C      1  0.5754340000000  0.5144420000000  0.5095700000000 1.0
C      1  0.5648560000000  0.4952880000000  0.4623810000000 1.0
C      1  0.4550760000000  0.5427040000000  0.5332370000000 1.0
C      1  0.5218880000000  0.4505280000000  0.4282720000000 1.0
C      1  0.4843020000000  0.4515160000000  0.4538350000000 1.0
C      1  0.5529120000000  0.4715840000000  0.5230650000000 1.0
C      1  0.5740560000000  0.4927490000000  0.5304560000000 1.0
C      1  0.5183020000000  0.4988090000000  0.5680310000000 1.0
C      1  0.4598480000000  0.5310000000000  0.4125820000000 1.0
C      1  0.5241320000000  0.4733520000000  0.4467660000000 1.0
C      1  0.4724670000000  0.4692250000000  0.5398690000000 1.0
C      1  0.4397560000000  0.4502310000000  0.5059690000000 1.0
C      1  0.5267740000000  0.4861700000000  0.5141630000000 1.0
C      1  0.4691060000000  0.5658410000000  0.4864450000000 1.0
C      1  0.5649530000000  0.5014560000000  0.5591100000000 1.0
C      1  0.4339950000000  0.5137540000000  0.4657010000000 1.0
C      1  0.5329300000000  0.5380060000000  0.4607990000000 1.0
C      1  0.4787640000000  0.5101450000000  0.4186650000000 1.0
C      1  0.4562530000000  0.4394720000000  0.4596670000000 1.0
C      1  0.4980590000000  0.4713100000000  0.4758490000000 1.0
C      1  0.5500680000000  0.4431360000000  0.4742320000000 1.0
C      1  0.4762870000000  0.5700650000000  0.4379850000000 1.0
C      1  0.4909900000000  0.5362000000000  0.5092920000000 1.0
C      1  0.4889930000000  0.5149360000000  0.5301050000000 1.0
C      1  0.4953740000000  0.4471030000000  0.5412120000000 1.0
C      1  0.4318170000000  0.5246200000000  0.4930060000000 1.0
C      1  0.5144180000000  0.5804670000000  0.4724510000000 1.0
C      1  0.5034440000000  0.5348450000000  0.4596420000000 1.0
C      1  0.4779280000000  0.4844230000000  0.4077720000000 1.0
C      1  0.5483410000000  0.4704900000000  0.4628090000000 1.0
C      1  0.4731300000000  0.4676550000000  0.4298240000000 1.0
C      1  0.4682430000000  0.4812190000000  0.5673010000000 1.0
C      1  0.4362930000000  0.4781260000000  0.4974670000000 1.0
C      1  0.4541540000000  0.5280730000000  0.4508860000000 1.0
C      1  0.5107390000000  0.4165350000000  0.4949790000000 1.0
C      1  0.4496270000000  0.5045420000000  0.5660860000000 1.0
C      1  0.4515690000000  0.4314690000000  0.4871410000000 1.0
C      1  0.5228670000000  0.4400520000000  0.5483880000000 1.0
C      1  0.4829580000000  0.4950570000000  0.4859960000000 1.0
C      1  0.5015090000000  0.5190510000000  0.4862230000000 1.0
C      1  0.4836410000000  0.5120430000000  0.5987670000000 1.0
C      1  0.4530850000000  0.5442860000000  0.5023250000000 1.0
C      1  0.5097640000000  0.4642790000000  0.5031010000000 1.0
C      1  0.5483460000000  0.5592590000000  0.5006880000000 1.0
C      1  0.4415540000000  0.4637950000000  0.4495380000000 1.0
C      1  0.4762650000000  0.4260500000000  0.5301240000000 1.0
C      1  0.5342590000000  0.5280700000000  0.5339580000000 1.0
C      1  0.5154330000000  0.5044760000000  0.5374510000000 1.0
C      1  0.4925230000000  0.4902200000000  0.5828100000000 1.0
C      1  0.5310150000000  0.5766860000000  0.5188240000000 1.0
END
