TITL C-951339-9237-660 0.000142981928680205 125000 -773.650248107006 0 0 126 (C1) n - 1
REM
REM in /home/bkarasulu/work/CARBON/AIRSS/Generating-Clusters/EDIP-Nigel-Params/with-SteepDescent/Only-C1/SD-CG/HFTN-CG
REM
REM
REM
REM
REM
REM ./C.cell (11c1c37f851c82e70ff6c80c92926a4b)
REM
REM compiler GCC version 9.2.1 20190827 (Red Hat 9.2.1-1)
REM options -cpp -mtune=generic -march=x86-64 -g -O0 -fpre-include=/usr/include/finclude/math-vector-fortran.h
REM seed 403341483 1232220817 1033172902 1883734047 528241646 815220126 479409025 -1959969054 -1828155570 2043005831 -1655800361 -1900305151 -842006107 -1332809660 -1587990872 1446064003 1550871881 -1432916376 1885562428 -634781041 2048147822 -431619560 502860777 52144643 2098901094 -1950034694 -751283831 1006319626 -933693838 1053118320 1896446823 828624021 1372057248
REM
CELL 1.54180   50.00000   50.00000   50.00000   90.00000   90.00000   90.00000
LATT -1
SFAC C  
C      1  0.5008440000000  0.5106540000000  0.5498470000000 1.0
C      1  0.4126970000000  0.4912410000000  0.4456620000000 1.0
C      1  0.4172810000000  0.5374770000000  0.5573540000000 1.0
C      1  0.4279850000000  0.5596900000000  0.5005120000000 1.0
C      1  0.5273670000000  0.5022490000000  0.3996150000000 1.0
C      1  0.4305720000000  0.5133600000000  0.5494720000000 1.0
C      1  0.4259280000000  0.4454960000000  0.4945700000000 1.0
C      1  0.5288710000000  0.5397290000000  0.4717170000000 1.0
C      1  0.4889480000000  0.4872130000000  0.4474950000000 1.0
C      1  0.4305100000000  0.5864890000000  0.4902830000000 1.0
C      1  0.5367750000000  0.5858120000000  0.5189440000000 1.0
C      1  0.4826080000000  0.5329170000000  0.5407140000000 1.0
C      1  0.5152460000000  0.5010360000000  0.4465410000000 1.0
C      1  0.5141160000000  0.5201660000000  0.5772310000000 1.0
C      1  0.4973600000000  0.4991920000000  0.4061330000000 1.0
C      1  0.4407120000000  0.4993940000000  0.6040800000000 1.0
C      1  0.4606980000000  0.4702640000000  0.4836700000000 1.0
C      1  0.5197460000000  0.5891110000000  0.4613870000000 1.0
C      1  0.4649840000000  0.4837120000000  0.5266690000000 1.0
C      1  0.5729310000000  0.5084500000000  0.5436050000000 1.0
C      1  0.4749210000000  0.5682370000000  0.4765210000000 1.0
C      1  0.5137980000000  0.5313560000000  0.4450900000000 1.0
C      1  0.4871450000000  0.4817970000000  0.5482740000000 1.0
C      1  0.4170980000000  0.5175110000000  0.5071260000000 1.0
C      1  0.5413960000000  0.4800160000000  0.4860300000000 1.0
C      1  0.4847550000000  0.4639490000000  0.4676820000000 1.0
C      1  0.5073500000000  0.5284940000000  0.4904300000000 1.0
C      1  0.4381220000000  0.4304580000000  0.5191580000000 1.0
C      1  0.4336720000000  0.4842770000000  0.4283040000000 1.0
C      1  0.4718560000000  0.4517520000000  0.4275650000000 1.0
C      1  0.5293830000000  0.4391780000000  0.4324780000000 1.0
C      1  0.4848920000000  0.4178540000000  0.5588750000000 1.0
C      1  0.5072240000000  0.5468790000000  0.5886740000000 1.0
C      1  0.5633480000000  0.5213830000000  0.4287290000000 1.0
C      1  0.4263800000000  0.4937510000000  0.4706880000000 1.0
C      1  0.6006110000000  0.5427560000000  0.5094640000000 1.0
C      1  0.5351380000000  0.4798990000000  0.5299110000000 1.0
C      1  0.5201310000000  0.4106910000000  0.4993100000000 1.0
C      1  0.5293290000000  0.5859820000000  0.5474330000000 1.0
C      1  0.5092660000000  0.4640640000000  0.5364620000000 1.0
C      1  0.5613710000000  0.5729040000000  0.5063780000000 1.0
C      1  0.5897500000000  0.4678420000000  0.4993470000000 1.0
C      1  0.4621810000000  0.4099280000000  0.5411620000000 1.0
C      1  0.6042810000000  0.5219250000000  0.4774530000000 1.0
C      1  0.5615100000000  0.5344380000000  0.5397360000000 1.0
C      1  0.4646030000000  0.4569760000000  0.5122130000000 1.0
C      1  0.5918330000000  0.4575440000000  0.4697580000000 1.0
C      1  0.5687080000000  0.4391830000000  0.4648760000000 1.0
C      1  0.4211870000000  0.4662910000000  0.5385110000000 1.0
C      1  0.4413870000000  0.4793990000000  0.5830640000000 1.0
C      1  0.5198930000000  0.4565770000000  0.4109310000000 1.0
C      1  0.5604210000000  0.4748920000000  0.4347710000000 1.0
C      1  0.5506830000000  0.5427200000000  0.5662770000000 1.0
C      1  0.5478920000000  0.4468920000000  0.4849440000000 1.0
C      1  0.5408680000000  0.4901930000000  0.4559500000000 1.0
C      1  0.5421630000000  0.5192650000000  0.5798230000000 1.0
C      1  0.5117560000000  0.4259440000000  0.4516470000000 1.0
C      1  0.4850190000000  0.5607930000000  0.5753160000000 1.0
C      1  0.4926450000000  0.4691900000000  0.4130020000000 1.0
C      1  0.5097610000000  0.4991450000000  0.4986510000000 1.0
C      1  0.5082150000000  0.4412190000000  0.5961280000000 1.0
C      1  0.4246390000000  0.4866100000000  0.5596490000000 1.0
C      1  0.4799560000000  0.5408540000000  0.4912900000000 1.0
C      1  0.4730650000000  0.4039770000000  0.5145740000000 1.0
C      1  0.5693450000000  0.4903760000000  0.4950020000000 1.0
C      1  0.5438920000000  0.5779910000000  0.4551150000000 1.0
C      1  0.5217720000000  0.5063060000000  0.5262480000000 1.0
C      1  0.4642950000000  0.5856040000000  0.5223900000000 1.0
C      1  0.4250830000000  0.4390180000000  0.5439560000000 1.0
C      1  0.5395880000000  0.5298170000000  0.5211230000000 1.0
C      1  0.5331810000000  0.5659550000000  0.5686210000000 1.0
C      1  0.6044540000000  0.5491510000000  0.4827250000000 1.0
C      1  0.4742290000000  0.4681000000000  0.5729420000000 1.0
C      1  0.4763390000000  0.4977710000000  0.4994820000000 1.0
C      1  0.4457950000000  0.5588030000000  0.4539000000000 1.0
C      1  0.4118670000000  0.4930960000000  0.4951680000000 1.0
C      1  0.5542350000000  0.4362360000000  0.5119740000000 1.0
C      1  0.4950560000000  0.5582750000000  0.5478190000000 1.0
C      1  0.4937090000000  0.5840070000000  0.5313930000000 1.0
C      1  0.4496060000000  0.5103980000000  0.4252360000000 1.0
C      1  0.4584570000000  0.4209260000000  0.4655110000000 1.0
C      1  0.5048970000000  0.4569530000000  0.4877500000000 1.0
C      1  0.5567010000000  0.5166570000000  0.4564950000000 1.0
C      1  0.5505390000000  0.5373030000000  0.4944410000000 1.0
C      1  0.5437600000000  0.5258350000000  0.4086130000000 1.0
C      1  0.5436390000000  0.5661750000000  0.4301100000000 1.0
C      1  0.5086450000000  0.4486590000000  0.6235050000000 1.0
C      1  0.5108720000000  0.4150310000000  0.5433740000000 1.0
C      1  0.4467160000000  0.5480040000000  0.4273200000000 1.0
C      1  0.4495420000000  0.5365530000000  0.6000920000000 1.0
C      1  0.5786880000000  0.5543850000000  0.5241670000000 1.0
C      1  0.5574590000000  0.4455490000000  0.4386960000000 1.0
C      1  0.4586560000000  0.5475430000000  0.5750630000000 1.0
C      1  0.4835750000000  0.4400490000000  0.5803310000000 1.0
C      1  0.4943130000000  0.4493330000000  0.5139040000000 1.0
C      1  0.5007690000000  0.5847240000000  0.4804500000000 1.0
C      1  0.4208470000000  0.4702210000000  0.5095960000000 1.0
C      1  0.4610990000000  0.4070990000000  0.4896330000000 1.0
C      1  0.5268870000000  0.5456160000000  0.4212340000000 1.0
C      1  0.4381160000000  0.5564150000000  0.5551850000000 1.0
C      1  0.4814250000000  0.4308740000000  0.4476300000000 1.0
C      1  0.4486510000000  0.4627290000000  0.4415010000000 1.0
C      1  0.4842220000000  0.5381200000000  0.4472090000000 1.0
C      1  0.4472640000000  0.5604250000000  0.5255550000000 1.0
C      1  0.4682040000000  0.5111890000000  0.4500470000000 1.0
C      1  0.5624460000000  0.4822870000000  0.5431060000000 1.0
C      1  0.4506910000000  0.5119920000000  0.4757320000000 1.0
C      1  0.4739150000000  0.5173990000000  0.4037780000000 1.0
C      1  0.5813350000000  0.5041480000000  0.4707850000000 1.0
C      1  0.5107730000000  0.5824750000000  0.5072520000000 1.0
C      1  0.5837910000000  0.4636560000000  0.5377880000000 1.0
C      1  0.5876100000000  0.4810520000000  0.4513730000000 1.0
C      1  0.5614800000000  0.5691140000000  0.4760960000000 1.0
C      1  0.4618490000000  0.5151010000000  0.6126760000000 1.0
C      1  0.4749880000000  0.5449920000000  0.4183580000000 1.0
C      1  0.5811040000000  0.4435330000000  0.5178800000000 1.0
C      1  0.4414880000000  0.5126030000000  0.5220140000000 1.0
C      1  0.5415760000000  0.4115550000000  0.5201590000000 1.0
C      1  0.4389320000000  0.4434800000000  0.4656150000000 1.0
C      1  0.5141160000000  0.4230510000000  0.6171070000000 1.0
C      1  0.4589010000000  0.5899220000000  0.4936110000000 1.0
C      1  0.5413420000000  0.4767280000000  0.4058710000000 1.0
C      1  0.4981630000000  0.4194110000000  0.5165720000000 1.0
C      1  0.4636290000000  0.5359750000000  0.5181160000000 1.0
C      1  0.5213370000000  0.4333140000000  0.4793470000000 1.0
C      1  0.4383590000000  0.5422990000000  0.4771030000000 1.0
END
