TITL C-950535-5962-408 6.07030064953617e-08 125000 -388.83946795669 0 0 63 (C1) n - 1
REM
REM in /home/bkarasulu/work/CARBON/AIRSS/Generating-Clusters/EDIP-Nigel-Params/with-SteepDescent/Only-C1/SD-CG/HFTN-CG
REM
REM
REM
REM
REM
REM ./C.cell (11c1c37f851c82e70ff6c80c92926a4b)
REM
REM compiler GCC version 9.2.1 20190827 (Red Hat 9.2.1-1)
REM options -cpp -mtune=generic -march=x86-64 -g -O0 -fpre-include=/usr/include/finclude/math-vector-fortran.h
REM seed -1778524732 1529047709 37125973 -1189295068 1485764514 -619161690 1520985064 -2074164131 381841263 226185239 -1948480081 1007824413 -1287717164 1084138434 -374545699 -1098721710 -842729560 -1705936616 1192546277 -722753755 -1885995896 -1008228101 -1805142280 -1357010452 -428244338 -1480390751 -2110432446 -210856305 -659960481 649350384 -1782386510 -1072474319 254328936
REM
CELL 1.54180   50.00000   50.00000   50.00000   90.00000   90.00000   90.00000
LATT -1
SFAC C  
C      1  0.4865920000000  0.4584940000000  0.4645340000000 1.0
C      1  0.5706760000000  0.4919870000000  0.4786510000000 1.0
C      1  0.4519830000000  0.4886440000000  0.4759810000000 1.0
C      1  0.5153560000000  0.5223020000000  0.4923260000000 1.0
C      1  0.5246010000000  0.4732260000000  0.4365520000000 1.0
C      1  0.5591340000000  0.4660320000000  0.4778200000000 1.0
C      1  0.4736950000000  0.5249240000000  0.5670690000000 1.0
C      1  0.5159970000000  0.4561600000000  0.4568420000000 1.0
C      1  0.5255410000000  0.4801850000000  0.5102960000000 1.0
C      1  0.4907420000000  0.5062240000000  0.5275100000000 1.0
C      1  0.4419060000000  0.5159890000000  0.4823790000000 1.0
C      1  0.4522160000000  0.4847220000000  0.4459670000000 1.0
C      1  0.4466130000000  0.5162660000000  0.5639090000000 1.0
C      1  0.4877650000000  0.4777790000000  0.5134740000000 1.0
C      1  0.5184880000000  0.5654660000000  0.5181500000000 1.0
C      1  0.5249130000000  0.5504880000000  0.4902130000000 1.0
C      1  0.5307950000000  0.4727350000000  0.5639690000000 1.0
C      1  0.5078780000000  0.5656760000000  0.4699540000000 1.0
C      1  0.4982370000000  0.4229270000000  0.4947820000000 1.0
C      1  0.4566610000000  0.4387220000000  0.5292600000000 1.0
C      1  0.4702460000000  0.5062430000000  0.4340290000000 1.0
C      1  0.4802550000000  0.4638580000000  0.4149110000000 1.0
C      1  0.4549820000000  0.4449560000000  0.5017840000000 1.0
C      1  0.4973960000000  0.5087540000000  0.4740070000000 1.0
C      1  0.5202870000000  0.5080540000000  0.5169550000000 1.0
C      1  0.4716700000000  0.4760560000000  0.5590980000000 1.0
C      1  0.5668350000000  0.4964530000000  0.5275710000000 1.0
C      1  0.4891190000000  0.4909350000000  0.4164570000000 1.0
C      1  0.5187480000000  0.4978580000000  0.5680700000000 1.0
C      1  0.5516020000000  0.4713430000000  0.5209470000000 1.0
C      1  0.4406700000000  0.5163780000000  0.5117460000000 1.0
C      1  0.4818330000000  0.5496890000000  0.5517640000000 1.0
C      1  0.5455470000000  0.5171410000000  0.5323600000000 1.0
C      1  0.5521910000000  0.5481980000000  0.4782750000000 1.0
C      1  0.4678260000000  0.4603130000000  0.4402650000000 1.0
C      1  0.4863720000000  0.5774720000000  0.4864610000000 1.0
C      1  0.4771960000000  0.4372030000000  0.4834010000000 1.0
C      1  0.5438010000000  0.4560840000000  0.5450170000000 1.0
C      1  0.5168370000000  0.4939360000000  0.4208610000000 1.0
C      1  0.5377260000000  0.5200750000000  0.5608910000000 1.0
C      1  0.4403670000000  0.4890550000000  0.5222470000000 1.0
C      1  0.4638550000000  0.5594790000000  0.4917260000000 1.0
C      1  0.5810140000000  0.5003110000000  0.5035090000000 1.0
C      1  0.5007460000000  0.5485470000000  0.4463750000000 1.0
C      1  0.4410460000000  0.4704540000000  0.4976440000000 1.0
C      1  0.4788640000000  0.4561540000000  0.5374510000000 1.0
C      1  0.5216180000000  0.4368160000000  0.5021280000000 1.0
C      1  0.4677260000000  0.5288660000000  0.5152760000000 1.0
C      1  0.4899110000000  0.5013210000000  0.5575080000000 1.0
C      1  0.5558050000000  0.5119790000000  0.4643990000000 1.0
C      1  0.4459310000000  0.4897450000000  0.5525300000000 1.0
C      1  0.5279130000000  0.5461650000000  0.5646120000000 1.0
C      1  0.5347410000000  0.4510050000000  0.4785700000000 1.0
C      1  0.5247370000000  0.4371800000000  0.5323780000000 1.0
C      1  0.5101880000000  0.5498250000000  0.5429460000000 1.0
C      1  0.4635080000000  0.5540500000000  0.5301940000000 1.0
C      1  0.4594670000000  0.5372090000000  0.4724560000000 1.0
C      1  0.5515290000000  0.5373300000000  0.4511130000000 1.0
C      1  0.4820340000000  0.4841350000000  0.4822690000000 1.0
C      1  0.4990010000000  0.5848790000000  0.5106870000000 1.0
C      1  0.5002890000000  0.4386100000000  0.5459860000000 1.0
C      1  0.5267280000000  0.5410420000000  0.4379620000000 1.0
C      1  0.4820490000000  0.5258970000000  0.4555290000000 1.0
END
