TITL C-951347-9520-360 -1.00973412465896e-06 125000 -705.06820951681 0 0 114 (C1) n - 1
REM
REM in /home/bkarasulu/work/CARBON/AIRSS/Generating-Clusters/EDIP-Nigel-Params/with-SteepDescent/Only-C1/SD-CG/HFTN-CG
REM
REM
REM
REM
REM
REM ./C.cell (11c1c37f851c82e70ff6c80c92926a4b)
REM
REM compiler GCC version 9.2.1 20190827 (Red Hat 9.2.1-1)
REM options -cpp -mtune=generic -march=x86-64 -g -O0 -fpre-include=/usr/include/finclude/math-vector-fortran.h
REM seed 189083628 415226627 1680699797 183057007 -1929754494 1469651954 -828034286 -159601198 -1434145409 -220817440 -1335453094 1069489287 75312904 739397763 285865721 943840744 -28518783 1648419608 850549096 -1792150029 1616769057 1874196888 -150229562 6345421 1883991709 -1326195197 -1273518343 1808149286 2057207429 911375489 -2030749579 488725624 2114931060
REM
CELL 1.54180   50.00000   50.00000   50.00000   90.00000   90.00000   90.00000
LATT -1
SFAC C  
C      1  0.5198060000000  0.5278670000000  0.4218940000000 1.0
C      1  0.4531580000000  0.4274080000000  0.5427320000000 1.0
C      1  0.4897990000000  0.4469960000000  0.4109300000000 1.0
C      1  0.5760910000000  0.4969770000000  0.5525840000000 1.0
C      1  0.4434120000000  0.4728040000000  0.5653600000000 1.0
C      1  0.5036660000000  0.5562940000000  0.4935230000000 1.0
C      1  0.5253880000000  0.5259230000000  0.5267020000000 1.0
C      1  0.4986150000000  0.4889280000000  0.4645590000000 1.0
C      1  0.5260360000000  0.5762590000000  0.4866030000000 1.0
C      1  0.5278130000000  0.5163440000000  0.5579860000000 1.0
C      1  0.4690780000000  0.4110450000000  0.4949780000000 1.0
C      1  0.4361310000000  0.4519760000000  0.4749810000000 1.0
C      1  0.4628530000000  0.5608080000000  0.5561100000000 1.0
C      1  0.4876460000000  0.4272900000000  0.4542780000000 1.0
C      1  0.4753550000000  0.5520880000000  0.4332920000000 1.0
C      1  0.4125990000000  0.5382860000000  0.4721620000000 1.0
C      1  0.4927800000000  0.5751050000000  0.4401990000000 1.0
C      1  0.5588920000000  0.4419990000000  0.5104270000000 1.0
C      1  0.4224800000000  0.5355380000000  0.5195600000000 1.0
C      1  0.4245720000000  0.4806170000000  0.4695260000000 1.0
C      1  0.5210510000000  0.4746840000000  0.5103480000000 1.0
C      1  0.5420770000000  0.5679950000000  0.5390440000000 1.0
C      1  0.5833680000000  0.4850450000000  0.4507040000000 1.0
C      1  0.4169200000000  0.5212550000000  0.4956370000000 1.0
C      1  0.4746750000000  0.5006120000000  0.5921580000000 1.0
C      1  0.4930530000000  0.5846160000000  0.4687490000000 1.0
C      1  0.5822540000000  0.5205040000000  0.5018700000000 1.0
C      1  0.4219940000000  0.4938240000000  0.4942250000000 1.0
C      1  0.4907760000000  0.4560660000000  0.5896680000000 1.0
C      1  0.4572650000000  0.5067780000000  0.4851800000000 1.0
C      1  0.4888210000000  0.4879140000000  0.3943310000000 1.0
C      1  0.4547780000000  0.5808980000000  0.5339340000000 1.0
C      1  0.5339280000000  0.5552020000000  0.4204400000000 1.0
C      1  0.4695370000000  0.4809280000000  0.5249360000000 1.0
C      1  0.5428910000000  0.5040230000000  0.4614910000000 1.0
C      1  0.5191080000000  0.4602780000000  0.5800420000000 1.0
C      1  0.5596790000000  0.4416350000000  0.4572390000000 1.0
C      1  0.4749580000000  0.5041650000000  0.5085230000000 1.0
C      1  0.5137620000000  0.5103040000000  0.4772750000000 1.0
C      1  0.5327860000000  0.5851660000000  0.5158030000000 1.0
C      1  0.5846800000000  0.5324480000000  0.4752800000000 1.0
C      1  0.5316100000000  0.4330480000000  0.5763480000000 1.0
C      1  0.5566640000000  0.4965810000000  0.5292380000000 1.0
C      1  0.5712950000000  0.5162620000000  0.4528360000000 1.0
C      1  0.4839610000000  0.5153980000000  0.5522600000000 1.0
C      1  0.4725130000000  0.4566490000000  0.5078390000000 1.0
C      1  0.5737300000000  0.4931130000000  0.5044570000000 1.0
C      1  0.4845860000000  0.4277770000000  0.5831120000000 1.0
C      1  0.4306470000000  0.5628320000000  0.5103730000000 1.0
C      1  0.5163620000000  0.5762800000000  0.4252220000000 1.0
C      1  0.5459790000000  0.4269230000000  0.5526870000000 1.0
C      1  0.4940040000000  0.4497490000000  0.4382000000000 1.0
C      1  0.5164210000000  0.4912940000000  0.3934580000000 1.0
C      1  0.4551130000000  0.4904290000000  0.4305110000000 1.0
C      1  0.4933840000000  0.5643040000000  0.5476050000000 1.0
C      1  0.5191940000000  0.5035400000000  0.5060620000000 1.0
C      1  0.4666640000000  0.4583530000000  0.4777080000000 1.0
C      1  0.4288630000000  0.5293820000000  0.4485060000000 1.0
C      1  0.5479380000000  0.5645970000000  0.4682520000000 1.0
C      1  0.5621030000000  0.5467570000000  0.5388660000000 1.0
C      1  0.4534170000000  0.5477000000000  0.4533380000000 1.0
C      1  0.5093360000000  0.4261680000000  0.4726110000000 1.0
C      1  0.5585460000000  0.5230570000000  0.5584550000000 1.0
C      1  0.5128530000000  0.5341820000000  0.5788330000000 1.0
C      1  0.4741160000000  0.5045800000000  0.4135130000000 1.0
C      1  0.5731590000000  0.4557430000000  0.5329460000000 1.0
C      1  0.5377080000000  0.4724410000000  0.5341240000000 1.0
C      1  0.4192020000000  0.4574500000000  0.5265800000000 1.0
C      1  0.5461110000000  0.5448660000000  0.4455710000000 1.0
C      1  0.5107170000000  0.6008490000000  0.5231210000000 1.0
C      1  0.5325900000000  0.4610060000000  0.4861660000000 1.0
C      1  0.5532950000000  0.4843250000000  0.4820370000000 1.0
C      1  0.5363730000000  0.5756910000000  0.5654230000000 1.0
C      1  0.5718850000000  0.5584560000000  0.4818720000000 1.0
C      1  0.4671920000000  0.5359620000000  0.4780950000000 1.0
C      1  0.4327010000000  0.4473640000000  0.5516640000000 1.0
C      1  0.4554810000000  0.4319730000000  0.5133000000000 1.0
C      1  0.4348500000000  0.4896600000000  0.5402860000000 1.0
C      1  0.4797070000000  0.4615960000000  0.3906470000000 1.0
C      1  0.4891570000000  0.5285220000000  0.4223840000000 1.0
C      1  0.5196440000000  0.4815000000000  0.5574790000000 1.0
C      1  0.5018370000000  0.5453020000000  0.5229910000000 1.0
C      1  0.4329840000000  0.4994580000000  0.4470300000000 1.0
C      1  0.4978550000000  0.5354440000000  0.4740050000000 1.0
C      1  0.5760650000000  0.4690610000000  0.5577470000000 1.0
C      1  0.5597870000000  0.5375400000000  0.5116580000000 1.0
C      1  0.5350840000000  0.4276330000000  0.4611320000000 1.0
C      1  0.5108240000000  0.4134260000000  0.5819720000000 1.0
C      1  0.4727040000000  0.4769690000000  0.5757640000000 1.0
C      1  0.4283430000000  0.4415910000000  0.5032880000000 1.0
C      1  0.4657730000000  0.5838550000000  0.4815990000000 1.0
C      1  0.4323010000000  0.5201660000000  0.5426690000000 1.0
C      1  0.4992610000000  0.4088440000000  0.5457380000000 1.0
C      1  0.4612900000000  0.5609130000000  0.5018760000000 1.0
C      1  0.4870280000000  0.5254560000000  0.5895490000000 1.0
C      1  0.5119980000000  0.5628350000000  0.5711040000000 1.0
C      1  0.4785020000000  0.5274870000000  0.5252410000000 1.0
C      1  0.4436460000000  0.5744500000000  0.4636770000000 1.0
C      1  0.5417470000000  0.4217190000000  0.5252730000000 1.0
C      1  0.5739200000000  0.4455370000000  0.4826000000000 1.0
C      1  0.4790090000000  0.4272040000000  0.5546870000000 1.0
C      1  0.5131330000000  0.4165400000000  0.5217280000000 1.0
C      1  0.4996400000000  0.4120350000000  0.4961310000000 1.0
C      1  0.4512810000000  0.5339880000000  0.5595480000000 1.0
C      1  0.4877700000000  0.5917710000000  0.5361770000000 1.0
C      1  0.4204800000000  0.5662480000000  0.4810200000000 1.0
C      1  0.5146400000000  0.4666850000000  0.4547740000000 1.0
C      1  0.5316100000000  0.5012160000000  0.4142970000000 1.0
C      1  0.4613900000000  0.4229900000000  0.4677640000000 1.0
C      1  0.4700320000000  0.4861450000000  0.4656130000000 1.0
C      1  0.5367790000000  0.4831970000000  0.4387720000000 1.0
C      1  0.5895900000000  0.4710100000000  0.4773150000000 1.0
C      1  0.5623060000000  0.4667680000000  0.4394710000000 1.0
C      1  0.4877860000000  0.4852610000000  0.5505390000000 1.0
END
