TITL C-950523-3027-432 -1.79468727424573e-07 125000 -755.429371508949 0 0 122 (C1) n - 1
REM
REM in /home/bkarasulu/work/CARBON/AIRSS/Generating-Clusters/EDIP-Nigel-Params/with-SteepDescent/Only-C1/SD-CG/HFTN-CG
REM
REM
REM
REM
REM
REM ./C.cell (11c1c37f851c82e70ff6c80c92926a4b)
REM
REM compiler GCC version 9.2.1 20190827 (Red Hat 9.2.1-1)
REM options -cpp -mtune=generic -march=x86-64 -g -O0 -fpre-include=/usr/include/finclude/math-vector-fortran.h
REM seed 2124673060 1721087022 753859157 450012020 388390020 1604172292 -484757170 841599879 -1122607028 -1231911194 1592319415 1655442456 2051317666 -1892878314 -1778398669 1081809060 1109691973 -1411641341 -1547629030 -828791497 -1247141712 -1908344668 1913115462 1401182525 -2079611378 1858849911 -1278849395 812693253 -839670640 -1442448640 -1264298206 1686682350 -1461963930
REM
CELL 1.54180   50.00000   50.00000   50.00000   90.00000   90.00000   90.00000
LATT -1
SFAC C  
C      1  0.5860950000000  0.5301330000000  0.4553390000000 1.0
C      1  0.4606440000000  0.4178050000000  0.5146360000000 1.0
C      1  0.4680190000000  0.4703250000000  0.4120930000000 1.0
C      1  0.6025740000000  0.4781450000000  0.4650230000000 1.0
C      1  0.4991030000000  0.4919190000000  0.4512220000000 1.0
C      1  0.5590780000000  0.5769900000000  0.5206800000000 1.0
C      1  0.5463270000000  0.4263740000000  0.4964630000000 1.0
C      1  0.5670650000000  0.4853640000000  0.4511360000000 1.0
C      1  0.4846460000000  0.4922550000000  0.5403020000000 1.0
C      1  0.5368670000000  0.4967220000000  0.5164720000000 1.0
C      1  0.4819660000000  0.4241400000000  0.5356200000000 1.0
C      1  0.4561930000000  0.4931330000000  0.4230390000000 1.0
C      1  0.4837260000000  0.4182840000000  0.4408770000000 1.0
C      1  0.4090750000000  0.4729360000000  0.5256850000000 1.0
C      1  0.4871630000000  0.5110910000000  0.5192500000000 1.0
C      1  0.5146700000000  0.4502370000000  0.4713780000000 1.0
C      1  0.5507090000000  0.5223770000000  0.5615020000000 1.0
C      1  0.4875220000000  0.5921780000000  0.5213570000000 1.0
C      1  0.5218620000000  0.5735260000000  0.5482430000000 1.0
C      1  0.4513460000000  0.5001460000000  0.4833250000000 1.0
C      1  0.5431410000000  0.5150850000000  0.4732070000000 1.0
C      1  0.5142780000000  0.5127220000000  0.5084300000000 1.0
C      1  0.5670100000000  0.5483630000000  0.5202160000000 1.0
C      1  0.4267080000000  0.5535210000000  0.4639070000000 1.0
C      1  0.5311080000000  0.4786900000000  0.5392700000000 1.0
C      1  0.5042660000000  0.4320220000000  0.5837830000000 1.0
C      1  0.5243600000000  0.4462790000000  0.4433760000000 1.0
C      1  0.5122460000000  0.4550220000000  0.4000990000000 1.0
C      1  0.4082610000000  0.4982310000000  0.4790800000000 1.0
C      1  0.4517060000000  0.5701000000000  0.4575380000000 1.0
C      1  0.4569390000000  0.4896070000000  0.5840420000000 1.0
C      1  0.5045550000000  0.5440620000000  0.4784450000000 1.0
C      1  0.5364250000000  0.4356470000000  0.5488260000000 1.0
C      1  0.5177610000000  0.4834180000000  0.3981130000000 1.0
C      1  0.4363370000000  0.4545160000000  0.4502430000000 1.0
C      1  0.4120410000000  0.5033860000000  0.5250290000000 1.0
C      1  0.4038170000000  0.4694550000000  0.4870700000000 1.0
C      1  0.4690200000000  0.5162740000000  0.5875670000000 1.0
C      1  0.5146100000000  0.5152830000000  0.4775550000000 1.0
C      1  0.4646890000000  0.5352730000000  0.5659290000000 1.0
C      1  0.4870610000000  0.5940900000000  0.4843390000000 1.0
C      1  0.4327540000000  0.5677320000000  0.5096680000000 1.0
C      1  0.4230630000000  0.5456560000000  0.4925270000000 1.0
C      1  0.5550390000000  0.5282540000000  0.4494690000000 1.0
C      1  0.5612850000000  0.4727400000000  0.4807500000000 1.0
C      1  0.5100830000000  0.4947660000000  0.5554590000000 1.0
C      1  0.5469130000000  0.5143210000000  0.4254400000000 1.0
C      1  0.4603660000000  0.5223490000000  0.4610540000000 1.0
C      1  0.5073170000000  0.5386450000000  0.5787250000000 1.0
C      1  0.4530090000000  0.4151200000000  0.4862620000000 1.0
C      1  0.4349770000000  0.4289080000000  0.5243870000000 1.0
C      1  0.4267800000000  0.4240230000000  0.4810880000000 1.0
C      1  0.4379220000000  0.4391840000000  0.5516790000000 1.0
C      1  0.5029390000000  0.4234480000000  0.4806910000000 1.0
C      1  0.5428770000000  0.5560770000000  0.4484700000000 1.0
C      1  0.5571360000000  0.4992550000000  0.4941330000000 1.0
C      1  0.4195100000000  0.5036590000000  0.4526940000000 1.0
C      1  0.5212610000000  0.5064630000000  0.4161830000000 1.0
C      1  0.5572230000000  0.5120690000000  0.5883210000000 1.0
C      1  0.5867200000000  0.5096950000000  0.4990640000000 1.0
C      1  0.5063110000000  0.4871080000000  0.5857590000000 1.0
C      1  0.4223070000000  0.4647640000000  0.5526580000000 1.0
C      1  0.5518080000000  0.5741050000000  0.5523460000000 1.0
C      1  0.5293760000000  0.4421200000000  0.5771050000000 1.0
C      1  0.4744850000000  0.5410890000000  0.4820380000000 1.0
C      1  0.5206660000000  0.5246300000000  0.5558580000000 1.0
C      1  0.4272590000000  0.5122100000000  0.5478180000000 1.0
C      1  0.4370170000000  0.4882430000000  0.5618660000000 1.0
C      1  0.5019840000000  0.4406940000000  0.4256390000000 1.0
C      1  0.4953260000000  0.5537090000000  0.4310140000000 1.0
C      1  0.5381560000000  0.4666750000000  0.4265710000000 1.0
C      1  0.4788370000000  0.4432340000000  0.5820270000000 1.0
C      1  0.4678380000000  0.4722490000000  0.4758920000000 1.0
C      1  0.5598050000000  0.4853370000000  0.5522550000000 1.0
C      1  0.5848480000000  0.5526070000000  0.4750460000000 1.0
C      1  0.4589150000000  0.4694260000000  0.5049390000000 1.0
C      1  0.5328170000000  0.4696570000000  0.5899230000000 1.0
C      1  0.4960220000000  0.5249190000000  0.4215990000000 1.0
C      1  0.4160280000000  0.4476330000000  0.4699030000000 1.0
C      1  0.4976210000000  0.5159760000000  0.5962200000000 1.0
C      1  0.5913100000000  0.4708820000000  0.4358070000000 1.0
C      1  0.5789120000000  0.4659170000000  0.5395530000000 1.0
C      1  0.5572990000000  0.5751560000000  0.4646970000000 1.0
C      1  0.4981370000000  0.4043080000000  0.4605190000000 1.0
C      1  0.5379530000000  0.4535690000000  0.4901940000000 1.0
C      1  0.4820980000000  0.4608090000000  0.4357160000000 1.0
C      1  0.4671650000000  0.4399950000000  0.5556850000000 1.0
C      1  0.5926410000000  0.4758270000000  0.5155720000000 1.0
C      1  0.4589720000000  0.5911270000000  0.4765080000000 1.0
C      1  0.5133540000000  0.5605240000000  0.4540980000000 1.0
C      1  0.5864720000000  0.5397100000000  0.5016720000000 1.0
C      1  0.4486650000000  0.5315300000000  0.5406820000000 1.0
C      1  0.4315880000000  0.4554010000000  0.5101670000000 1.0
C      1  0.5154370000000  0.5953580000000  0.5277340000000 1.0
C      1  0.4799010000000  0.4713920000000  0.5905000000000 1.0
C      1  0.5126890000000  0.4297130000000  0.5287580000000 1.0
C      1  0.5370910000000  0.5930040000000  0.4780620000000 1.0
C      1  0.5099770000000  0.5891940000000  0.4652620000000 1.0
C      1  0.4965620000000  0.4748630000000  0.4744260000000 1.0
C      1  0.4386940000000  0.4833790000000  0.4444090000000 1.0
C      1  0.5332060000000  0.5821270000000  0.5060690000000 1.0
C      1  0.4603550000000  0.4347810000000  0.4544770000000 1.0
C      1  0.5188680000000  0.5557940000000  0.5030690000000 1.0
C      1  0.5207680000000  0.4151810000000  0.5033670000000 1.0
C      1  0.4830630000000  0.4672650000000  0.5250700000000 1.0
C      1  0.4634210000000  0.5222850000000  0.5058300000000 1.0
C      1  0.5576090000000  0.4842380000000  0.5822760000000 1.0
C      1  0.5130890000000  0.4592940000000  0.5198390000000 1.0
C      1  0.5990490000000  0.5078450000000  0.4719230000000 1.0
C      1  0.4762840000000  0.5697860000000  0.5372420000000 1.0
C      1  0.4335830000000  0.5302000000000  0.4477390000000 1.0
C      1  0.5124120000000  0.5451950000000  0.5311380000000 1.0
C      1  0.5615840000000  0.4436490000000  0.5386270000000 1.0
C      1  0.4145660000000  0.5176000000000  0.4995700000000 1.0
C      1  0.4846290000000  0.5558080000000  0.5635970000000 1.0
C      1  0.4403450000000  0.5920010000000  0.4974200000000 1.0
C      1  0.4484220000000  0.5603150000000  0.5328240000000 1.0
C      1  0.4768690000000  0.5089150000000  0.4386600000000 1.0
C      1  0.5669610000000  0.4596950000000  0.4229440000000 1.0
C      1  0.5663510000000  0.5453040000000  0.5503780000000 1.0
C      1  0.5887360000000  0.4638010000000  0.4894380000000 1.0
C      1  0.4693190000000  0.5633900000000  0.4362340000000 1.0
END
