TITL C-951343-2256-357 6.98379971012073e-05 125000 -175.623508465033 0 0 30 (C1) n - 1
REM
REM in /home/bkarasulu/work/CARBON/AIRSS/Generating-Clusters/EDIP-Nigel-Params/with-SteepDescent/Only-C1/SD-CG/HFTN-CG
REM
REM
REM
REM
REM
REM ./C.cell (11c1c37f851c82e70ff6c80c92926a4b)
REM
REM compiler GCC version 9.2.1 20190827 (Red Hat 9.2.1-1)
REM options -cpp -mtune=generic -march=x86-64 -g -O0 -fpre-include=/usr/include/finclude/math-vector-fortran.h
REM seed -1397468711 24060447 513582602 1512727819 -1461103384 5443731 1214023345 -1938584489 -56647532 939368997 -1676420110 1056214215 -119202889 749426206 1145238263 -1163312563 -1919747288 -1430235706 -167156497 782254998 -1084579069 -1071583579 46881133 1001760460 1277064118 1971559789 -144436749 -2047898267 -445484375 -1877259705 410088693 2022573900 1154201981
REM
CELL 1.54180   50.00000   50.00000   50.00000   90.00000   90.00000   90.00000
LATT -1
SFAC C  
C      1  0.4860640000000  0.4457880000000  0.5398010000000 1.0
C      1  0.5058660000000  0.4868770000000  0.5551420000000 1.0
C      1  0.4838950000000  0.5375950000000  0.4952880000000 1.0
C      1  0.5158720000000  0.5663730000000  0.4690260000000 1.0
C      1  0.4707820000000  0.5172550000000  0.5733550000000 1.0
C      1  0.5326960000000  0.5047480000000  0.4606920000000 1.0
C      1  0.4976370000000  0.4722670000000  0.4445780000000 1.0
C      1  0.5443690000000  0.5045950000000  0.4856800000000 1.0
C      1  0.5139030000000  0.5770290000000  0.5061200000000 1.0
C      1  0.4696210000000  0.5341950000000  0.5189010000000 1.0
C      1  0.5203550000000  0.4650120000000  0.5129920000000 1.0
C      1  0.5554450000000  0.5542900000000  0.4939450000000 1.0
C      1  0.4940960000000  0.5636120000000  0.4887560000000 1.0
C      1  0.4586710000000  0.5097220000000  0.5263030000000 1.0
C      1  0.5567760000000  0.5276260000000  0.4942100000000 1.0
C      1  0.4702690000000  0.4939230000000  0.4816050000000 1.0
C      1  0.4777640000000  0.5198650000000  0.4746400000000 1.0
C      1  0.5158140000000  0.4771630000000  0.4221740000000 1.0
C      1  0.4710900000000  0.4455800000000  0.4757320000000 1.0
C      1  0.4872930000000  0.4331740000000  0.4948950000000 1.0
C      1  0.5132870000000  0.4438460000000  0.4962440000000 1.0
C      1  0.5134990000000  0.4979750000000  0.4416040000000 1.0
C      1  0.4778230000000  0.4708850000000  0.4660710000000 1.0
C      1  0.4943670000000  0.5029060000000  0.5742510000000 1.0
C      1  0.4762320000000  0.4296480000000  0.5203860000000 1.0
C      1  0.4563110000000  0.4912610000000  0.5055550000000 1.0
C      1  0.5046160000000  0.4662640000000  0.5368890000000 1.0
C      1  0.5371900000000  0.5741750000000  0.4880210000000 1.0
C      1  0.5364140000000  0.4856070000000  0.5040530000000 1.0
C      1  0.4619830000000  0.5007450000000  0.5530920000000 1.0
END
