TITL C-950526-5686-738 -1.58911377786958e-06 125000 -1103.76056590877 0 0 177 (C1) n - 1
REM
REM in /home/bkarasulu/work/CARBON/AIRSS/Generating-Clusters/EDIP-Nigel-Params/with-SteepDescent/Only-C1/SD-CG/HFTN-CG
REM
REM
REM
REM
REM
REM ./C.cell (11c1c37f851c82e70ff6c80c92926a4b)
REM
REM compiler GCC version 9.2.1 20190827 (Red Hat 9.2.1-1)
REM options -cpp -mtune=generic -march=x86-64 -g -O0 -fpre-include=/usr/include/finclude/math-vector-fortran.h
REM seed 1732436827 -1994956405 -1438212515 -654765073 5117773 -1868789407 -1486788962 -507832630 1120119705 -1591593293 -1366964425 -2136052861 1617144256 -1734532566 -1583226453 -950560912 124024990 706038962 -477513958 -1140525195 174594178 -338076935 -1060047619 1433701244 1628257284 -1796286024 607694308 -1973189213 -722212130 -320692151 1072978607 1748802647 -36445208
REM
CELL 1.54180   50.00000   50.00000   50.00000   90.00000   90.00000   90.00000
LATT -1
SFAC C  
C      1  0.5179480000000  0.4427610000000  0.5666600000000 1.0
C      1  0.5314890000000  0.5470140000000  0.4808830000000 1.0
C      1  0.5688150000000  0.4761680000000  0.5991140000000 1.0
C      1  0.4294130000000  0.4226620000000  0.4590600000000 1.0
C      1  0.4520120000000  0.5816690000000  0.5492400000000 1.0
C      1  0.5347520000000  0.5533440000000  0.6000340000000 1.0
C      1  0.5649200000000  0.4864480000000  0.5545730000000 1.0
C      1  0.4625880000000  0.4903030000000  0.4055360000000 1.0
C      1  0.5075870000000  0.5109800000000  0.4429050000000 1.0
C      1  0.5412520000000  0.4134340000000  0.5162290000000 1.0
C      1  0.5341550000000  0.5050130000000  0.6056280000000 1.0
C      1  0.4869320000000  0.5400500000000  0.3923010000000 1.0
C      1  0.5244350000000  0.4113340000000  0.4301620000000 1.0
C      1  0.6007070000000  0.4654880000000  0.4812600000000 1.0
C      1  0.4153200000000  0.4431830000000  0.4455950000000 1.0
C      1  0.5395630000000  0.5713590000000  0.4259590000000 1.0
C      1  0.4935610000000  0.3903730000000  0.5099050000000 1.0
C      1  0.4243820000000  0.5119980000000  0.4113220000000 1.0
C      1  0.4329470000000  0.4706790000000  0.4806760000000 1.0
C      1  0.5745640000000  0.5323250000000  0.4208810000000 1.0
C      1  0.4113030000000  0.4859170000000  0.4219800000000 1.0
C      1  0.5066750000000  0.4533870000000  0.4133480000000 1.0
C      1  0.5082390000000  0.5124630000000  0.6157690000000 1.0
C      1  0.5222510000000  0.5126970000000  0.5154950000000 1.0
C      1  0.4367520000000  0.5328300000000  0.4293530000000 1.0
C      1  0.4806800000000  0.4683300000000  0.5092400000000 1.0
C      1  0.5311870000000  0.4367650000000  0.4170690000000 1.0
C      1  0.4452080000000  0.4161190000000  0.4811820000000 1.0
C      1  0.5611450000000  0.4120450000000  0.5366470000000 1.0
C      1  0.4889950000000  0.4810220000000  0.5868440000000 1.0
C      1  0.5257750000000  0.4487670000000  0.5149360000000 1.0
C      1  0.5410540000000  0.4772590000000  0.6036120000000 1.0
C      1  0.4523480000000  0.5965380000000  0.5249800000000 1.0
C      1  0.5591180000000  0.4798770000000  0.4607140000000 1.0
C      1  0.5110590000000  0.5337440000000  0.4970500000000 1.0
C      1  0.3995400000000  0.4631110000000  0.5479200000000 1.0
C      1  0.4956330000000  0.4636100000000  0.4611080000000 1.0
C      1  0.4632610000000  0.3958500000000  0.5417630000000 1.0
C      1  0.5499170000000  0.5273140000000  0.4697530000000 1.0
C      1  0.5328800000000  0.5507140000000  0.5709410000000 1.0
C      1  0.4067610000000  0.5595110000000  0.5000950000000 1.0
C      1  0.4298750000000  0.5909410000000  0.5044530000000 1.0
C      1  0.6176070000000  0.5154030000000  0.4891680000000 1.0
C      1  0.5126410000000  0.4352320000000  0.4907480000000 1.0
C      1  0.4756570000000  0.4887180000000  0.3790160000000 1.0
C      1  0.4417180000000  0.5034040000000  0.3902550000000 1.0
C      1  0.4433080000000  0.5374440000000  0.5265480000000 1.0
C      1  0.4922390000000  0.5755950000000  0.4889170000000 1.0
C      1  0.5963710000000  0.4951220000000  0.4416430000000 1.0
C      1  0.4740360000000  0.4192520000000  0.4729800000000 1.0
C      1  0.5261800000000  0.4148600000000  0.5730620000000 1.0
C      1  0.5347840000000  0.4930940000000  0.5630750000000 1.0
C      1  0.4690460000000  0.5045470000000  0.4734470000000 1.0
C      1  0.5121140000000  0.4920040000000  0.5406740000000 1.0
C      1  0.5189280000000  0.5552740000000  0.4548170000000 1.0
C      1  0.5653480000000  0.4213770000000  0.4601780000000 1.0
C      1  0.4448400000000  0.5799280000000  0.4703720000000 1.0
C      1  0.4714970000000  0.5635540000000  0.5892780000000 1.0
C      1  0.5837570000000  0.5518450000000  0.4938790000000 1.0
C      1  0.4959900000000  0.4937150000000  0.4663950000000 1.0
C      1  0.5525310000000  0.5279420000000  0.6036170000000 1.0
C      1  0.5197300000000  0.4786100000000  0.4079750000000 1.0
C      1  0.4539720000000  0.5816750000000  0.4400800000000 1.0
C      1  0.5041900000000  0.5010300000000  0.4157190000000 1.0
C      1  0.4566620000000  0.4369160000000  0.5868440000000 1.0
C      1  0.5810550000000  0.5655500000000  0.4592530000000 1.0
C      1  0.5586250000000  0.4510970000000  0.4184450000000 1.0
C      1  0.5396620000000  0.5919040000000  0.4701650000000 1.0
C      1  0.4759930000000  0.4168700000000  0.5840670000000 1.0
C      1  0.4743680000000  0.6159120000000  0.5211400000000 1.0
C      1  0.4076760000000  0.4643350000000  0.4650180000000 1.0
C      1  0.3869790000000  0.5358260000000  0.5030460000000 1.0
C      1  0.4235850000000  0.5361250000000  0.4539750000000 1.0
C      1  0.4887850000000  0.5009890000000  0.5585530000000 1.0
C      1  0.5764840000000  0.5230640000000  0.5851160000000 1.0
C      1  0.4529020000000  0.5574980000000  0.4222300000000 1.0
C      1  0.4768670000000  0.4238840000000  0.4428800000000 1.0
C      1  0.5781750000000  0.5025160000000  0.4204670000000 1.0
C      1  0.5431930000000  0.5254850000000  0.5580890000000 1.0
C      1  0.5762090000000  0.4436620000000  0.4411810000000 1.0
C      1  0.5415580000000  0.4695590000000  0.5024650000000 1.0
C      1  0.4386270000000  0.4820870000000  0.5772900000000 1.0
C      1  0.4970690000000  0.5618660000000  0.6054200000000 1.0
C      1  0.5904280000000  0.4571820000000  0.5266650000000 1.0
C      1  0.4723220000000  0.6198890000000  0.4929170000000 1.0
C      1  0.5363450000000  0.5304230000000  0.3901490000000 1.0
C      1  0.5532830000000  0.4339740000000  0.5531210000000 1.0
C      1  0.5112730000000  0.3967910000000  0.5557890000000 1.0
C      1  0.4836230000000  0.4477910000000  0.4860360000000 1.0
C      1  0.5497960000000  0.4576900000000  0.4772340000000 1.0
C      1  0.5691230000000  0.4579770000000  0.5463170000000 1.0
C      1  0.5763080000000  0.5264400000000  0.4793170000000 1.0
C      1  0.6122070000000  0.4872390000000  0.4980220000000 1.0
C      1  0.4030420000000  0.5133770000000  0.5378420000000 1.0
C      1  0.4285610000000  0.4599860000000  0.4238010000000 1.0
C      1  0.5922250000000  0.5443610000000  0.4420490000000 1.0
C      1  0.5871830000000  0.4702250000000  0.4549430000000 1.0
C      1  0.4871850000000  0.4934060000000  0.6140020000000 1.0
C      1  0.4953170000000  0.5280980000000  0.5663100000000 1.0
C      1  0.4343940000000  0.4347990000000  0.5675110000000 1.0
C      1  0.5075790000000  0.5207450000000  0.3936000000000 1.0
C      1  0.5259540000000  0.4923770000000  0.4931840000000 1.0
C      1  0.4098180000000  0.4569530000000  0.5225490000000 1.0
C      1  0.4623760000000  0.4658580000000  0.5847640000000 1.0
C      1  0.4571290000000  0.4752020000000  0.5270840000000 1.0
C      1  0.4447570000000  0.5108260000000  0.5666630000000 1.0
C      1  0.4486680000000  0.4214060000000  0.5355780000000 1.0
C      1  0.5636950000000  0.4796810000000  0.4058600000000 1.0
C      1  0.5378790000000  0.5016320000000  0.4657940000000 1.0
C      1  0.4634500000000  0.4488620000000  0.5451360000000 1.0
C      1  0.4460010000000  0.4904160000000  0.4609230000000 1.0
C      1  0.5624330000000  0.5646390000000  0.5412070000000 1.0
C      1  0.4008940000000  0.5110830000000  0.4920270000000 1.0
C      1  0.4965410000000  0.4071680000000  0.4320350000000 1.0
C      1  0.5963110000000  0.5246820000000  0.5353220000000 1.0
C      1  0.4628750000000  0.5050410000000  0.6210220000000 1.0
C      1  0.3812740000000  0.5299130000000  0.5302660000000 1.0
C      1  0.4303970000000  0.5615230000000  0.5441550000000 1.0
C      1  0.4422840000000  0.5484170000000  0.4737560000000 1.0
C      1  0.4580690000000  0.5349990000000  0.5889760000000 1.0
C      1  0.5597220000000  0.5597160000000  0.5116360000000 1.0
C      1  0.4678010000000  0.5337250000000  0.4756670000000 1.0
C      1  0.4214050000000  0.4611290000000  0.5652650000000 1.0
C      1  0.4208790000000  0.5264820000000  0.5566480000000 1.0
C      1  0.5789340000000  0.5411290000000  0.5551860000000 1.0
C      1  0.4828390000000  0.4528960000000  0.4351690000000 1.0
C      1  0.5801190000000  0.4934050000000  0.5797270000000 1.0
C      1  0.4113900000000  0.5753800000000  0.5249110000000 1.0
C      1  0.5144600000000  0.5607440000000  0.5319170000000 1.0
C      1  0.5122470000000  0.5832320000000  0.4608490000000 1.0
C      1  0.4781210000000  0.5737830000000  0.5612810000000 1.0
C      1  0.6039960000000  0.4824950000000  0.5249640000000 1.0
C      1  0.5868390000000  0.4470560000000  0.4992410000000 1.0
C      1  0.5014370000000  0.5938770000000  0.5576740000000 1.0
C      1  0.4825590000000  0.3982280000000  0.5638580000000 1.0
C      1  0.5497430000000  0.5061740000000  0.3814800000000 1.0
C      1  0.4350350000000  0.4233220000000  0.5082970000000 1.0
C      1  0.4175330000000  0.5036020000000  0.5143940000000 1.0
C      1  0.4084820000000  0.4313810000000  0.5111950000000 1.0
C      1  0.5016900000000  0.6061370000000  0.5304940000000 1.0
C      1  0.4969540000000  0.5391710000000  0.4434190000000 1.0
C      1  0.4943640000000  0.5085130000000  0.3707370000000 1.0
C      1  0.5176890000000  0.4665000000000  0.5859860000000 1.0
C      1  0.6001490000000  0.5198010000000  0.4595470000000 1.0
C      1  0.5231080000000  0.4004200000000  0.4781940000000 1.0
C      1  0.4727230000000  0.5411310000000  0.5236670000000 1.0
C      1  0.5232660000000  0.4496040000000  0.4660540000000 1.0
C      1  0.5677750000000  0.4258080000000  0.4902280000000 1.0
C      1  0.5332190000000  0.4829470000000  0.3825370000000 1.0
C      1  0.4626260000000  0.5026850000000  0.5426220000000 1.0
C      1  0.5331780000000  0.5726890000000  0.5521440000000 1.0
C      1  0.6071030000000  0.5369120000000  0.5093340000000 1.0
C      1  0.4944080000000  0.4457680000000  0.5477010000000 1.0
C      1  0.5166850000000  0.3980110000000  0.5262800000000 1.0
C      1  0.5115080000000  0.5829470000000  0.5120280000000 1.0
C      1  0.4846860000000  0.5459670000000  0.4964590000000 1.0
C      1  0.5498810000000  0.5459130000000  0.4117300000000 1.0
C      1  0.4160380000000  0.5095170000000  0.4649580000000 1.0
C      1  0.5399810000000  0.5807330000000  0.4984720000000 1.0
C      1  0.4942180000000  0.3965570000000  0.4817460000000 1.0
C      1  0.4294210000000  0.4762280000000  0.5110630000000 1.0
C      1  0.5014160000000  0.5335380000000  0.5962260000000 1.0
C      1  0.4897910000000  0.5501230000000  0.5459230000000 1.0
C      1  0.4002990000000  0.4894360000000  0.4491220000000 1.0
C      1  0.4705270000000  0.3788910000000  0.5207180000000 1.0
C      1  0.5397730000000  0.4058970000000  0.4546950000000 1.0
C      1  0.4305400000000  0.5429820000000  0.4993410000000 1.0
C      1  0.5571940000000  0.5800070000000  0.4495380000000 1.0
C      1  0.5483660000000  0.5254880000000  0.5270750000000 1.0
C      1  0.5070260000000  0.5918090000000  0.4327850000000 1.0
C      1  0.4557620000000  0.4731170000000  0.4309550000000 1.0
C      1  0.5036180000000  0.4643760000000  0.5280100000000 1.0
C      1  0.4689400000000  0.5926660000000  0.4841390000000 1.0
C      1  0.4490250000000  0.5270700000000  0.6143270000000 1.0
C      1  0.4789440000000  0.5937820000000  0.4332690000000 1.0
C      1  0.4825850000000  0.5524920000000  0.4175540000000 1.0
C      1  0.5730180000000  0.5053720000000  0.5299750000000 1.0
END
