TITL C-951343-2256-271 -4.56776906193865e-06 125000 -420.558732590953 0 0 69 (C1) n - 1
REM
REM in /home/bkarasulu/work/CARBON/AIRSS/Generating-Clusters/EDIP-Nigel-Params/with-SteepDescent/Only-C1/SD-CG/HFTN-CG
REM
REM
REM
REM
REM
REM ./C.cell (11c1c37f851c82e70ff6c80c92926a4b)
REM
REM compiler GCC version 9.2.1 20190827 (Red Hat 9.2.1-1)
REM options -cpp -mtune=generic -march=x86-64 -g -O0 -fpre-include=/usr/include/finclude/math-vector-fortran.h
REM seed -2019992494 -871402895 1673813338 1152862897 413170928 381246058 -249682809 -2102845137 -794381603 -510506863 686231254 949147031 1165114097 -394284622 -489916123 1777564961 -1984633448 1728650841 -2103369879 -736036144 348011961 1394943144 -909069308 -1466534858 -166137820 -400154062 -961048221 -2127861731 2122942032 1557264049 1717862865 724084287 715986352
REM
CELL 1.54180   50.00000   50.00000   50.00000   90.00000   90.00000   90.00000
LATT -1
SFAC C  
C      1  0.4769640000000  0.5591790000000  0.5389920000000 1.0
C      1  0.5322210000000  0.4537020000000  0.4434600000000 1.0
C      1  0.5292570000000  0.4468580000000  0.5098080000000 1.0
C      1  0.5324340000000  0.4892160000000  0.4850270000000 1.0
C      1  0.4602500000000  0.4485070000000  0.5402500000000 1.0
C      1  0.4535430000000  0.4654380000000  0.4371290000000 1.0
C      1  0.4538620000000  0.4564840000000  0.4894730000000 1.0
C      1  0.4568980000000  0.5174250000000  0.5539630000000 1.0
C      1  0.5510130000000  0.5172150000000  0.5435770000000 1.0
C      1  0.4493940000000  0.4342530000000  0.4680980000000 1.0
C      1  0.5162740000000  0.4915200000000  0.5324240000000 1.0
C      1  0.5518360000000  0.5436180000000  0.4805520000000 1.0
C      1  0.4362010000000  0.5504690000000  0.4882210000000 1.0
C      1  0.4899690000000  0.4280190000000  0.4888630000000 1.0
C      1  0.4871200000000  0.4864720000000  0.5173710000000 1.0
C      1  0.5053000000000  0.5834040000000  0.5277010000000 1.0
C      1  0.4908100000000  0.5201510000000  0.4811200000000 1.0
C      1  0.4600150000000  0.5561270000000  0.4742510000000 1.0
C      1  0.5006260000000  0.4388160000000  0.5127520000000 1.0
C      1  0.4830250000000  0.4718280000000  0.4893160000000 1.0
C      1  0.5057620000000  0.4635270000000  0.4317160000000 1.0
C      1  0.4328350000000  0.5226610000000  0.4844700000000 1.0
C      1  0.5223130000000  0.5180540000000  0.4805010000000 1.0
C      1  0.5098860000000  0.4924080000000  0.4286160000000 1.0
C      1  0.4932130000000  0.5171490000000  0.4326530000000 1.0
C      1  0.5071180000000  0.5185520000000  0.5497040000000 1.0
C      1  0.5294390000000  0.5130010000000  0.5861300000000 1.0
C      1  0.5371310000000  0.4770190000000  0.5129510000000 1.0
C      1  0.4770960000000  0.5140090000000  0.5092500000000 1.0
C      1  0.5136070000000  0.5381870000000  0.4367830000000 1.0
C      1  0.4434330000000  0.5157650000000  0.4577500000000 1.0
C      1  0.4828890000000  0.5625640000000  0.4903650000000 1.0
C      1  0.5480070000000  0.5430800000000  0.5546710000000 1.0
C      1  0.5302860000000  0.4421880000000  0.4802580000000 1.0
C      1  0.5302880000000  0.5602830000000  0.4921890000000 1.0
C      1  0.5122360000000  0.4685080000000  0.5696420000000 1.0
C      1  0.4868530000000  0.4354750000000  0.5386280000000 1.0
C      1  0.4646920000000  0.4785870000000  0.5375820000000 1.0
C      1  0.4467680000000  0.5066150000000  0.5058310000000 1.0
C      1  0.4370380000000  0.4435500000000  0.4443010000000 1.0
C      1  0.5376830000000  0.4730890000000  0.5590760000000 1.0
C      1  0.4297300000000  0.4750230000000  0.5136780000000 1.0
C      1  0.5790620000000  0.4773980000000  0.4886980000000 1.0
C      1  0.4807370000000  0.4578390000000  0.4473810000000 1.0
C      1  0.4785180000000  0.4314030000000  0.4632910000000 1.0
C      1  0.5004190000000  0.4451720000000  0.5608200000000 1.0
C      1  0.5277740000000  0.5392520000000  0.5744380000000 1.0
C      1  0.5073510000000  0.5681150000000  0.4764250000000 1.0
C      1  0.4439080000000  0.4895120000000  0.4479250000000 1.0
C      1  0.5068750000000  0.5613340000000  0.4495940000000 1.0
C      1  0.4360270000000  0.5074040000000  0.5346210000000 1.0
C      1  0.4797710000000  0.5761430000000  0.5159100000000 1.0
C      1  0.5672710000000  0.4829990000000  0.5143150000000 1.0
C      1  0.5139150000000  0.4681740000000  0.4744370000000 1.0
C      1  0.4822950000000  0.4952290000000  0.4629620000000 1.0
C      1  0.4659380000000  0.5341010000000  0.4549350000000 1.0
C      1  0.5456590000000  0.4994200000000  0.5655910000000 1.0
C      1  0.5378430000000  0.4992620000000  0.4338730000000 1.0
C      1  0.5354350000000  0.5246870000000  0.4512460000000 1.0
C      1  0.5294970000000  0.5714020000000  0.5187030000000 1.0
C      1  0.5481750000000  0.5648840000000  0.5378070000000 1.0
C      1  0.4689090000000  0.4924120000000  0.5652190000000 1.0
C      1  0.5531890000000  0.4759880000000  0.4440560000000 1.0
C      1  0.5685490000000  0.5116240000000  0.5213530000000 1.0
C      1  0.5587720000000  0.4869040000000  0.4711160000000 1.0
C      1  0.4798510000000  0.5296130000000  0.5377330000000 1.0
C      1  0.5680850000000  0.5297400000000  0.4996250000000 1.0
C      1  0.4426800000000  0.4466110000000  0.5167220000000 1.0
C      1  0.4981790000000  0.4953780000000  0.5721130000000 1.0
END
