TITL C-951348-1603-42 -1.83924630707816e-06 125000 -353.997720232518 0 0 59 (C1) n - 1
REM
REM in /home/bkarasulu/work/CARBON/AIRSS/Generating-Clusters/EDIP-Nigel-Params/with-SteepDescent/Only-C1/SD-CG/HFTN-CG
REM
REM
REM
REM
REM
REM ./C.cell (11c1c37f851c82e70ff6c80c92926a4b)
REM
REM compiler GCC version 9.2.1 20190827 (Red Hat 9.2.1-1)
REM options -cpp -mtune=generic -march=x86-64 -g -O0 -fpre-include=/usr/include/finclude/math-vector-fortran.h
REM seed 1871881374 1854896646 214873305 1130113568 443306144 703008696 2050191166 -1353883912 -1556801502 -1948532273 151792002 -1553705549 -931092694 850554689 2066921445 -1287694742 788191633 551828174 1886534922 124632239 956087108 409055625 805275953 -1217083161 949249089 1418927423 -616728133 821793029 -1677214139 -1952696541 1760534214 923718871 -1686703999
REM
CELL 1.54180   50.00000   50.00000   50.00000   90.00000   90.00000   90.00000
LATT -1
SFAC C  
C      1  0.5060940000000  0.4894400000000  0.4715940000000 1.0
C      1  0.5645620000000  0.5364670000000  0.4632840000000 1.0
C      1  0.5411980000000  0.4497740000000  0.4837050000000 1.0
C      1  0.5167090000000  0.4527970000000  0.5361700000000 1.0
C      1  0.5013020000000  0.4761810000000  0.4447110000000 1.0
C      1  0.4844550000000  0.5108830000000  0.4704660000000 1.0
C      1  0.5556770000000  0.5106420000000  0.4567670000000 1.0
C      1  0.4301450000000  0.4691920000000  0.5273150000000 1.0
C      1  0.5359890000000  0.5203760000000  0.5483960000000 1.0
C      1  0.4931820000000  0.5633180000000  0.5204570000000 1.0
C      1  0.4087260000000  0.4947260000000  0.4646760000000 1.0
C      1  0.5560410000000  0.4752080000000  0.5538060000000 1.0
C      1  0.4238660000000  0.5351760000000  0.4471290000000 1.0
C      1  0.4999400000000  0.4720680000000  0.5496210000000 1.0
C      1  0.4958130000000  0.4942310000000  0.5672090000000 1.0
C      1  0.5129390000000  0.5178610000000  0.5674640000000 1.0
C      1  0.5666840000000  0.4827070000000  0.4688040000000 1.0
C      1  0.4472070000000  0.5245280000000  0.5062140000000 1.0
C      1  0.4483570000000  0.4644180000000  0.4656180000000 1.0
C      1  0.4574160000000  0.4740430000000  0.5303050000000 1.0
C      1  0.4682000000000  0.5055570000000  0.4464510000000 1.0
C      1  0.5036520000000  0.4501030000000  0.4342560000000 1.0
C      1  0.5596720000000  0.5484900000000  0.5108260000000 1.0
C      1  0.5651210000000  0.5047880000000  0.5160560000000 1.0
C      1  0.5432560000000  0.4624200000000  0.5322150000000 1.0
C      1  0.4907400000000  0.5136600000000  0.5199730000000 1.0
C      1  0.4232290000000  0.4744240000000  0.4767860000000 1.0
C      1  0.5392650000000  0.5457750000000  0.5328900000000 1.0
C      1  0.5369110000000  0.5113920000000  0.5050680000000 1.0
C      1  0.4624920000000  0.4501200000000  0.4858110000000 1.0
C      1  0.4834440000000  0.4345180000000  0.4726280000000 1.0
C      1  0.5738570000000  0.4807730000000  0.4989810000000 1.0
C      1  0.5249630000000  0.5643870000000  0.4781740000000 1.0
C      1  0.5585850000000  0.5016840000000  0.5453790000000 1.0
C      1  0.5461260000000  0.5436750000000  0.4846010000000 1.0
C      1  0.4981840000000  0.5581620000000  0.4917090000000 1.0
C      1  0.4515580000000  0.5267770000000  0.5354350000000 1.0
C      1  0.4468070000000  0.5225950000000  0.4409500000000 1.0
C      1  0.4821240000000  0.5398510000000  0.5375590000000 1.0
C      1  0.4995930000000  0.5740510000000  0.4678300000000 1.0
C      1  0.5017020000000  0.4733950000000  0.5000630000000 1.0
C      1  0.5337990000000  0.5025980000000  0.4760620000000 1.0
C      1  0.4811130000000  0.4373300000000  0.4442070000000 1.0
C      1  0.4705360000000  0.4742050000000  0.5030750000000 1.0
C      1  0.4226700000000  0.5281410000000  0.4935460000000 1.0
C      1  0.5141250000000  0.4939690000000  0.5208000000000 1.0
C      1  0.4651790000000  0.4991550000000  0.5451840000000 1.0
C      1  0.5184930000000  0.5672910000000  0.5369870000000 1.0
C      1  0.4955860000000  0.5417360000000  0.5649510000000 1.0
C      1  0.5807520000000  0.5292870000000  0.5129150000000 1.0
C      1  0.4684420000000  0.4739760000000  0.4423620000000 1.0
C      1  0.4179270000000  0.4681810000000  0.5033750000000 1.0
C      1  0.5564890000000  0.4584300000000  0.5066880000000 1.0
C      1  0.5056410000000  0.4376260000000  0.5144870000000 1.0
C      1  0.4119410000000  0.5220740000000  0.4686490000000 1.0
C      1  0.4705740000000  0.5071350000000  0.4968750000000 1.0
C      1  0.5536320000000  0.4578470000000  0.4596350000000 1.0
C      1  0.5165630000000  0.4346030000000  0.4882450000000 1.0
C      1  0.5107560000000  0.5657830000000  0.5646060000000 1.0
END
