TITL C-951348-1603-412 1.62742521215682e-06 125000 -491.62723997694 0 0 79 (C1) n - 1
REM
REM in /home/bkarasulu/work/CARBON/AIRSS/Generating-Clusters/EDIP-Nigel-Params/with-SteepDescent/Only-C1/SD-CG/HFTN-CG
REM
REM
REM
REM
REM
REM ./C.cell (11c1c37f851c82e70ff6c80c92926a4b)
REM
REM compiler GCC version 9.2.1 20190827 (Red Hat 9.2.1-1)
REM options -cpp -mtune=generic -march=x86-64 -g -O0 -fpre-include=/usr/include/finclude/math-vector-fortran.h
REM seed -1936574938 1862699627 39230144 -1030036905 317527970 -1371569144 -754490415 -61153484 -1900598602 786259989 1049777458 -275647762 -810486739 -1645231325 1259065085 268432703 1812868936 -768959195 956965661 -2013994897 1294854519 -1407897336 -59681240 1034633602 -665740362 -31485698 18926457 -206956049 -1424792218 1978750079 -1852688105 -1823793883 74506786
REM
CELL 1.54180   50.00000   50.00000   50.00000   90.00000   90.00000   90.00000
LATT -1
SFAC C  
C      1  0.5432810000000  0.4753110000000  0.4777740000000 1.0
C      1  0.4610470000000  0.4405150000000  0.5228750000000 1.0
C      1  0.4341880000000  0.5097550000000  0.5142940000000 1.0
C      1  0.4222580000000  0.4739710000000  0.5255080000000 1.0
C      1  0.4969010000000  0.4366070000000  0.5566340000000 1.0
C      1  0.5279530000000  0.5648740000000  0.5147150000000 1.0
C      1  0.4397710000000  0.5099730000000  0.4400600000000 1.0
C      1  0.5251280000000  0.4647740000000  0.5000050000000 1.0
C      1  0.4834050000000  0.5550490000000  0.5373210000000 1.0
C      1  0.4377980000000  0.4579430000000  0.4846100000000 1.0
C      1  0.5112980000000  0.5173580000000  0.4156300000000 1.0
C      1  0.5139370000000  0.4248680000000  0.5353680000000 1.0
C      1  0.5679450000000  0.4765340000000  0.5301420000000 1.0
C      1  0.5468120000000  0.4396750000000  0.5683750000000 1.0
C      1  0.4226980000000  0.4793360000000  0.4721430000000 1.0
C      1  0.4792750000000  0.4916860000000  0.5028860000000 1.0
C      1  0.5524680000000  0.5230150000000  0.5354580000000 1.0
C      1  0.5519390000000  0.5740260000000  0.4639190000000 1.0
C      1  0.5060940000000  0.4635400000000  0.5667260000000 1.0
C      1  0.4640310000000  0.5174740000000  0.5120310000000 1.0
C      1  0.4230360000000  0.5060470000000  0.4853940000000 1.0
C      1  0.4522110000000  0.4413980000000  0.4661650000000 1.0
C      1  0.4340140000000  0.4814680000000  0.4444650000000 1.0
C      1  0.4767240000000  0.4239700000000  0.5045530000000 1.0
C      1  0.5082970000000  0.5113390000000  0.5614320000000 1.0
C      1  0.5333580000000  0.5573630000000  0.4484860000000 1.0
C      1  0.4730910000000  0.5275670000000  0.5412730000000 1.0
C      1  0.5352920000000  0.5125160000000  0.4312390000000 1.0
C      1  0.5776570000000  0.5085900000000  0.4658060000000 1.0
C      1  0.4360570000000  0.4522260000000  0.5126070000000 1.0
C      1  0.4491760000000  0.5486260000000  0.4706310000000 1.0
C      1  0.5046280000000  0.4261770000000  0.5079440000000 1.0
C      1  0.4678120000000  0.4391490000000  0.5516420000000 1.0
C      1  0.4620220000000  0.5594570000000  0.4476820000000 1.0
C      1  0.5339240000000  0.5291820000000  0.4570410000000 1.0
C      1  0.4751720000000  0.5424530000000  0.4298090000000 1.0
C      1  0.4837100000000  0.4724300000000  0.5861630000000 1.0
C      1  0.5628120000000  0.4975950000000  0.5505610000000 1.0
C      1  0.5578270000000  0.5275860000000  0.4771080000000 1.0
C      1  0.4871750000000  0.4671780000000  0.4337180000000 1.0
C      1  0.5265950000000  0.5314170000000  0.5492200000000 1.0
C      1  0.4690920000000  0.5148760000000  0.4368600000000 1.0
C      1  0.5705230000000  0.4853190000000  0.4807550000000 1.0
C      1  0.4314410000000  0.5253160000000  0.4643120000000 1.0
C      1  0.5010490000000  0.5438860000000  0.4188610000000 1.0
C      1  0.4831300000000  0.5017960000000  0.5891920000000 1.0
C      1  0.5136580000000  0.5546970000000  0.5376430000000 1.0
C      1  0.5011000000000  0.4866750000000  0.5453480000000 1.0
C      1  0.5422320000000  0.4854570000000  0.4307530000000 1.0
C      1  0.4711480000000  0.5677740000000  0.5129230000000 1.0
C      1  0.5478570000000  0.5143370000000  0.5048190000000 1.0
C      1  0.5778590000000  0.4901320000000  0.5074170000000 1.0
C      1  0.5572280000000  0.5613120000000  0.5126360000000 1.0
C      1  0.5067740000000  0.4880430000000  0.5132420000000 1.0
C      1  0.4685320000000  0.5444560000000  0.4936700000000 1.0
C      1  0.4359130000000  0.4934040000000  0.5405590000000 1.0
C      1  0.4687330000000  0.4224930000000  0.4779340000000 1.0
C      1  0.4626640000000  0.4852920000000  0.5488920000000 1.0
C      1  0.5082980000000  0.4562940000000  0.4518880000000 1.0
C      1  0.4882230000000  0.5020350000000  0.4608250000000 1.0
C      1  0.4895150000000  0.4962870000000  0.4221010000000 1.0
C      1  0.5487010000000  0.4866630000000  0.5722750000000 1.0
C      1  0.4769620000000  0.4763770000000  0.4768550000000 1.0
C      1  0.5449560000000  0.4583670000000  0.5234880000000 1.0
C      1  0.5190780000000  0.5114790000000  0.5012690000000 1.0
C      1  0.4992760000000  0.4532670000000  0.4807390000000 1.0
C      1  0.5346770000000  0.4685930000000  0.4513850000000 1.0
C      1  0.4609240000000  0.4636480000000  0.5679690000000 1.0
C      1  0.4586000000000  0.4625260000000  0.4455120000000 1.0
C      1  0.5407270000000  0.4355310000000  0.5409260000000 1.0
C      1  0.4882350000000  0.5885210000000  0.5029150000000 1.0
C      1  0.5102280000000  0.5722690000000  0.4922450000000 1.0
C      1  0.5342840000000  0.4632410000000  0.5773200000000 1.0
C      1  0.4956900000000  0.5473520000000  0.4813920000000 1.0
C      1  0.4718200000000  0.5212360000000  0.5706610000000 1.0
C      1  0.5090810000000  0.5219050000000  0.4748030000000 1.0
C      1  0.5699950000000  0.5461760000000  0.5333670000000 1.0
C      1  0.5663130000000  0.5562940000000  0.4842720000000 1.0
C      1  0.5266670000000  0.5866610000000  0.4725620000000 1.0
END
