TITL C-951348-1603-634 -5.39192505179115e-06 125000 -1253.5937416698 0 0 198 (C1) n - 1
REM
REM in /home/bkarasulu/work/CARBON/AIRSS/Generating-Clusters/EDIP-Nigel-Params/with-SteepDescent/Only-C1/SD-CG/HFTN-CG
REM
REM
REM
REM
REM
REM ./C.cell (11c1c37f851c82e70ff6c80c92926a4b)
REM
REM compiler GCC version 9.2.1 20190827 (Red Hat 9.2.1-1)
REM options -cpp -mtune=generic -march=x86-64 -g -O0 -fpre-include=/usr/include/finclude/math-vector-fortran.h
REM seed -1381878856 -1666859440 804588940 -825162619 2084404934 -2126589885 -38151415 271759353 963774204 -64261318 1502491595 -14673661 -1049377346 1530876172 -1878796521 591113288 1217524126 -62788506 -178166151 770411589 -1111397171 -1473280539 1945083460 -866072588 -796611681 -488274850 50641249 -290528006 1748582320 1231928170 1152837454 1451377505 -55932379
REM
CELL 1.54180   50.00000   50.00000   50.00000   90.00000   90.00000   90.00000
LATT -1
SFAC C  
C      1  0.4664120000000  0.5601120000000  0.5941460000000 1.0
C      1  0.5593370000000  0.4367260000000  0.5432880000000 1.0
C      1  0.5731710000000  0.4102750000000  0.5011330000000 1.0
C      1  0.5254330000000  0.4106700000000  0.5078740000000 1.0
C      1  0.5569490000000  0.4979920000000  0.4729750000000 1.0
C      1  0.5555480000000  0.5452790000000  0.4870230000000 1.0
C      1  0.6236880000000  0.4872660000000  0.4952350000000 1.0
C      1  0.4701690000000  0.6042070000000  0.5000760000000 1.0
C      1  0.4982580000000  0.5757350000000  0.4108300000000 1.0
C      1  0.5030360000000  0.4953080000000  0.3987450000000 1.0
C      1  0.5514770000000  0.5086480000000  0.4452970000000 1.0
C      1  0.5996170000000  0.4933440000000  0.4511010000000 1.0
C      1  0.5280820000000  0.5303520000000  0.4486220000000 1.0
C      1  0.5072820000000  0.5525900000000  0.5579570000000 1.0
C      1  0.5017370000000  0.5074050000000  0.5475880000000 1.0
C      1  0.5649980000000  0.4545240000000  0.4099440000000 1.0
C      1  0.5061670000000  0.4688730000000  0.6075940000000 1.0
C      1  0.4947380000000  0.5185380000000  0.5191840000000 1.0
C      1  0.5722210000000  0.5622530000000  0.4288650000000 1.0
C      1  0.4896530000000  0.4491350000000  0.4482770000000 1.0
C      1  0.4992470000000  0.5650130000000  0.4904620000000 1.0
C      1  0.4865140000000  0.4089660000000  0.4311910000000 1.0
C      1  0.5260570000000  0.5543650000000  0.4274440000000 1.0
C      1  0.5508790000000  0.3935660000000  0.5100860000000 1.0
C      1  0.4343630000000  0.4763060000000  0.4042800000000 1.0
C      1  0.4401380000000  0.4630450000000  0.5216250000000 1.0
C      1  0.3973030000000  0.4459950000000  0.4926190000000 1.0
C      1  0.5104470000000  0.4373290000000  0.5545140000000 1.0
C      1  0.4940590000000  0.4331160000000  0.4733990000000 1.0
C      1  0.5941750000000  0.4637270000000  0.4515970000000 1.0
C      1  0.4595340000000  0.4976520000000  0.4333350000000 1.0
C      1  0.5039020000000  0.3841550000000  0.5521040000000 1.0
C      1  0.4735000000000  0.4470400000000  0.4925690000000 1.0
C      1  0.4416700000000  0.5188590000000  0.5875360000000 1.0
C      1  0.5913040000000  0.5191440000000  0.5348910000000 1.0
C      1  0.4801750000000  0.4693890000000  0.5505360000000 1.0
C      1  0.4874520000000  0.5088900000000  0.4212720000000 1.0
C      1  0.4938570000000  0.5637630000000  0.4626340000000 1.0
C      1  0.5697010000000  0.4783870000000  0.5164930000000 1.0
C      1  0.4549120000000  0.4725240000000  0.5869160000000 1.0
C      1  0.5900240000000  0.4788250000000  0.5639760000000 1.0
C      1  0.4389340000000  0.4326750000000  0.4302380000000 1.0
C      1  0.5135790000000  0.4834420000000  0.4840620000000 1.0
C      1  0.4024440000000  0.4766460000000  0.4888670000000 1.0
C      1  0.5442220000000  0.5965720000000  0.5048570000000 1.0
C      1  0.5278790000000  0.4617620000000  0.5220820000000 1.0
C      1  0.5828560000000  0.5008630000000  0.5814330000000 1.0
C      1  0.4288390000000  0.4752760000000  0.5750280000000 1.0
C      1  0.5315880000000  0.4210320000000  0.5394630000000 1.0
C      1  0.4611390000000  0.4713320000000  0.3919640000000 1.0
C      1  0.3891410000000  0.4677250000000  0.5507620000000 1.0
C      1  0.4667800000000  0.6043930000000  0.4693710000000 1.0
C      1  0.4566820000000  0.4861510000000  0.5343080000000 1.0
C      1  0.5166790000000  0.6066440000000  0.4560890000000 1.0
C      1  0.4340950000000  0.5190040000000  0.3826580000000 1.0
C      1  0.5729890000000  0.5721820000000  0.5334340000000 1.0
C      1  0.5329130000000  0.5687760000000  0.5083820000000 1.0
C      1  0.4138110000000  0.5115190000000  0.5483840000000 1.0
C      1  0.4029400000000  0.5583590000000  0.4803670000000 1.0
C      1  0.5308790000000  0.4322750000000  0.4377840000000 1.0
C      1  0.5033820000000  0.4471140000000  0.3908150000000 1.0
C      1  0.5777740000000  0.5672630000000  0.4838280000000 1.0
C      1  0.4400960000000  0.4085030000000  0.4805350000000 1.0
C      1  0.3879740000000  0.5224060000000  0.5069810000000 1.0
C      1  0.4574470000000  0.5448550000000  0.4326720000000 1.0
C      1  0.4831810000000  0.3948760000000  0.5352090000000 1.0
C      1  0.5009100000000  0.4700350000000  0.5264420000000 1.0
C      1  0.4742890000000  0.5754040000000  0.5023930000000 1.0
C      1  0.5246880000000  0.5420040000000  0.3985800000000 1.0
C      1  0.4896410000000  0.5922960000000  0.4533610000000 1.0
C      1  0.4333810000000  0.4720470000000  0.4926830000000 1.0
C      1  0.4873850000000  0.5421780000000  0.6085320000000 1.0
C      1  0.4885650000000  0.4055560000000  0.4617340000000 1.0
C      1  0.4486550000000  0.4515130000000  0.4750290000000 1.0
C      1  0.4881730000000  0.5247100000000  0.5678440000000 1.0
C      1  0.5677700000000  0.4233170000000  0.4742840000000 1.0
C      1  0.3999860000000  0.4879730000000  0.4606870000000 1.0
C      1  0.6047370000000  0.4903830000000  0.5401960000000 1.0
C      1  0.4672920000000  0.4938520000000  0.4635800000000 1.0
C      1  0.5438150000000  0.4367330000000  0.5910080000000 1.0
C      1  0.4474590000000  0.5439940000000  0.4855590000000 1.0
C      1  0.5690570000000  0.5184790000000  0.4890440000000 1.0
C      1  0.4670430000000  0.4458640000000  0.5858850000000 1.0
C      1  0.4940200000000  0.5473000000000  0.5301730000000 1.0
C      1  0.5789440000000  0.5255030000000  0.5658740000000 1.0
C      1  0.4265270000000  0.4588380000000  0.4265470000000 1.0
C      1  0.4518020000000  0.5752300000000  0.4317460000000 1.0
C      1  0.5674090000000  0.4639090000000  0.6046780000000 1.0
C      1  0.4257620000000  0.4355360000000  0.5451890000000 1.0
C      1  0.6061550000000  0.5402920000000  0.5138870000000 1.0
C      1  0.4857890000000  0.5170620000000  0.4657110000000 1.0
C      1  0.5160100000000  0.4679220000000  0.4067370000000 1.0
C      1  0.4005000000000  0.4887420000000  0.5353660000000 1.0
C      1  0.5512860000000  0.4666620000000  0.5384210000000 1.0
C      1  0.5975410000000  0.5515600000000  0.4655450000000 1.0
C      1  0.4768100000000  0.4939620000000  0.3805250000000 1.0
C      1  0.5849710000000  0.4536010000000  0.4275420000000 1.0
C      1  0.5191280000000  0.5951320000000  0.5607770000000 1.0
C      1  0.4148030000000  0.5157310000000  0.4565600000000 1.0
C      1  0.4714090000000  0.5948200000000  0.5601150000000 1.0
C      1  0.5840370000000  0.4553710000000  0.5817890000000 1.0
C      1  0.5605340000000  0.5991530000000  0.5304320000000 1.0
C      1  0.4433470000000  0.5172160000000  0.5391680000000 1.0
C      1  0.5517280000000  0.3795830000000  0.5350580000000 1.0
C      1  0.5459540000000  0.4728260000000  0.4021830000000 1.0
C      1  0.4299960000000  0.5863440000000  0.5059900000000 1.0
C      1  0.5923150000000  0.5670520000000  0.5113500000000 1.0
C      1  0.3979550000000  0.5393240000000  0.4596660000000 1.0
C      1  0.5679840000000  0.5083590000000  0.5165720000000 1.0
C      1  0.4508230000000  0.5375160000000  0.5159560000000 1.0
C      1  0.5598800000000  0.4714460000000  0.4878100000000 1.0
C      1  0.5384540000000  0.4186260000000  0.4636070000000 1.0
C      1  0.4758450000000  0.5339110000000  0.4078720000000 1.0
C      1  0.5394310000000  0.5351410000000  0.5971240000000 1.0
C      1  0.4614150000000  0.4989940000000  0.5994600000000 1.0
C      1  0.5305080000000  0.5130230000000  0.5479110000000 1.0
C      1  0.4943990000000  0.4443320000000  0.5980540000000 1.0
C      1  0.5443890000000  0.6035560000000  0.5528060000000 1.0
C      1  0.5208290000000  0.6165310000000  0.5026780000000 1.0
C      1  0.5093360000000  0.3869570000000  0.4967790000000 1.0
C      1  0.5381470000000  0.5046240000000  0.5948490000000 1.0
C      1  0.4756240000000  0.4379520000000  0.5430410000000 1.0
C      1  0.5817210000000  0.4291100000000  0.5228740000000 1.0
C      1  0.4959400000000  0.6015180000000  0.5448500000000 1.0
C      1  0.4600230000000  0.4400240000000  0.5180700000000 1.0
C      1  0.6107040000000  0.5322310000000  0.4842420000000 1.0
C      1  0.3897400000000  0.4946160000000  0.5097540000000 1.0
C      1  0.4304830000000  0.5699790000000  0.4818510000000 1.0
C      1  0.4965070000000  0.5518140000000  0.3959510000000 1.0
C      1  0.4279060000000  0.4235180000000  0.4573980000000 1.0
C      1  0.5229680000000  0.4329140000000  0.4851050000000 1.0
C      1  0.4564100000000  0.5698520000000  0.5521270000000 1.0
C      1  0.4678070000000  0.5586980000000  0.5256470000000 1.0
C      1  0.5949110000000  0.4507370000000  0.5062120000000 1.0
C      1  0.4719490000000  0.5428230000000  0.4614150000000 1.0
C      1  0.5413020000000  0.5898140000000  0.4562940000000 1.0
C      1  0.4432840000000  0.5873960000000  0.4588590000000 1.0
C      1  0.5475170000000  0.5737880000000  0.4323920000000 1.0
C      1  0.4668980000000  0.3971340000000  0.4807930000000 1.0
C      1  0.5360900000000  0.5426500000000  0.5533580000000 1.0
C      1  0.4759660000000  0.4466370000000  0.3974150000000 1.0
C      1  0.5806290000000  0.4512020000000  0.4767220000000 1.0
C      1  0.5153090000000  0.4598430000000  0.4369980000000 1.0
C      1  0.4781850000000  0.5894670000000  0.4257630000000 1.0
C      1  0.5663960000000  0.4338400000000  0.5722810000000 1.0
C      1  0.5281700000000  0.5130800000000  0.3954570000000 1.0
C      1  0.4487300000000  0.4969920000000  0.4866350000000 1.0
C      1  0.5533810000000  0.5011230000000  0.4077830000000 1.0
C      1  0.3971620000000  0.5488640000000  0.5082780000000 1.0
C      1  0.4444650000000  0.6087530000000  0.5130020000000 1.0
C      1  0.4101920000000  0.5592960000000  0.5326320000000 1.0
C      1  0.5160080000000  0.4312220000000  0.5829740000000 1.0
C      1  0.4349610000000  0.5175180000000  0.4315610000000 1.0
C      1  0.4192530000000  0.5028100000000  0.5760930000000 1.0
C      1  0.5145910000000  0.5529880000000  0.6009770000000 1.0
C      1  0.4038050000000  0.4626850000000  0.4450680000000 1.0
C      1  0.4798410000000  0.5849280000000  0.5864640000000 1.0
C      1  0.4261020000000  0.5678210000000  0.5558540000000 1.0
C      1  0.4237920000000  0.4063330000000  0.5030200000000 1.0
C      1  0.5113460000000  0.4727250000000  0.5689360000000 1.0
C      1  0.4676510000000  0.4307120000000  0.4213820000000 1.0
C      1  0.6130430000000  0.5040040000000  0.4758320000000 1.0
C      1  0.5491440000000  0.5544440000000  0.5290400000000 1.0
C      1  0.5160090000000  0.4844440000000  0.4542220000000 1.0
C      1  0.5645850000000  0.4928160000000  0.6035540000000 1.0
C      1  0.5387190000000  0.4889650000000  0.5640620000000 1.0
C      1  0.5257770000000  0.5382010000000  0.4792200000000 1.0
C      1  0.5883210000000  0.5422530000000  0.4388410000000 1.0
C      1  0.5191330000000  0.5132100000000  0.4989420000000 1.0
C      1  0.5394730000000  0.5118100000000  0.5212170000000 1.0
C      1  0.4579070000000  0.5299020000000  0.5628080000000 1.0
C      1  0.4258780000000  0.5049750000000  0.4053250000000 1.0
C      1  0.5054970000000  0.5108630000000  0.4458240000000 1.0
C      1  0.5092670000000  0.5801770000000  0.5854330000000 1.0
C      1  0.4126070000000  0.4293810000000  0.5145560000000 1.0
C      1  0.4952110000000  0.6119480000000  0.5170210000000 1.0
C      1  0.4319280000000  0.5194150000000  0.4802540000000 1.0
C      1  0.4024100000000  0.4386090000000  0.4635320000000 1.0
C      1  0.5320010000000  0.3932390000000  0.5503650000000 1.0
C      1  0.4878430000000  0.5136100000000  0.5977220000000 1.0
C      1  0.4620460000000  0.5200740000000  0.3841150000000 1.0
C      1  0.5565370000000  0.5438500000000  0.5749420000000 1.0
C      1  0.5134120000000  0.4146700000000  0.4238310000000 1.0
C      1  0.4687040000000  0.3979070000000  0.5602970000000 1.0
C      1  0.6131200000000  0.4733100000000  0.5168670000000 1.0
C      1  0.4700510000000  0.4980160000000  0.5092350000000 1.0
C      1  0.5807170000000  0.5126910000000  0.4331630000000 1.0
C      1  0.5168770000000  0.6253750000000  0.4766310000000 1.0
C      1  0.4878060000000  0.4743200000000  0.5001510000000 1.0
C      1  0.5606300000000  0.5928570000000  0.4787580000000 1.0
C      1  0.4628610000000  0.4634380000000  0.4507750000000 1.0
C      1  0.4358910000000  0.5568200000000  0.5855350000000 1.0
C      1  0.5149460000000  0.3917160000000  0.4677340000000 1.0
C      1  0.4117290000000  0.4553990000000  0.5621330000000 1.0
C      1  0.5322890000000  0.4613280000000  0.4935680000000 1.0
C      1  0.4814640000000  0.3890570000000  0.5056460000000 1.0
C      1  0.5114410000000  0.4966210000000  0.6058230000000 1.0
C      1  0.4565560000000  0.4259260000000  0.5633470000000 1.0
END
