TITL C-951334-9093-65 -8.92364039931116e-07 125000 -1013.66943785432 0 0 163 (C1) n - 1
REM
REM in /home/bkarasulu/work/CARBON/AIRSS/Generating-Clusters/EDIP-Nigel-Params/with-SteepDescent/Only-C1/SD-CG/HFTN-CG
REM
REM
REM
REM
REM
REM ./C.cell (11c1c37f851c82e70ff6c80c92926a4b)
REM
REM compiler GCC version 9.2.1 20190827 (Red Hat 9.2.1-1)
REM options -cpp -mtune=generic -march=x86-64 -g -O0 -fpre-include=/usr/include/finclude/math-vector-fortran.h
REM seed 112041226 831093526 -1247003249 -1201688034 1119701487 915273716 1627489277 547875071 -686736450 1107087582 1899731300 746009985 1889049241 -1235160161 1267223572 511661337 -795688361 -1136260098 1774175522 614979793 132957785 -792006511 -1596814797 -1291087934 1908227852 1988992602 2033175802 -954790834 2011125115 422816942 2131188188 -480649614 -2026416203
REM
CELL 1.54180   50.00000   50.00000   50.00000   90.00000   90.00000   90.00000
LATT -1
SFAC C  
C      1  0.4679310000000  0.4940450000000  0.5622440000000 1.0
C      1  0.5069280000000  0.6156420000000  0.5129230000000 1.0
C      1  0.4239320000000  0.4927920000000  0.4360500000000 1.0
C      1  0.6025180000000  0.5217970000000  0.5300450000000 1.0
C      1  0.5466330000000  0.4749350000000  0.5378760000000 1.0
C      1  0.5264870000000  0.5028570000000  0.6037600000000 1.0
C      1  0.5057660000000  0.5709930000000  0.5362990000000 1.0
C      1  0.4877590000000  0.4586750000000  0.5453580000000 1.0
C      1  0.5408590000000  0.5552330000000  0.4596020000000 1.0
C      1  0.5181320000000  0.5497260000000  0.5872850000000 1.0
C      1  0.5625590000000  0.5756680000000  0.4567360000000 1.0
C      1  0.4612190000000  0.3817560000000  0.5024090000000 1.0
C      1  0.4672080000000  0.4436750000000  0.5643720000000 1.0
C      1  0.4621220000000  0.4740340000000  0.5846050000000 1.0
C      1  0.5302110000000  0.5999790000000  0.5076490000000 1.0
C      1  0.5225580000000  0.4960100000000  0.3957810000000 1.0
C      1  0.4709860000000  0.6045510000000  0.4790960000000 1.0
C      1  0.5312200000000  0.4058350000000  0.5525880000000 1.0
C      1  0.5911190000000  0.5076400000000  0.4384410000000 1.0
C      1  0.5311580000000  0.5857290000000  0.4367170000000 1.0
C      1  0.5841890000000  0.5361060000000  0.4355820000000 1.0
C      1  0.5079200000000  0.4804530000000  0.6070870000000 1.0
C      1  0.4407500000000  0.5475700000000  0.5674750000000 1.0
C      1  0.5396520000000  0.5443420000000  0.5664230000000 1.0
C      1  0.4635520000000  0.4828060000000  0.5147010000000 1.0
C      1  0.5141140000000  0.4507780000000  0.5583650000000 1.0
C      1  0.5339060000000  0.4975720000000  0.4872030000000 1.0
C      1  0.5950360000000  0.4533130000000  0.5507910000000 1.0
C      1  0.5123160000000  0.5474420000000  0.4989220000000 1.0
C      1  0.5528920000000  0.4125200000000  0.5095360000000 1.0
C      1  0.5130770000000  0.3940970000000  0.5327850000000 1.0
C      1  0.4948750000000  0.5845430000000  0.5597000000000 1.0
C      1  0.4803640000000  0.5195720000000  0.5728210000000 1.0
C      1  0.5723790000000  0.4729010000000  0.4705640000000 1.0
C      1  0.5395900000000  0.4443460000000  0.5950750000000 1.0
C      1  0.4985680000000  0.5162340000000  0.5329350000000 1.0
C      1  0.4821050000000  0.5869490000000  0.4313530000000 1.0
C      1  0.4782020000000  0.5176120000000  0.6034960000000 1.0
C      1  0.4806510000000  0.6068340000000  0.5068390000000 1.0
C      1  0.4809340000000  0.4586610000000  0.4126670000000 1.0
C      1  0.4608350000000  0.3921200000000  0.4778080000000 1.0
C      1  0.4342850000000  0.5702870000000  0.4458980000000 1.0
C      1  0.4511380000000  0.4158300000000  0.4674220000000 1.0
C      1  0.5127010000000  0.5906970000000  0.4813130000000 1.0
C      1  0.5515930000000  0.5692890000000  0.5510200000000 1.0
C      1  0.5189700000000  0.6056960000000  0.4558190000000 1.0
C      1  0.5135550000000  0.4071390000000  0.4341230000000 1.0
C      1  0.4387340000000  0.5194050000000  0.4995730000000 1.0
C      1  0.4219700000000  0.4586880000000  0.5503390000000 1.0
C      1  0.5936850000000  0.4785510000000  0.5645450000000 1.0
C      1  0.4801400000000  0.4850150000000  0.3999020000000 1.0
C      1  0.5669900000000  0.4848250000000  0.5189350000000 1.0
C      1  0.4069940000000  0.5336280000000  0.4553420000000 1.0
C      1  0.4645320000000  0.5711230000000  0.4508280000000 1.0
C      1  0.4631810000000  0.4544290000000  0.5047670000000 1.0
C      1  0.5453290000000  0.5283330000000  0.5221370000000 1.0
C      1  0.5000690000000  0.4887570000000  0.3802460000000 1.0
C      1  0.5487200000000  0.4547500000000  0.4092760000000 1.0
C      1  0.4739540000000  0.5427910000000  0.4454910000000 1.0
C      1  0.4406780000000  0.4188490000000  0.5279150000000 1.0
C      1  0.5392600000000  0.4930340000000  0.4395640000000 1.0
C      1  0.6071200000000  0.5007050000000  0.4864900000000 1.0
C      1  0.5005230000000  0.5709320000000  0.5831630000000 1.0
C      1  0.4485270000000  0.4770420000000  0.4453860000000 1.0
C      1  0.5326300000000  0.4497270000000  0.5338240000000 1.0
C      1  0.4458900000000  0.5405120000000  0.4807660000000 1.0
C      1  0.4998340000000  0.5360600000000  0.4578930000000 1.0
C      1  0.3971250000000  0.5123870000000  0.4721090000000 1.0
C      1  0.4127960000000  0.4672120000000  0.4765820000000 1.0
C      1  0.4812340000000  0.5325370000000  0.4042240000000 1.0
C      1  0.4570730000000  0.4521960000000  0.4297860000000 1.0
C      1  0.4943390000000  0.4515580000000  0.4587980000000 1.0
C      1  0.5714670000000  0.4635860000000  0.4229510000000 1.0
C      1  0.5884360000000  0.4969990000000  0.4649930000000 1.0
C      1  0.4674450000000  0.5858840000000  0.5530980000000 1.0
C      1  0.4192330000000  0.4229030000000  0.5084320000000 1.0
C      1  0.5112930000000  0.4059840000000  0.4827310000000 1.0
C      1  0.5394280000000  0.5537110000000  0.5091050000000 1.0
C      1  0.4830530000000  0.4163490000000  0.5650780000000 1.0
C      1  0.4079520000000  0.5180220000000  0.5004480000000 1.0
C      1  0.5755090000000  0.5669050000000  0.5078210000000 1.0
C      1  0.5578290000000  0.5086010000000  0.5042320000000 1.0
C      1  0.4387150000000  0.5853190000000  0.5116800000000 1.0
C      1  0.4440120000000  0.5231150000000  0.5851500000000 1.0
C      1  0.5093640000000  0.5272610000000  0.6045990000000 1.0
C      1  0.4873190000000  0.5061150000000  0.4209050000000 1.0
C      1  0.5847200000000  0.5554850000000  0.4604340000000 1.0
C      1  0.4004970000000  0.4692120000000  0.5043290000000 1.0
C      1  0.4878750000000  0.5585280000000  0.5136600000000 1.0
C      1  0.5329650000000  0.5766710000000  0.5277850000000 1.0
C      1  0.4276150000000  0.5415740000000  0.5418050000000 1.0
C      1  0.5316390000000  0.4291700000000  0.4498160000000 1.0
C      1  0.5612080000000  0.4269420000000  0.4575520000000 1.0
C      1  0.5083400000000  0.4822500000000  0.4954810000000 1.0
C      1  0.4697790000000  0.4313840000000  0.4480180000000 1.0
C      1  0.5145980000000  0.4552890000000  0.5968450000000 1.0
C      1  0.4343740000000  0.5497960000000  0.4235080000000 1.0
C      1  0.4545460000000  0.5236880000000  0.4564460000000 1.0
C      1  0.5295680000000  0.5263630000000  0.3976000000000 1.0
C      1  0.4882290000000  0.6078840000000  0.4523250000000 1.0
C      1  0.4705470000000  0.5482760000000  0.5606100000000 1.0
C      1  0.5733320000000  0.4925440000000  0.4219590000000 1.0
C      1  0.5437250000000  0.4809980000000  0.4663040000000 1.0
C      1  0.5137060000000  0.5588190000000  0.4729300000000 1.0
C      1  0.4595100000000  0.5505280000000  0.4096330000000 1.0
C      1  0.4440210000000  0.5921600000000  0.4831130000000 1.0
C      1  0.5175450000000  0.5173960000000  0.4389500000000 1.0
C      1  0.5617080000000  0.5281660000000  0.5794600000000 1.0
C      1  0.4717780000000  0.4967540000000  0.4491990000000 1.0
C      1  0.5157020000000  0.4356660000000  0.4771610000000 1.0
C      1  0.4794060000000  0.4874230000000  0.6070970000000 1.0
C      1  0.5074070000000  0.5732160000000  0.4208260000000 1.0
C      1  0.4077570000000  0.4411100000000  0.4650860000000 1.0
C      1  0.4495770000000  0.4961460000000  0.5387900000000 1.0
C      1  0.5607810000000  0.5373000000000  0.4174620000000 1.0
C      1  0.5640220000000  0.4211170000000  0.4851130000000 1.0
C      1  0.5865690000000  0.5281750000000  0.5649270000000 1.0
C      1  0.4530380000000  0.4953130000000  0.4907760000000 1.0
C      1  0.4193910000000  0.5637470000000  0.5220680000000 1.0
C      1  0.4604260000000  0.3974090000000  0.5252500000000 1.0
C      1  0.5499180000000  0.5001850000000  0.5830210000000 1.0
C      1  0.5645210000000  0.4489980000000  0.5838400000000 1.0
C      1  0.4045520000000  0.5508040000000  0.5000840000000 1.0
C      1  0.5505990000000  0.4249930000000  0.5381980000000 1.0
C      1  0.4928740000000  0.4894630000000  0.5209830000000 1.0
C      1  0.5273460000000  0.3974390000000  0.5063660000000 1.0
C      1  0.6086710000000  0.4753450000000  0.4995930000000 1.0
C      1  0.5737260000000  0.4358130000000  0.5583510000000 1.0
C      1  0.4412900000000  0.4381400000000  0.5500920000000 1.0
C      1  0.4033670000000  0.4877130000000  0.4574310000000 1.0
C      1  0.5813470000000  0.4668450000000  0.4996560000000 1.0
C      1  0.4875640000000  0.4455140000000  0.5179320000000 1.0
C      1  0.5194860000000  0.3931230000000  0.4582960000000 1.0
C      1  0.5770210000000  0.4512490000000  0.4499190000000 1.0
C      1  0.4197110000000  0.5549860000000  0.4717050000000 1.0
C      1  0.4763630000000  0.5367300000000  0.5318050000000 1.0
C      1  0.4014930000000  0.4436210000000  0.5164570000000 1.0
C      1  0.4625500000000  0.5932850000000  0.5258570000000 1.0
C      1  0.5361300000000  0.5423760000000  0.4330000000000 1.0
C      1  0.4859020000000  0.4127150000000  0.4325370000000 1.0
C      1  0.4891640000000  0.4795320000000  0.4706050000000 1.0
C      1  0.4292000000000  0.5233340000000  0.4384740000000 1.0
C      1  0.4850930000000  0.4023160000000  0.5394490000000 1.0
C      1  0.5756590000000  0.5665160000000  0.5360230000000 1.0
C      1  0.4480410000000  0.5246920000000  0.5276350000000 1.0
C      1  0.4215340000000  0.4876690000000  0.5470200000000 1.0
C      1  0.4433100000000  0.4706720000000  0.4758500000000 1.0
C      1  0.4263150000000  0.4991540000000  0.5772820000000 1.0
C      1  0.5732670000000  0.4772920000000  0.5859890000000 1.0
C      1  0.5914040000000  0.5043680000000  0.5502750000000 1.0
C      1  0.4255130000000  0.4246570000000  0.4793980000000 1.0
C      1  0.5050710000000  0.4581230000000  0.4299630000000 1.0
C      1  0.4034320000000  0.4938470000000  0.5205980000000 1.0
C      1  0.5139120000000  0.4524970000000  0.5049590000000 1.0
C      1  0.5351530000000  0.4950320000000  0.5566380000000 1.0
C      1  0.5272790000000  0.5213630000000  0.5443780000000 1.0
C      1  0.5286090000000  0.4743400000000  0.4180300000000 1.0
C      1  0.5911660000000  0.5209700000000  0.5022880000000 1.0
C      1  0.5890760000000  0.5487960000000  0.4899480000000 1.0
C      1  0.5120600000000  0.4216440000000  0.5691320000000 1.0
C      1  0.4670890000000  0.5622090000000  0.4881560000000 1.0
C      1  0.5063980000000  0.5474460000000  0.4014740000000 1.0
C      1  0.4340810000000  0.4766180000000  0.5923310000000 1.0
END
