TITL C-950536-5891-584 -1.61430952195752e-06 125000 -610.765615396832 0 0 100 (C1) n - 1
REM
REM in /home/bkarasulu/work/CARBON/AIRSS/Generating-Clusters/EDIP-Nigel-Params/with-SteepDescent/Only-C1/SD-CG/HFTN-CG
REM
REM
REM
REM
REM
REM ./C.cell (11c1c37f851c82e70ff6c80c92926a4b)
REM
REM compiler GCC version 9.2.1 20190827 (Red Hat 9.2.1-1)
REM options -cpp -mtune=generic -march=x86-64 -g -O0 -fpre-include=/usr/include/finclude/math-vector-fortran.h
REM seed 1016386601 1434562794 -1427654326 -1601475619 -22339760 -2009531294 -144509610 86214142 -270085900 2129790941 -993778113 1751093033 -2054348148 -993119728 -1066910410 -1680383766 -980828979 -820956218 1797241128 235119856 -150417086 82919425 178630537 1286108407 303387834 917043256 1897122141 1203362278 -43963374 1629170208 -1323017478 -1199703017 326127891
REM
CELL 1.54180   50.00000   50.00000   50.00000   90.00000   90.00000   90.00000
LATT -1
SFAC C  
C      1  0.4447660000000  0.5411330000000  0.4764610000000 1.0
C      1  0.5177780000000  0.5533520000000  0.5320690000000 1.0
C      1  0.5336600000000  0.5513640000000  0.4373360000000 1.0
C      1  0.5131460000000  0.5350550000000  0.5560010000000 1.0
C      1  0.5000240000000  0.4725850000000  0.4215390000000 1.0
C      1  0.4499680000000  0.5549730000000  0.5261060000000 1.0
C      1  0.5541370000000  0.4953720000000  0.4469530000000 1.0
C      1  0.5748830000000  0.4886830000000  0.5356770000000 1.0
C      1  0.4518670000000  0.4199580000000  0.5173400000000 1.0
C      1  0.4997420000000  0.5757810000000  0.5314500000000 1.0
C      1  0.4912690000000  0.4394900000000  0.5621620000000 1.0
C      1  0.5666620000000  0.6093190000000  0.4699760000000 1.0
C      1  0.4910260000000  0.4791040000000  0.5260630000000 1.0
C      1  0.4170690000000  0.5385720000000  0.5123690000000 1.0
C      1  0.5185910000000  0.4737310000000  0.5834640000000 1.0
C      1  0.4914740000000  0.5197850000000  0.4135680000000 1.0
C      1  0.5163320000000  0.4127190000000  0.4985250000000 1.0
C      1  0.5717380000000  0.5177390000000  0.4375850000000 1.0
C      1  0.4907280000000  0.4798780000000  0.5905300000000 1.0
C      1  0.5730520000000  0.5841550000000  0.4774140000000 1.0
C      1  0.5354970000000  0.5798370000000  0.4449940000000 1.0
C      1  0.5705450000000  0.5332760000000  0.5498840000000 1.0
C      1  0.4881740000000  0.5478880000000  0.5691850000000 1.0
C      1  0.5200850000000  0.4480290000000  0.5673110000000 1.0
C      1  0.4856180000000  0.4310710000000  0.5325740000000 1.0
C      1  0.4470400000000  0.4648540000000  0.5708300000000 1.0
C      1  0.4645960000000  0.4932650000000  0.4686860000000 1.0
C      1  0.4604180000000  0.4727210000000  0.5231450000000 1.0
C      1  0.5230900000000  0.5347330000000  0.4603790000000 1.0
C      1  0.5605730000000  0.5372750000000  0.5743320000000 1.0
C      1  0.5670950000000  0.5160030000000  0.5274520000000 1.0
C      1  0.4210190000000  0.4694710000000  0.4756060000000 1.0
C      1  0.4778280000000  0.5688930000000  0.5500180000000 1.0
C      1  0.5873810000000  0.5270320000000  0.4597940000000 1.0
C      1  0.5067860000000  0.4405430000000  0.4897900000000 1.0
C      1  0.4097560000000  0.5180260000000  0.4924410000000 1.0
C      1  0.4332870000000  0.4396180000000  0.5058450000000 1.0
C      1  0.5140230000000  0.4518790000000  0.4358920000000 1.0
C      1  0.5157100000000  0.4838520000000  0.4666090000000 1.0
C      1  0.4760790000000  0.4625430000000  0.5734490000000 1.0
C      1  0.4258670000000  0.4999160000000  0.5435720000000 1.0
C      1  0.5417280000000  0.4519150000000  0.5464630000000 1.0
C      1  0.5359110000000  0.5248830000000  0.5762160000000 1.0
C      1  0.4684370000000  0.4327930000000  0.4555780000000 1.0
C      1  0.4908500000000  0.5445310000000  0.4280470000000 1.0
C      1  0.4695050000000  0.4102700000000  0.4976420000000 1.0
C      1  0.5566640000000  0.4675150000000  0.4610170000000 1.0
C      1  0.4122560000000  0.4811530000000  0.5243670000000 1.0
C      1  0.5338650000000  0.5511590000000  0.5084270000000 1.0
C      1  0.4523520000000  0.5197840000000  0.4352460000000 1.0
C      1  0.4758660000000  0.4359890000000  0.4832920000000 1.0
C      1  0.4814770000000  0.5264210000000  0.4973300000000 1.0
C      1  0.4319130000000  0.4885400000000  0.5689630000000 1.0
C      1  0.5164900000000  0.5866580000000  0.4646400000000 1.0
C      1  0.5117270000000  0.4997230000000  0.4213620000000 1.0
C      1  0.5715790000000  0.4641460000000  0.4865290000000 1.0
C      1  0.4931980000000  0.4007660000000  0.5103770000000 1.0
C      1  0.4425420000000  0.4494650000000  0.5479040000000 1.0
C      1  0.4822100000000  0.5063860000000  0.5900360000000 1.0
C      1  0.4730050000000  0.5159790000000  0.5421110000000 1.0
C      1  0.5254740000000  0.5048830000000  0.4472230000000 1.0
C      1  0.5264140000000  0.4988030000000  0.4971860000000 1.0
C      1  0.4537600000000  0.4593780000000  0.4946050000000 1.0
C      1  0.5947010000000  0.4785510000000  0.4972290000000 1.0
C      1  0.5354630000000  0.5144010000000  0.5207120000000 1.0
C      1  0.4171830000000  0.4824850000000  0.4477040000000 1.0
C      1  0.4511850000000  0.5020170000000  0.5251870000000 1.0
C      1  0.4724910000000  0.5237260000000  0.5704530000000 1.0
C      1  0.5336840000000  0.4941370000000  0.5665490000000 1.0
C      1  0.4526970000000  0.4767600000000  0.4457300000000 1.0
C      1  0.5724480000000  0.5399610000000  0.4818880000000 1.0
C      1  0.4191120000000  0.5293850000000  0.4668590000000 1.0
C      1  0.4171480000000  0.4900170000000  0.4970300000000 1.0
C      1  0.4459620000000  0.4492990000000  0.4535330000000 1.0
C      1  0.5661630000000  0.4432700000000  0.5039650000000 1.0
C      1  0.4965930000000  0.5737410000000  0.4790200000000 1.0
C      1  0.5525640000000  0.4333690000000  0.5261110000000 1.0
C      1  0.4964220000000  0.4989400000000  0.5032020000000 1.0
C      1  0.4654870000000  0.5056570000000  0.4133580000000 1.0
C      1  0.5555070000000  0.4767470000000  0.5535120000000 1.0
C      1  0.5852530000000  0.5258850000000  0.5043680000000 1.0
C      1  0.4355350000000  0.5578420000000  0.5001010000000 1.0
C      1  0.4767310000000  0.5392810000000  0.5247450000000 1.0
C      1  0.4669150000000  0.5443280000000  0.4444100000000 1.0
C      1  0.4930550000000  0.5823580000000  0.5052480000000 1.0
C      1  0.5265110000000  0.4559860000000  0.4619600000000 1.0
C      1  0.4882880000000  0.4829430000000  0.4795170000000 1.0
C      1  0.5152600000000  0.5041930000000  0.5431300000000 1.0
C      1  0.4538060000000  0.5135220000000  0.4898490000000 1.0
C      1  0.5569420000000  0.5394140000000  0.4267810000000 1.0
C      1  0.5997380000000  0.5056570000000  0.4890430000000 1.0
C      1  0.5017310000000  0.4521730000000  0.5179850000000 1.0
C      1  0.5368870000000  0.4124790000000  0.5172630000000 1.0
C      1  0.5975000000000  0.4751900000000  0.5252180000000 1.0
C      1  0.4935320000000  0.5444860000000  0.4718810000000 1.0
C      1  0.4250160000000  0.5114870000000  0.4440820000000 1.0
C      1  0.5633420000000  0.5884800000000  0.4504940000000 1.0
C      1  0.4208030000000  0.4527070000000  0.5292060000000 1.0
C      1  0.4699410000000  0.4767570000000  0.4195290000000 1.0
C      1  0.5428000000000  0.5377580000000  0.4842100000000 1.0
END
