TITL C-951343-2256-67 -8.68327042801284e-07 125000 -709.780282731687 0 0 115 (C1) n - 1
REM
REM in /home/bkarasulu/work/CARBON/AIRSS/Generating-Clusters/EDIP-Nigel-Params/with-SteepDescent/Only-C1/SD-CG/HFTN-CG
REM
REM
REM
REM
REM
REM ./C.cell (11c1c37f851c82e70ff6c80c92926a4b)
REM
REM compiler GCC version 9.2.1 20190827 (Red Hat 9.2.1-1)
REM options -cpp -mtune=generic -march=x86-64 -g -O0 -fpre-include=/usr/include/finclude/math-vector-fortran.h
REM seed -1403355804 851245005 196595899 -306150311 -1644455274 -1416360445 64181098 -1894667802 1207172268 2109431917 2023823832 1985963501 -2130470407 156905065 418981203 -712642414 -1024550428 1863083770 22631401 -1429700102 107048941 -1466151699 -551751140 1177528660 -1747234895 -212749583 -1199639580 -1934500944 -1221086114 1417498968 2017067419 -1335246016 1468868823
REM
CELL 1.54180   50.00000   50.00000   50.00000   90.00000   90.00000   90.00000
LATT -1
SFAC C  
C      1  0.4647590000000  0.5650860000000  0.5458030000000 1.0
C      1  0.5045630000000  0.4767060000000  0.5610010000000 1.0
C      1  0.4926830000000  0.5295370000000  0.5644340000000 1.0
C      1  0.4576860000000  0.4152830000000  0.4841890000000 1.0
C      1  0.4284190000000  0.4347810000000  0.5175860000000 1.0
C      1  0.5549910000000  0.4268950000000  0.4719630000000 1.0
C      1  0.5775710000000  0.5158390000000  0.5762270000000 1.0
C      1  0.5201950000000  0.4102880000000  0.5433170000000 1.0
C      1  0.4682130000000  0.5176090000000  0.4203980000000 1.0
C      1  0.4984030000000  0.4746930000000  0.4617840000000 1.0
C      1  0.4946610000000  0.3993800000000  0.5362930000000 1.0
C      1  0.4992690000000  0.5362290000000  0.4693880000000 1.0
C      1  0.5139330000000  0.4921620000000  0.5208470000000 1.0
C      1  0.4198830000000  0.5134410000000  0.4205640000000 1.0
C      1  0.4518980000000  0.5198660000000  0.5740440000000 1.0
C      1  0.5377200000000  0.5105440000000  0.4891400000000 1.0
C      1  0.4851280000000  0.4039620000000  0.4779790000000 1.0
C      1  0.5939110000000  0.5138490000000  0.5291390000000 1.0
C      1  0.4508030000000  0.4981630000000  0.4687360000000 1.0
C      1  0.5466070000000  0.4858200000000  0.5958940000000 1.0
C      1  0.5419020000000  0.5168540000000  0.4242110000000 1.0
C      1  0.4870170000000  0.4374330000000  0.5730780000000 1.0
C      1  0.5694260000000  0.4490420000000  0.5159070000000 1.0
C      1  0.5585110000000  0.5472600000000  0.5214540000000 1.0
C      1  0.5401950000000  0.4471890000000  0.4575930000000 1.0
C      1  0.5358300000000  0.5924820000000  0.5023150000000 1.0
C      1  0.5271540000000  0.4389420000000  0.5447620000000 1.0
C      1  0.5307310000000  0.4410540000000  0.4302470000000 1.0
C      1  0.5116110000000  0.5094770000000  0.4742670000000 1.0
C      1  0.5299700000000  0.4685120000000  0.4168260000000 1.0
C      1  0.5165860000000  0.5220290000000  0.4098740000000 1.0
C      1  0.4773600000000  0.5503870000000  0.4182180000000 1.0
C      1  0.5868490000000  0.5345560000000  0.5088180000000 1.0
C      1  0.5145100000000  0.5788050000000  0.5447830000000 1.0
C      1  0.5349650000000  0.5550390000000  0.5468960000000 1.0
C      1  0.5610990000000  0.5694350000000  0.4739390000000 1.0
C      1  0.5169970000000  0.4553760000000  0.4738480000000 1.0
C      1  0.5004950000000  0.4758720000000  0.4138270000000 1.0
C      1  0.5329430000000  0.5959580000000  0.4724940000000 1.0
C      1  0.5077040000000  0.5502120000000  0.4149340000000 1.0
C      1  0.5263980000000  0.5614910000000  0.4358870000000 1.0
C      1  0.4915800000000  0.5749820000000  0.5022550000000 1.0
C      1  0.4399280000000  0.5092530000000  0.5256750000000 1.0
C      1  0.4888650000000  0.4594100000000  0.4356960000000 1.0
C      1  0.4699600000000  0.5597110000000  0.5169610000000 1.0
C      1  0.4486190000000  0.4460420000000  0.4629910000000 1.0
C      1  0.4775470000000  0.4914580000000  0.4799790000000 1.0
C      1  0.4002810000000  0.5002580000000  0.4880160000000 1.0
C      1  0.5101900000000  0.5920710000000  0.5184490000000 1.0
C      1  0.4464170000000  0.5677000000000  0.5007710000000 1.0
C      1  0.4209560000000  0.4617950000000  0.5167880000000 1.0
C      1  0.5143410000000  0.5765190000000  0.4595540000000 1.0
C      1  0.5106580000000  0.5535880000000  0.4907040000000 1.0
C      1  0.4891270000000  0.5733250000000  0.5601400000000 1.0
C      1  0.4596770000000  0.4553230000000  0.4364420000000 1.0
C      1  0.4444430000000  0.5013180000000  0.4087770000000 1.0
C      1  0.5738960000000  0.5226050000000  0.4819140000000 1.0
C      1  0.4915060000000  0.5546280000000  0.5800820000000 1.0
C      1  0.5733420000000  0.4770690000000  0.5033580000000 1.0
C      1  0.4243610000000  0.4631000000000  0.4663940000000 1.0
C      1  0.5458490000000  0.4889710000000  0.4322460000000 1.0
C      1  0.5164030000000  0.5300390000000  0.5437410000000 1.0
C      1  0.5475600000000  0.5555900000000  0.5728610000000 1.0
C      1  0.5667210000000  0.5442490000000  0.4611300000000 1.0
C      1  0.5568540000000  0.4816240000000  0.5496480000000 1.0
C      1  0.5121720000000  0.4533040000000  0.5226520000000 1.0
C      1  0.4660200000000  0.4425800000000  0.5550500000000 1.0
C      1  0.5034470000000  0.5126460000000  0.5870590000000 1.0
C      1  0.4527410000000  0.4705000000000  0.5554150000000 1.0
C      1  0.4951910000000  0.5040410000000  0.4177240000000 1.0
C      1  0.5332980000000  0.4083230000000  0.4975530000000 1.0
C      1  0.5279350000000  0.4946860000000  0.5491590000000 1.0
C      1  0.4706480000000  0.5421350000000  0.4629140000000 1.0
C      1  0.4962080000000  0.4127790000000  0.4537740000000 1.0
C      1  0.4238160000000  0.4832420000000  0.4449910000000 1.0
C      1  0.4734790000000  0.5884710000000  0.4827770000000 1.0
C      1  0.5658010000000  0.4825880000000  0.4514490000000 1.0
C      1  0.5061100000000  0.5296920000000  0.5129150000000 1.0
C      1  0.5506240000000  0.5669620000000  0.5004950000000 1.0
C      1  0.4135060000000  0.4739960000000  0.4909390000000 1.0
C      1  0.4080090000000  0.5209190000000  0.4688350000000 1.0
C      1  0.5483000000000  0.4344760000000  0.4999280000000 1.0
C      1  0.5758620000000  0.4917520000000  0.4764570000000 1.0
C      1  0.4914610000000  0.4356210000000  0.5111320000000 1.0
C      1  0.4715840000000  0.4755170000000  0.5033740000000 1.0
C      1  0.4365150000000  0.5113510000000  0.4932460000000 1.0
C      1  0.4268800000000  0.5350010000000  0.5353330000000 1.0
C      1  0.4854460000000  0.5861740000000  0.4561260000000 1.0
C      1  0.4489900000000  0.4166910000000  0.5131640000000 1.0
C      1  0.4613790000000  0.4923940000000  0.5741930000000 1.0
C      1  0.4257090000000  0.5547750000000  0.5148570000000 1.0
C      1  0.4762090000000  0.4491980000000  0.4895100000000 1.0
C      1  0.5952780000000  0.5222640000000  0.5555320000000 1.0
C      1  0.5329410000000  0.5102080000000  0.5902640000000 1.0
C      1  0.4451930000000  0.5428520000000  0.5574120000000 1.0
C      1  0.4320140000000  0.4807700000000  0.5366030000000 1.0
C      1  0.4775000000000  0.5312780000000  0.5145150000000 1.0
C      1  0.4256150000000  0.5272840000000  0.4455620000000 1.0
C      1  0.4681800000000  0.5649070000000  0.4436760000000 1.0
C      1  0.5117130000000  0.4493350000000  0.5673300000000 1.0
C      1  0.5563200000000  0.4515280000000  0.5431540000000 1.0
C      1  0.5479100000000  0.5168720000000  0.5163220000000 1.0
C      1  0.4889450000000  0.4883060000000  0.5834100000000 1.0
C      1  0.4409470000000  0.4743640000000  0.4229590000000 1.0
C      1  0.5020210000000  0.4320910000000  0.4338400000000 1.0
C      1  0.5289500000000  0.4568320000000  0.4995200000000 1.0
C      1  0.5033800000000  0.4078630000000  0.5019710000000 1.0
C      1  0.5685510000000  0.4875810000000  0.5771780000000 1.0
C      1  0.4721450000000  0.4226500000000  0.5317330000000 1.0
C      1  0.5517000000000  0.5288130000000  0.5786210000000 1.0
C      1  0.4705860000000  0.5130600000000  0.5360710000000 1.0
C      1  0.4842350000000  0.4858360000000  0.5288900000000 1.0
C      1  0.5693950000000  0.4968500000000  0.5252870000000 1.0
C      1  0.5452060000000  0.5396610000000  0.4420630000000 1.0
C      1  0.4553030000000  0.5208150000000  0.4495870000000 1.0
END
