TITL C-950525-1983-154 7.16771375529665e-08 125000 -302.851597405224 0 0 50 (C1) n - 1
REM
REM in /home/bkarasulu/work/CARBON/AIRSS/Generating-Clusters/EDIP-Nigel-Params/with-SteepDescent/Only-C1/SD-CG/HFTN-CG
REM
REM
REM
REM
REM
REM ./C.cell (11c1c37f851c82e70ff6c80c92926a4b)
REM
REM compiler GCC version 9.2.1 20190827 (Red Hat 9.2.1-1)
REM options -cpp -mtune=generic -march=x86-64 -g -O0 -fpre-include=/usr/include/finclude/math-vector-fortran.h
REM seed -222053848 -1215242147 2087768842 -1979753777 429470595 -1157044549 544967907 81005431 -890255387 -838298341 -1657974941 -1918470255 -251553684 -195737314 2059778925 -1249938470 882901403 512139489 -694509944 1929524202 -2126840525 -1918665054 1610567556 509271143 -19184762 1613313980 1238672799 1484310952 -383077283 -7170003 455322840 -88171114 -689040199
REM
CELL 1.54180   50.00000   50.00000   50.00000   90.00000   90.00000   90.00000
LATT -1
SFAC C  
C      1  0.4429010000000  0.4739420000000  0.4663220000000 1.0
C      1  0.4455070000000  0.4568310000000  0.5135380000000 1.0
C      1  0.4617750000000  0.4521190000000  0.4605160000000 1.0
C      1  0.5433360000000  0.5140870000000  0.4744850000000 1.0
C      1  0.5529470000000  0.4871000000000  0.4684380000000 1.0
C      1  0.4938900000000  0.4857570000000  0.4395540000000 1.0
C      1  0.4909850000000  0.5363050000000  0.4809460000000 1.0
C      1  0.5209370000000  0.4913560000000  0.4298370000000 1.0
C      1  0.4849050000000  0.4579320000000  0.4437440000000 1.0
C      1  0.5520960000000  0.5239700000000  0.5497970000000 1.0
C      1  0.4611780000000  0.5058070000000  0.5744390000000 1.0
C      1  0.4885920000000  0.5051750000000  0.5229890000000 1.0
C      1  0.4866420000000  0.5322240000000  0.4519610000000 1.0
C      1  0.5297150000000  0.5313450000000  0.5647250000000 1.0
C      1  0.5286740000000  0.5183760000000  0.4290600000000 1.0
C      1  0.4592630000000  0.4909320000000  0.5253310000000 1.0
C      1  0.5059470000000  0.4398470000000  0.4441140000000 1.0
C      1  0.5378440000000  0.5314580000000  0.4520000000000 1.0
C      1  0.5441630000000  0.4791140000000  0.5536180000000 1.0
C      1  0.4856270000000  0.5146000000000  0.5808330000000 1.0
C      1  0.5398910000000  0.4593750000000  0.4774020000000 1.0
C      1  0.4828450000000  0.5322710000000  0.5316410000000 1.0
C      1  0.5272630000000  0.5565290000000  0.4589460000000 1.0
C      1  0.5171860000000  0.4794680000000  0.5212930000000 1.0
C      1  0.4646830000000  0.5494240000000  0.5208190000000 1.0
C      1  0.4314450000000  0.4750290000000  0.4951240000000 1.0
C      1  0.4513480000000  0.4940780000000  0.5525450000000 1.0
C      1  0.5248670000000  0.5609100000000  0.5317110000000 1.0
C      1  0.5552130000000  0.5122040000000  0.5243600000000 1.0
C      1  0.4641230000000  0.5435750000000  0.4931440000000 1.0
C      1  0.4587520000000  0.4994810000000  0.4669080000000 1.0
C      1  0.5442130000000  0.5260390000000  0.5012230000000 1.0
C      1  0.5104400000000  0.5101120000000  0.5691700000000 1.0
C      1  0.5006340000000  0.4637620000000  0.5563650000000 1.0
C      1  0.5318740000000  0.5523160000000  0.5057840000000 1.0
C      1  0.4747710000000  0.5081760000000  0.4428930000000 1.0
C      1  0.5191130000000  0.4826410000000  0.5655600000000 1.0
C      1  0.5206470000000  0.5569990000000  0.5582610000000 1.0
C      1  0.4890730000000  0.4511740000000  0.5353240000000 1.0
C      1  0.4821300000000  0.4888780000000  0.4821890000000 1.0
C      1  0.5325390000000  0.4455490000000  0.4499840000000 1.0
C      1  0.4980170000000  0.5090840000000  0.4947660000000 1.0
C      1  0.4735190000000  0.4517300000000  0.5120550000000 1.0
C      1  0.4364530000000  0.5032700000000  0.5069340000000 1.0
C      1  0.5429160000000  0.4739400000000  0.4413240000000 1.0
C      1  0.5160430000000  0.4622880000000  0.4962210000000 1.0
C      1  0.4875830000000  0.4597730000000  0.4871540000000 1.0
C      1  0.5131450000000  0.5579400000000  0.4835190000000 1.0
C      1  0.5468800000000  0.4844710000000  0.5264980000000 1.0
C      1  0.4454680000000  0.5212380000000  0.4846370000000 1.0
END
