TITL C-950527-2551-126 8.85618433803586e-08 125000 -487.979107606871 0 0 79 (C1) n - 1
REM
REM in /home/bkarasulu/work/CARBON/AIRSS/Generating-Clusters/EDIP-Nigel-Params/with-SteepDescent/Only-C1/SD-CG/HFTN-CG
REM
REM
REM
REM
REM
REM ./C.cell (11c1c37f851c82e70ff6c80c92926a4b)
REM
REM compiler GCC version 9.2.1 20190827 (Red Hat 9.2.1-1)
REM options -cpp -mtune=generic -march=x86-64 -g -O0 -fpre-include=/usr/include/finclude/math-vector-fortran.h
REM seed -954613053 303771034 789064133 -1435114831 1851116095 1560572110 -254437477 -197756740 -542912366 -1579153288 696894596 -383327797 1420400326 -457272369 316826527 -1243899866 592830444 504773295 1576073803 1809345053 178176590 -900019511 1000449858 1235661194 -1541962155 -942213267 -152992810 -1771190382 -428187821 -1064533562 -1260563593 -537969692 1500895867
REM
CELL 1.54180   50.00000   50.00000   50.00000   90.00000   90.00000   90.00000
LATT -1
SFAC C  
C      1  0.4409250000000  0.4910650000000  0.5399400000000 1.0
C      1  0.5580330000000  0.5531470000000  0.5266010000000 1.0
C      1  0.4678090000000  0.4449520000000  0.5411120000000 1.0
C      1  0.4430580000000  0.5232490000000  0.4822710000000 1.0
C      1  0.5374860000000  0.4543510000000  0.4512490000000 1.0
C      1  0.4938130000000  0.4930150000000  0.4045970000000 1.0
C      1  0.5038700000000  0.4329420000000  0.4799070000000 1.0
C      1  0.4570530000000  0.5126130000000  0.5267050000000 1.0
C      1  0.5809510000000  0.5358900000000  0.5235260000000 1.0
C      1  0.5616660000000  0.4918710000000  0.4675980000000 1.0
C      1  0.5328150000000  0.4875040000000  0.5266930000000 1.0
C      1  0.4994930000000  0.5205060000000  0.5501560000000 1.0
C      1  0.5449430000000  0.5565830000000  0.4797660000000 1.0
C      1  0.5229600000000  0.4866150000000  0.4981390000000 1.0
C      1  0.5030500000000  0.5802350000000  0.4658580000000 1.0
C      1  0.5033090000000  0.4908220000000  0.5432570000000 1.0
C      1  0.4713900000000  0.5133690000000  0.4797020000000 1.0
C      1  0.4324310000000  0.4735990000000  0.4907420000000 1.0
C      1  0.5276870000000  0.4454040000000  0.5394330000000 1.0
C      1  0.5041600000000  0.5345910000000  0.5002010000000 1.0
C      1  0.5420720000000  0.5181680000000  0.5319780000000 1.0
C      1  0.5838420000000  0.5154630000000  0.5450490000000 1.0
C      1  0.4553850000000  0.5574900000000  0.5140830000000 1.0
C      1  0.4524890000000  0.4838480000000  0.4323040000000 1.0
C      1  0.5681130000000  0.4677370000000  0.5449690000000 1.0
C      1  0.4401570000000  0.5322080000000  0.5109290000000 1.0
C      1  0.4767840000000  0.5013080000000  0.5054940000000 1.0
C      1  0.4310680000000  0.4712410000000  0.5204470000000 1.0
C      1  0.5425400000000  0.5018210000000  0.4456750000000 1.0
C      1  0.5112130000000  0.4397620000000  0.4530070000000 1.0
C      1  0.4861060000000  0.5147120000000  0.4526660000000 1.0
C      1  0.4367650000000  0.5293780000000  0.4374940000000 1.0
C      1  0.5660060000000  0.4911090000000  0.5073250000000 1.0
C      1  0.5729740000000  0.5189630000000  0.5004380000000 1.0
C      1  0.5156510000000  0.5356170000000  0.5297580000000 1.0
C      1  0.4790290000000  0.5565400000000  0.4944230000000 1.0
C      1  0.5524250000000  0.5272010000000  0.4808210000000 1.0
C      1  0.4621430000000  0.4576440000000  0.4403520000000 1.0
C      1  0.4638100000000  0.5294050000000  0.4239280000000 1.0
C      1  0.4303610000000  0.5000060000000  0.4448050000000 1.0
C      1  0.5583530000000  0.4498920000000  0.4989430000000 1.0
C      1  0.5529820000000  0.4641880000000  0.4747670000000 1.0
C      1  0.5111210000000  0.5259030000000  0.5757790000000 1.0
C      1  0.4865100000000  0.4519290000000  0.4928750000000 1.0
C      1  0.5167080000000  0.5639220000000  0.5390180000000 1.0
C      1  0.4410530000000  0.4445340000000  0.5281400000000 1.0
C      1  0.4457590000000  0.4412130000000  0.4555880000000 1.0
C      1  0.5256960000000  0.4595740000000  0.5651370000000 1.0
C      1  0.5235110000000  0.5141390000000  0.4861320000000 1.0
C      1  0.5186980000000  0.5832560000000  0.5150240000000 1.0
C      1  0.4512690000000  0.4796420000000  0.5638630000000 1.0
C      1  0.5169790000000  0.5175750000000  0.4565040000000 1.0
C      1  0.4691070000000  0.5597490000000  0.4633640000000 1.0
C      1  0.4911340000000  0.4547390000000  0.4366010000000 1.0
C      1  0.4994490000000  0.4743170000000  0.5683210000000 1.0
C      1  0.5175480000000  0.5545100000000  0.4688110000000 1.0
C      1  0.4407550000000  0.5458030000000  0.4624030000000 1.0
C      1  0.5456660000000  0.5695490000000  0.5060180000000 1.0
C      1  0.4433800000000  0.4287910000000  0.5026430000000 1.0
C      1  0.4714440000000  0.5289360000000  0.5473910000000 1.0
C      1  0.4743210000000  0.4239260000000  0.5029810000000 1.0
C      1  0.5538840000000  0.4487670000000  0.5271550000000 1.0
C      1  0.4334770000000  0.4461410000000  0.4802070000000 1.0
C      1  0.5333360000000  0.4768880000000  0.4319340000000 1.0
C      1  0.4675220000000  0.5579250000000  0.5411050000000 1.0
C      1  0.4691080000000  0.5009990000000  0.4154950000000 1.0
C      1  0.4837720000000  0.5433870000000  0.4427850000000 1.0
C      1  0.5111100000000  0.4235190000000  0.5357400000000 1.0
C      1  0.5371760000000  0.5244150000000  0.5819910000000 1.0
C      1  0.5509580000000  0.5092470000000  0.5617840000000 1.0
C      1  0.4952680000000  0.5824490000000  0.4942270000000 1.0
C      1  0.4259750000000  0.4984900000000  0.4751000000000 1.0
C      1  0.4836430000000  0.4222840000000  0.5319210000000 1.0
C      1  0.5501370000000  0.4781880000000  0.5661690000000 1.0
C      1  0.4722690000000  0.4606210000000  0.5655890000000 1.0
C      1  0.5051530000000  0.4766180000000  0.4240760000000 1.0
C      1  0.4953960000000  0.4778620000000  0.5075690000000 1.0
C      1  0.4910800000000  0.5752100000000  0.5419550000000 1.0
C      1  0.5834560000000  0.4889600000000  0.5314950000000 1.0
END
