TITL C-951333-8791-489 -1.06951798424709 125000 -176.881632103885 0 0 31 (C1) n - 1
REM
REM in /home/bkarasulu/work/CARBON/AIRSS/Generating-Clusters/EDIP-Nigel-Params/with-SteepDescent/Only-C1/SD-CG/HFTN-CG
REM
REM
REM
REM
REM
REM ./C.cell (11c1c37f851c82e70ff6c80c92926a4b)
REM
REM compiler GCC version 9.2.1 20190827 (Red Hat 9.2.1-1)
REM options -cpp -mtune=generic -march=x86-64 -g -O0 -fpre-include=/usr/include/finclude/math-vector-fortran.h
REM seed 1048427171 -2054567834 1488337474 -803845719 1039936585 2117281027 -184393222 158735561 1333888993 733878262 -690293526 1551159335 671088121 423588133 -1122117415 -1232326242 559130924 1254789375 -377159893 1961956564 430072993 336954108 -1195678435 -42080563 -1321466693 -571616459 1040103010 188525083 -572473007 -1797206168 149485367 1561702958 -1614341353
REM
CELL 1.54180   50.00000   50.00000   50.00000   90.00000   90.00000   90.00000
LATT -1
SFAC C  
C      1  0.5562360000000  0.6121940000000  0.6254610000000 1.0
C      1  0.5470710000000  0.4754380000000  0.4350910000000 1.0
C      1  0.5750990000000  0.5956140000000  0.6123070000000 1.0
C      1  0.4941020000000  0.4716170000000  0.4589900000000 1.0
C      1  0.4721260000000  0.5170230000000  0.5442650000000 1.0
C      1  0.3996650000000  0.4580350000000  0.4883680000000 1.0
C      1  0.4024990000000  0.4448290000000  0.4420500000000 1.0
C      1  0.5558530000000  0.5349010000000  0.5258250000000 1.0
C      1  0.4153440000000  0.4479690000000  0.4675710000000 1.0
C      1  0.4955360000000  0.4578830000000  0.4361630000000 1.0
C      1  0.5643250000000  0.5650620000000  0.5695500000000 1.0
C      1  0.4818960000000  0.4814060000000  0.4815390000000 1.0
C      1  0.5434850000000  0.5026650000000  0.4809450000000 1.0
C      1  0.4146250000000  0.4729900000000  0.5051700000000 1.0
C      1  0.4545560000000  0.4743220000000  0.4855560000000 1.0
C      1  0.5598500000000  0.5501950000000  0.5481750000000 1.0
C      1  0.5225000000000  0.5071460000000  0.4999900000000 1.0
C      1  0.3843370000000  0.4239750000000  0.4356920000000 1.0
C      1  0.4412070000000  0.4582710000000  0.4673140000000 1.0
C      1  0.4397300000000  0.4828710000000  0.5075720000000 1.0
C      1  0.5105890000000  0.4502320000000  0.4153490000000 1.0
C      1  0.5312610000000  0.5231630000000  0.5208150000000 1.0
C      1  0.4084140000000  0.4241440000000  0.4235470000000 1.0
C      1  0.5674670000000  0.5796360000000  0.5913780000000 1.0
C      1  0.5416440000000  0.4877940000000  0.4580100000000 1.0
C      1  0.5673450000000  0.5150560000000  0.4874150000000 1.0
C      1  0.5656190000000  0.5905730000000  0.6385460000000 1.0
C      1  0.4952300000000  0.4980260000000  0.5007200000000 1.0
C      1  0.4805150000000  0.5063780000000  0.5224280000000 1.0
C      1  0.5762980000000  0.5306720000000  0.5074870000000 1.0
C      1  0.5355750000000  0.4599170000000  0.4167080000000 1.0
END
