TITL C-951339-9237-164 0.000431811347060309 125000 -85.4367028455464 0 0 16 (C1) n - 1
REM
REM in /home/bkarasulu/work/CARBON/AIRSS/Generating-Clusters/EDIP-Nigel-Params/with-SteepDescent/Only-C1/SD-CG/HFTN-CG
REM
REM
REM
REM
REM
REM ./C.cell (11c1c37f851c82e70ff6c80c92926a4b)
REM
REM compiler GCC version 9.2.1 20190827 (Red Hat 9.2.1-1)
REM options -cpp -mtune=generic -march=x86-64 -g -O0 -fpre-include=/usr/include/finclude/math-vector-fortran.h
REM seed 987923173 2116710401 269769153 -985538921 34924668 597410209 104939477 -1211189764 2128904216 -1353853986 -132171551 -1059765952 -254031951 1949549670 -1090861934 -1207511085 1806362412 884784911 500283486 -732615910 -1153832790 -329075944 -1481067213 -503742573 -1478099554 195403182 -453567258 1937535592 1347452772 -1678315413 921918840 542402427 765762762
REM
CELL 1.54180   50.00000   50.00000   50.00000   90.00000   90.00000   90.00000
LATT -1
SFAC C  
C      1  0.4801500000000  0.5639910000000  0.4439550000000 1.0
C      1  0.5095450000000  0.5520480000000  0.5095300000000 1.0
C      1  0.5372340000000  0.4859880000000  0.4885450000000 1.0
C      1  0.5188740000000  0.5047410000000  0.4985240000000 1.0
C      1  0.5164310000000  0.4677680000000  0.5241860000000 1.0
C      1  0.4951780000000  0.5621710000000  0.4645830000000 1.0
C      1  0.4971060000000  0.4368840000000  0.4977210000000 1.0
C      1  0.5271090000000  0.5318830000000  0.5020710000000 1.0
C      1  0.5219890000000  0.4478880000000  0.5051890000000 1.0
C      1  0.5386490000000  0.4589040000000  0.4853380000000 1.0
C      1  0.5139230000000  0.5628850000000  0.4843810000000 1.0
C      1  0.4761720000000  0.4822170000000  0.5117880000000 1.0
C      1  0.5026490000000  0.4921360000000  0.5194840000000 1.0
C      1  0.4325820000000  0.5036030000000  0.5329160000000 1.0
C      1  0.4783840000000  0.4545920000000  0.5071340000000 1.0
C      1  0.4540230000000  0.4923010000000  0.5246560000000 1.0
END
