TITL C-951345-2650-357 -2.87292490014541e-06 125000 -857.618280761611 0 0 137 (C1) n - 1
REM
REM in /home/bkarasulu/work/CARBON/AIRSS/Generating-Clusters/EDIP-Nigel-Params/with-SteepDescent/Only-C1/SD-CG/HFTN-CG
REM
REM
REM
REM
REM
REM ./C.cell (11c1c37f851c82e70ff6c80c92926a4b)
REM
REM compiler GCC version 9.2.1 20190827 (Red Hat 9.2.1-1)
REM options -cpp -mtune=generic -march=x86-64 -g -O0 -fpre-include=/usr/include/finclude/math-vector-fortran.h
REM seed 748800158 -1806037820 -1649167699 -1315827238 898078359 -250426346 -1786225268 1501779116 1214586460 249712813 919038439 1758596193 -2024485051 -494596648 -1828616771 -1423326043 35742867 -1136604374 1419734791 -1753770053 -1168387741 1715884197 1636088762 577754898 314206778 -532300609 215465521 -601161480 -1977358849 -642710755 -1266440137 1593098991 1698887274
REM
CELL 1.54180   50.00000   50.00000   50.00000   90.00000   90.00000   90.00000
LATT -1
SFAC C  
C      1  0.5239100000000  0.5224950000000  0.4582140000000 1.0
C      1  0.5915350000000  0.4865790000000  0.4790010000000 1.0
C      1  0.5173160000000  0.5550480000000  0.4967770000000 1.0
C      1  0.5518520000000  0.5677550000000  0.5210570000000 1.0
C      1  0.4491580000000  0.5071890000000  0.5978600000000 1.0
C      1  0.5618520000000  0.5010870000000  0.5622870000000 1.0
C      1  0.5509350000000  0.4794140000000  0.5794010000000 1.0
C      1  0.5661800000000  0.5002010000000  0.4132480000000 1.0
C      1  0.5604700000000  0.4532560000000  0.5690010000000 1.0
C      1  0.5730140000000  0.5145070000000  0.4363890000000 1.0
C      1  0.5326820000000  0.4932020000000  0.4660780000000 1.0
C      1  0.4961760000000  0.5292300000000  0.6125690000000 1.0
C      1  0.5321570000000  0.5367630000000  0.4308220000000 1.0
C      1  0.5113730000000  0.5973650000000  0.5246250000000 1.0
C      1  0.5406850000000  0.5213400000000  0.5571260000000 1.0
C      1  0.4405590000000  0.5044560000000  0.4432580000000 1.0
C      1  0.4916070000000  0.5544070000000  0.4787370000000 1.0
C      1  0.5338240000000  0.5888730000000  0.5068260000000 1.0
C      1  0.4099960000000  0.5020260000000  0.4404000000000 1.0
C      1  0.5378940000000  0.4344110000000  0.5670060000000 1.0
C      1  0.4527800000000  0.5850690000000  0.4777910000000 1.0
C      1  0.4043670000000  0.4779330000000  0.4577360000000 1.0
C      1  0.5013830000000  0.4019770000000  0.4601240000000 1.0
C      1  0.4835890000000  0.5240820000000  0.5145030000000 1.0
C      1  0.5261130000000  0.4402240000000  0.5164840000000 1.0
C      1  0.4753570000000  0.4626800000000  0.5634480000000 1.0
C      1  0.4390030000000  0.4484660000000  0.4739300000000 1.0
C      1  0.4505110000000  0.4538720000000  0.4293120000000 1.0
C      1  0.5091600000000  0.5379850000000  0.5213260000000 1.0
C      1  0.5470700000000  0.5485950000000  0.5679440000000 1.0
C      1  0.4968170000000  0.6022970000000  0.4797410000000 1.0
C      1  0.5344310000000  0.5756320000000  0.4565820000000 1.0
C      1  0.4556150000000  0.4782080000000  0.4458140000000 1.0
C      1  0.4006810000000  0.5388180000000  0.4997180000000 1.0
C      1  0.4344590000000  0.5194080000000  0.5287760000000 1.0
C      1  0.5227150000000  0.5284650000000  0.6006040000000 1.0
C      1  0.5181960000000  0.3982070000000  0.5069140000000 1.0
C      1  0.5215770000000  0.4836300000000  0.5821280000000 1.0
C      1  0.4455840000000  0.5399310000000  0.4867590000000 1.0
C      1  0.4310670000000  0.5451990000000  0.5692720000000 1.0
C      1  0.4593600000000  0.4596620000000  0.4916000000000 1.0
C      1  0.5505390000000  0.5196470000000  0.5034480000000 1.0
C      1  0.5943770000000  0.5074950000000  0.4552370000000 1.0
C      1  0.4202520000000  0.4535990000000  0.4536890000000 1.0
C      1  0.4972780000000  0.4781310000000  0.5989730000000 1.0
C      1  0.5296090000000  0.4678220000000  0.4505700000000 1.0
C      1  0.5191410000000  0.4832910000000  0.5314100000000 1.0
C      1  0.4999740000000  0.4605680000000  0.4526120000000 1.0
C      1  0.4862530000000  0.5136140000000  0.5706530000000 1.0
C      1  0.5656850000000  0.4103920000000  0.4929560000000 1.0
C      1  0.5833820000000  0.5540230000000  0.4825720000000 1.0
C      1  0.5108490000000  0.4561210000000  0.4964010000000 1.0
C      1  0.4917150000000  0.4008190000000  0.5193400000000 1.0
C      1  0.4755220000000  0.5032110000000  0.4056630000000 1.0
C      1  0.5613040000000  0.5406730000000  0.4379380000000 1.0
C      1  0.5129480000000  0.5808090000000  0.5484350000000 1.0
C      1  0.4595000000000  0.5032870000000  0.5253260000000 1.0
C      1  0.4365740000000  0.4405310000000  0.5328730000000 1.0
C      1  0.5836400000000  0.4459200000000  0.4506630000000 1.0
C      1  0.6014720000000  0.5298210000000  0.4762520000000 1.0
C      1  0.5785940000000  0.4365360000000  0.4975120000000 1.0
C      1  0.5304310000000  0.5187430000000  0.5277960000000 1.0
C      1  0.4807100000000  0.5817230000000  0.4662690000000 1.0
C      1  0.4066590000000  0.4920720000000  0.4834070000000 1.0
C      1  0.5716190000000  0.4893750000000  0.5369900000000 1.0
C      1  0.4360250000000  0.5686790000000  0.5237840000000 1.0
C      1  0.5247840000000  0.5212860000000  0.4053940000000 1.0
C      1  0.5398020000000  0.4249190000000  0.4519170000000 1.0
C      1  0.4933530000000  0.5593080000000  0.5886800000000 1.0
C      1  0.5639750000000  0.4431980000000  0.5222040000000 1.0
C      1  0.5178610000000  0.5632340000000  0.4335540000000 1.0
C      1  0.5765580000000  0.4591460000000  0.5441610000000 1.0
C      1  0.4272530000000  0.5421900000000  0.5106540000000 1.0
C      1  0.4668390000000  0.4306570000000  0.4388660000000 1.0
C      1  0.5381540000000  0.5384850000000  0.4811560000000 1.0
C      1  0.4969610000000  0.4139120000000  0.5460980000000 1.0
C      1  0.5402390000000  0.4974190000000  0.4025510000000 1.0
C      1  0.4254100000000  0.5190160000000  0.5563240000000 1.0
C      1  0.4865890000000  0.4441370000000  0.5422300000000 1.0
C      1  0.4377500000000  0.5620740000000  0.4676970000000 1.0
C      1  0.4948290000000  0.4396270000000  0.4316360000000 1.0
C      1  0.4652110000000  0.5826810000000  0.5615930000000 1.0
C      1  0.4396990000000  0.4960860000000  0.5704430000000 1.0
C      1  0.4244090000000  0.4684770000000  0.5312170000000 1.0
C      1  0.4899070000000  0.4486570000000  0.4777630000000 1.0
C      1  0.4470550000000  0.4884570000000  0.4993960000000 1.0
C      1  0.4626120000000  0.4399200000000  0.5171270000000 1.0
C      1  0.4924650000000  0.5815810000000  0.5698010000000 1.0
C      1  0.4495410000000  0.5371460000000  0.5915450000000 1.0
C      1  0.4746390000000  0.5414560000000  0.5750220000000 1.0
C      1  0.5866830000000  0.4563290000000  0.4763000000000 1.0
C      1  0.5225760000000  0.3929830000000  0.4787470000000 1.0
C      1  0.5146140000000  0.4178630000000  0.4389350000000 1.0
C      1  0.4807600000000  0.5046080000000  0.6014070000000 1.0
C      1  0.5580040000000  0.5556470000000  0.4645110000000 1.0
C      1  0.5277560000000  0.4120230000000  0.5504850000000 1.0
C      1  0.4949800000000  0.5303440000000  0.4602730000000 1.0
C      1  0.4544990000000  0.5853140000000  0.5074580000000 1.0
C      1  0.3979210000000  0.5192320000000  0.4796670000000 1.0
C      1  0.5256220000000  0.4729510000000  0.4125120000000 1.0
C      1  0.4717630000000  0.5456580000000  0.4982950000000 1.0
C      1  0.4246820000000  0.4697730000000  0.5629970000000 1.0
C      1  0.5773280000000  0.5538230000000  0.5122400000000 1.0
C      1  0.4365580000000  0.4416570000000  0.5632080000000 1.0
C      1  0.5406400000000  0.5695970000000  0.5487450000000 1.0
C      1  0.4430550000000  0.5590680000000  0.4407450000000 1.0
C      1  0.5004190000000  0.4796150000000  0.5093580000000 1.0
C      1  0.5795550000000  0.5219880000000  0.5173800000000 1.0
C      1  0.4101940000000  0.4784500000000  0.5081650000000 1.0
C      1  0.5184480000000  0.5122460000000  0.5760160000000 1.0
C      1  0.4500890000000  0.5108710000000  0.4754960000000 1.0
C      1  0.4576450000000  0.5195050000000  0.4222570000000 1.0
C      1  0.4705240000000  0.4137510000000  0.5025720000000 1.0
C      1  0.5253450000000  0.5939870000000  0.4780360000000 1.0
C      1  0.4454550000000  0.5649650000000  0.5513060000000 1.0
C      1  0.4830670000000  0.4840840000000  0.4507740000000 1.0
C      1  0.4634370000000  0.5483840000000  0.4255540000000 1.0
C      1  0.3968910000000  0.5247150000000  0.4520240000000 1.0
C      1  0.5417420000000  0.4053840000000  0.5233340000000 1.0
C      1  0.4668260000000  0.4921050000000  0.5558860000000 1.0
C      1  0.5470400000000  0.4779440000000  0.5178820000000 1.0
C      1  0.4877340000000  0.6021130000000  0.5081530000000 1.0
C      1  0.4986020000000  0.4576210000000  0.4067370000000 1.0
C      1  0.5493740000000  0.4926880000000  0.4907520000000 1.0
C      1  0.5161660000000  0.4535860000000  0.5416360000000 1.0
C      1  0.4817890000000  0.4568860000000  0.5902330000000 1.0
C      1  0.4932830000000  0.5035320000000  0.4963390000000 1.0
C      1  0.5599040000000  0.4388950000000  0.4376870000000 1.0
C      1  0.4739020000000  0.4735650000000  0.4060080000000 1.0
C      1  0.4791200000000  0.4194330000000  0.4717600000000 1.0
C      1  0.5483310000000  0.4044890000000  0.4705090000000 1.0
C      1  0.4894760000000  0.5606230000000  0.4287160000000 1.0
C      1  0.5999970000000  0.5098250000000  0.4989460000000 1.0
C      1  0.5367590000000  0.5520700000000  0.5942090000000 1.0
C      1  0.4985380000000  0.5164850000000  0.3976230000000 1.0
C      1  0.5490820000000  0.4566680000000  0.4187900000000 1.0
C      1  0.4808700000000  0.5067440000000  0.4703520000000 1.0
END
