TITL C-951347-9520-299 -3.50564868646803e-06 125000 -250.356840771111 0 0 42 (C1) n - 1
REM
REM in /home/bkarasulu/work/CARBON/AIRSS/Generating-Clusters/EDIP-Nigel-Params/with-SteepDescent/Only-C1/SD-CG/HFTN-CG
REM
REM
REM
REM
REM
REM ./C.cell (11c1c37f851c82e70ff6c80c92926a4b)
REM
REM compiler GCC version 9.2.1 20190827 (Red Hat 9.2.1-1)
REM options -cpp -mtune=generic -march=x86-64 -g -O0 -fpre-include=/usr/include/finclude/math-vector-fortran.h
REM seed 1074984529 -1083041721 -768785570 1768447479 -640082649 1277821435 1297384639 -1126973370 25282113 -2122894136 -984540943 184431964 -1698502099 148864165 1766210068 -422734470 -1826680206 -1670330319 -1129517838 -202916940 -256232335 1032102342 1513974847 -534351629 -1992033093 1500583208 -574411809 -588898513 430387822 -281458242 1878502919 -2052151233 984018604
REM
CELL 1.54180   50.00000   50.00000   50.00000   90.00000   90.00000   90.00000
LATT -1
SFAC C  
C      1  0.4865960000000  0.4469970000000  0.4984820000000 1.0
C      1  0.4475120000000  0.4711780000000  0.5023480000000 1.0
C      1  0.4472430000000  0.5209010000000  0.4637470000000 1.0
C      1  0.4611480000000  0.5096580000000  0.5321510000000 1.0
C      1  0.5108730000000  0.4349910000000  0.5074540000000 1.0
C      1  0.5344370000000  0.5314920000000  0.5513980000000 1.0
C      1  0.5275680000000  0.4893950000000  0.5681420000000 1.0
C      1  0.5107910000000  0.4280420000000  0.5345360000000 1.0
C      1  0.4863490000000  0.5226370000000  0.4364350000000 1.0
C      1  0.5196790000000  0.5379510000000  0.5056010000000 1.0
C      1  0.5079170000000  0.5102400000000  0.4997000000000 1.0
C      1  0.4345850000000  0.5232950000000  0.4888180000000 1.0
C      1  0.4619880000000  0.4491590000000  0.5132090000000 1.0
C      1  0.4756380000000  0.5442250000000  0.5092790000000 1.0
C      1  0.5486160000000  0.5331910000000  0.4952450000000 1.0
C      1  0.5557990000000  0.4839850000000  0.4797950000000 1.0
C      1  0.4842970000000  0.4698930000000  0.5536320000000 1.0
C      1  0.4655970000000  0.4855330000000  0.4833330000000 1.0
C      1  0.5223220000000  0.5021170000000  0.4735030000000 1.0
C      1  0.5318060000000  0.5236940000000  0.4553970000000 1.0
C      1  0.4918240000000  0.5560790000000  0.4652660000000 1.0
C      1  0.4771960000000  0.5137370000000  0.4961070000000 1.0
C      1  0.5515020000000  0.4935480000000  0.5282870000000 1.0
C      1  0.5461430000000  0.5062080000000  0.5541810000000 1.0
C      1  0.5095860000000  0.4765850000000  0.4605690000000 1.0
C      1  0.5054180000000  0.4896970000000  0.5497090000000 1.0
C      1  0.4398620000000  0.5190050000000  0.5152250000000 1.0
C      1  0.5329110000000  0.4423430000000  0.4919510000000 1.0
C      1  0.4606000000000  0.4792600000000  0.5375020000000 1.0
C      1  0.5564700000000  0.5043620000000  0.5014530000000 1.0
C      1  0.4944430000000  0.4437700000000  0.5495360000000 1.0
C      1  0.4564640000000  0.4931650000000  0.4554480000000 1.0
C      1  0.4722310000000  0.5355720000000  0.4580810000000 1.0
C      1  0.5122240000000  0.5359440000000  0.4390260000000 1.0
C      1  0.5150850000000  0.5424570000000  0.5347100000000 1.0
C      1  0.4828690000000  0.4938470000000  0.4404360000000 1.0
C      1  0.5373860000000  0.4617430000000  0.4718970000000 1.0
C      1  0.5140310000000  0.4908320000000  0.5217220000000 1.0
C      1  0.4979350000000  0.5576020000000  0.4933150000000 1.0
C      1  0.4879470000000  0.4675020000000  0.4788350000000 1.0
C      1  0.5513490000000  0.5394030000000  0.4677810000000 1.0
C      1  0.4857620000000  0.5387660000000  0.5367610000000 1.0
END
