TITL C-951340-9809-292 1.9123795510475e-07 125000 -410.16519081126 0 0 68 (C1) n - 1
REM
REM in /home/bkarasulu/work/CARBON/AIRSS/Generating-Clusters/EDIP-Nigel-Params/with-SteepDescent/Only-C1/SD-CG/HFTN-CG
REM
REM
REM
REM
REM
REM ./C.cell (11c1c37f851c82e70ff6c80c92926a4b)
REM
REM compiler GCC version 9.2.1 20190827 (Red Hat 9.2.1-1)
REM options -cpp -mtune=generic -march=x86-64 -g -O0 -fpre-include=/usr/include/finclude/math-vector-fortran.h
REM seed 290998992 -206214681 -1309173434 -1582009824 -157242375 -957848445 446619537 -347737578 -1973599090 -2076813294 2038874525 -908484599 -575888387 -1810701628 -97153214 -77053931 660177977 -713973611 -457644518 -830845844 540449766 921820712 823268918 -98357406 1438778905 -1718907323 -150173306 -1893389949 -212278408 -114968033 1685642683 -1925528792 1995400998
REM
CELL 1.54180   50.00000   50.00000   50.00000   90.00000   90.00000   90.00000
LATT -1
SFAC C  
C      1  0.4461230000000  0.5077310000000  0.5307000000000 1.0
C      1  0.4961460000000  0.5090200000000  0.4616800000000 1.0
C      1  0.4271900000000  0.5129390000000  0.5095970000000 1.0
C      1  0.5334350000000  0.4957620000000  0.5151940000000 1.0
C      1  0.5550960000000  0.5339420000000  0.5108610000000 1.0
C      1  0.4618070000000  0.5440210000000  0.4861810000000 1.0
C      1  0.5521220000000  0.5672720000000  0.4791430000000 1.0
C      1  0.5503020000000  0.4474500000000  0.5211360000000 1.0
C      1  0.4396770000000  0.4724730000000  0.4704810000000 1.0
C      1  0.4548750000000  0.5505090000000  0.5534390000000 1.0
C      1  0.5065670000000  0.5612330000000  0.4537520000000 1.0
C      1  0.4924380000000  0.4417160000000  0.4571490000000 1.0
C      1  0.5090410000000  0.4488270000000  0.5438880000000 1.0
C      1  0.5032030000000  0.4112590000000  0.4937300000000 1.0
C      1  0.5205780000000  0.5528870000000  0.5442470000000 1.0
C      1  0.4944320000000  0.4892690000000  0.5598230000000 1.0
C      1  0.4679070000000  0.4393900000000  0.5133400000000 1.0
C      1  0.5181230000000  0.4114950000000  0.5161380000000 1.0
C      1  0.5290430000000  0.4302010000000  0.5338020000000 1.0
C      1  0.4846600000000  0.5273540000000  0.5395070000000 1.0
C      1  0.4721010000000  0.4750600000000  0.4362250000000 1.0
C      1  0.4989350000000  0.5149910000000  0.5728840000000 1.0
C      1  0.5409560000000  0.4878980000000  0.5442020000000 1.0
C      1  0.4390470000000  0.4435760000000  0.4743410000000 1.0
C      1  0.5715160000000  0.5230900000000  0.5549080000000 1.0
C      1  0.4695800000000  0.4690950000000  0.5111570000000 1.0
C      1  0.4958870000000  0.5130110000000  0.5140780000000 1.0
C      1  0.5269990000000  0.4641570000000  0.5060370000000 1.0
C      1  0.5160020000000  0.5262310000000  0.4236320000000 1.0
C      1  0.4237680000000  0.5162240000000  0.4653370000000 1.0
C      1  0.4809000000000  0.5780050000000  0.4889660000000 1.0
C      1  0.4182540000000  0.4909550000000  0.4810280000000 1.0
C      1  0.5272130000000  0.4668790000000  0.4313010000000 1.0
C      1  0.5253090000000  0.5133410000000  0.4484280000000 1.0
C      1  0.4335850000000  0.5319260000000  0.4883050000000 1.0
C      1  0.5388630000000  0.5560740000000  0.5213540000000 1.0
C      1  0.5041720000000  0.5619070000000  0.4826230000000 1.0
C      1  0.4993320000000  0.5713590000000  0.5471640000000 1.0
C      1  0.5186360000000  0.4522540000000  0.4539720000000 1.0
C      1  0.4973510000000  0.4813950000000  0.5170290000000 1.0
C      1  0.4700100000000  0.4716590000000  0.5570140000000 1.0
C      1  0.5297070000000  0.5714350000000  0.4971810000000 1.0
C      1  0.5326650000000  0.4613670000000  0.4772140000000 1.0
C      1  0.5744380000000  0.5189050000000  0.5271270000000 1.0
C      1  0.5613600000000  0.5391880000000  0.4824890000000 1.0
C      1  0.4595160000000  0.5704240000000  0.4738370000000 1.0
C      1  0.5542850000000  0.4782290000000  0.4690540000000 1.0
C      1  0.5177190000000  0.4734060000000  0.5550660000000 1.0
C      1  0.5629240000000  0.4954700000000  0.4907180000000 1.0
C      1  0.5420600000000  0.4883040000000  0.4433210000000 1.0
C      1  0.4899320000000  0.5261820000000  0.4873600000000 1.0
C      1  0.4464000000000  0.5242390000000  0.5532530000000 1.0
C      1  0.4968100000000  0.5460840000000  0.4319690000000 1.0
C      1  0.4458850000000  0.4823180000000  0.4427360000000 1.0
C      1  0.4429810000000  0.5111790000000  0.4437340000000 1.0
C      1  0.4839710000000  0.4214630000000  0.4759040000000 1.0
C      1  0.4852140000000  0.4795330000000  0.4624910000000 1.0
C      1  0.5641530000000  0.4698590000000  0.5361430000000 1.0
C      1  0.5407610000000  0.5341710000000  0.4623330000000 1.0
C      1  0.4577220000000  0.4272080000000  0.4888170000000 1.0
C      1  0.5773240000000  0.4906240000000  0.5166340000000 1.0
C      1  0.4523700000000  0.4797440000000  0.5338150000000 1.0
C      1  0.4807450000000  0.4447430000000  0.5489250000000 1.0
C      1  0.5225290000000  0.5295500000000  0.5629450000000 1.0
C      1  0.5465940000000  0.5118510000000  0.5608790000000 1.0
C      1  0.4793120000000  0.5234290000000  0.4410730000000 1.0
C      1  0.4642210000000  0.4798600000000  0.4837910000000 1.0
C      1  0.4772210000000  0.5574030000000  0.5374190000000 1.0
END
