TITL C-950521-2237-328 7.75829907313278e-07 125000 -986.451100014427 0 0 160 (C1) n - 1
REM
REM in /home/bkarasulu/work/CARBON/AIRSS/Generating-Clusters/EDIP-Nigel-Params/with-SteepDescent/Only-C1/SD-CG/HFTN-CG
REM
REM
REM
REM
REM
REM ./C.cell (11c1c37f851c82e70ff6c80c92926a4b)
REM
REM compiler GCC version 9.2.1 20190827 (Red Hat 9.2.1-1)
REM options -cpp -mtune=generic -march=x86-64 -g -O0 -fpre-include=/usr/include/finclude/math-vector-fortran.h
REM seed 275399500 1100491166 -1971516812 -2021030413 1305923187 -1659785277 95731381 -286197253 1672341347 -430407339 -761057960 18990979 -55860358 231693077 -870281052 652266366 1419210602 967828683 -1265755452 -267510834 -964234906 1543865739 -1952208375 -87313067 -2067262220 1518543087 1153878684 -151847857 1411487446 -1587534150 -1541560493 -10541869 -1105430010
REM
CELL 1.54180   50.00000   50.00000   50.00000   90.00000   90.00000   90.00000
LATT -1
SFAC C  
C      1  0.4810550000000  0.5184280000000  0.3919440000000 1.0
C      1  0.5338940000000  0.5024520000000  0.4012470000000 1.0
C      1  0.5521740000000  0.4211190000000  0.4567360000000 1.0
C      1  0.5160140000000  0.5614180000000  0.3930350000000 1.0
C      1  0.5111540000000  0.5203960000000  0.5615800000000 1.0
C      1  0.4611080000000  0.5190930000000  0.5090980000000 1.0
C      1  0.5219860000000  0.4908700000000  0.5605260000000 1.0
C      1  0.5024280000000  0.4918950000000  0.4440940000000 1.0
C      1  0.4394130000000  0.4383360000000  0.5335960000000 1.0
C      1  0.5882870000000  0.5663260000000  0.5045880000000 1.0
C      1  0.4437720000000  0.5899340000000  0.4786780000000 1.0
C      1  0.4618430000000  0.4498140000000  0.4132710000000 1.0
C      1  0.5780860000000  0.4980550000000  0.5662770000000 1.0
C      1  0.4839970000000  0.5563730000000  0.4789570000000 1.0
C      1  0.5646720000000  0.5478990000000  0.4518580000000 1.0
C      1  0.5162120000000  0.5405510000000  0.4133490000000 1.0
C      1  0.5387990000000  0.4748470000000  0.3974290000000 1.0
C      1  0.5860980000000  0.4878540000000  0.5392560000000 1.0
C      1  0.4005860000000  0.5362080000000  0.5047030000000 1.0
C      1  0.5581350000000  0.4609610000000  0.5806130000000 1.0
C      1  0.5520780000000  0.4682230000000  0.4581840000000 1.0
C      1  0.5339910000000  0.5358930000000  0.4905580000000 1.0
C      1  0.4729430000000  0.5551040000000  0.4161040000000 1.0
C      1  0.4472900000000  0.5435070000000  0.5003770000000 1.0
C      1  0.4226220000000  0.5838650000000  0.4971460000000 1.0
C      1  0.4843720000000  0.5357070000000  0.5531770000000 1.0
C      1  0.4104540000000  0.5636730000000  0.5139850000000 1.0
C      1  0.4449900000000  0.4519530000000  0.5802650000000 1.0
C      1  0.4577960000000  0.5918170000000  0.5591930000000 1.0
C      1  0.4140840000000  0.5400620000000  0.4559070000000 1.0
C      1  0.4063840000000  0.4708130000000  0.5436640000000 1.0
C      1  0.4801020000000  0.5106880000000  0.4453700000000 1.0
C      1  0.5204220000000  0.5043880000000  0.4625570000000 1.0
C      1  0.5165900000000  0.4882900000000  0.4870360000000 1.0
C      1  0.4934640000000  0.4227910000000  0.5762150000000 1.0
C      1  0.5764160000000  0.4314710000000  0.4730780000000 1.0
C      1  0.4389010000000  0.4986960000000  0.5890410000000 1.0
C      1  0.5806980000000  0.4631490000000  0.4683960000000 1.0
C      1  0.5803680000000  0.5260080000000  0.5687500000000 1.0
C      1  0.4398040000000  0.4745140000000  0.4990090000000 1.0
C      1  0.4901680000000  0.4569910000000  0.4067220000000 1.0
C      1  0.4564860000000  0.4159500000000  0.4841100000000 1.0
C      1  0.5223040000000  0.4216470000000  0.5112800000000 1.0
C      1  0.5807290000000  0.5805510000000  0.4832560000000 1.0
C      1  0.6206290000000  0.4947220000000  0.5015340000000 1.0
C      1  0.4119580000000  0.4939950000000  0.4951590000000 1.0
C      1  0.5466790000000  0.4655610000000  0.5244010000000 1.0
C      1  0.4770890000000  0.5869300000000  0.4837290000000 1.0
C      1  0.5101630000000  0.4855950000000  0.6068300000000 1.0
C      1  0.5261010000000  0.3991360000000  0.4933210000000 1.0
C      1  0.5495550000000  0.4245490000000  0.5559250000000 1.0
C      1  0.5017740000000  0.5563280000000  0.4557730000000 1.0
C      1  0.4746110000000  0.4374580000000  0.4899600000000 1.0
C      1  0.4746950000000  0.5218570000000  0.6137600000000 1.0
C      1  0.4601490000000  0.4348670000000  0.4406910000000 1.0
C      1  0.4809630000000  0.4096750000000  0.5321690000000 1.0
C      1  0.4872190000000  0.4203720000000  0.4353670000000 1.0
C      1  0.5788280000000  0.5190930000000  0.4964160000000 1.0
C      1  0.4752840000000  0.5526280000000  0.5777280000000 1.0
C      1  0.5968100000000  0.4800550000000  0.4469590000000 1.0
C      1  0.5668960000000  0.4290940000000  0.5007040000000 1.0
C      1  0.4201150000000  0.5662350000000  0.5421600000000 1.0
C      1  0.4974930000000  0.4042210000000  0.4568680000000 1.0
C      1  0.5659570000000  0.4686720000000  0.4053680000000 1.0
C      1  0.5036700000000  0.5901350000000  0.5655790000000 1.0
C      1  0.5512420000000  0.4438530000000  0.4386770000000 1.0
C      1  0.4339280000000  0.5006940000000  0.5595630000000 1.0
C      1  0.5317130000000  0.5061990000000  0.6023410000000 1.0
C      1  0.4930810000000  0.4316860000000  0.5138340000000 1.0
C      1  0.5648670000000  0.4491700000000  0.5446910000000 1.0
C      1  0.4635440000000  0.4283920000000  0.5729550000000 1.0
C      1  0.5410070000000  0.4446080000000  0.5028130000000 1.0
C      1  0.4502630000000  0.4768270000000  0.4700080000000 1.0
C      1  0.4302130000000  0.4452080000000  0.5049110000000 1.0
C      1  0.4263140000000  0.5430460000000  0.5598270000000 1.0
C      1  0.4443470000000  0.5215880000000  0.4224350000000 1.0
C      1  0.5407070000000  0.5534830000000  0.5816260000000 1.0
C      1  0.5539020000000  0.5430770000000  0.5303440000000 1.0
C      1  0.4336000000000  0.4305210000000  0.4691300000000 1.0
C      1  0.5036090000000  0.4444740000000  0.4294420000000 1.0
C      1  0.5504510000000  0.4891680000000  0.5774880000000 1.0
C      1  0.5195300000000  0.4780790000000  0.5323500000000 1.0
C      1  0.5303800000000  0.5635780000000  0.4990710000000 1.0
C      1  0.4392390000000  0.5684100000000  0.4597270000000 1.0
C      1  0.5458610000000  0.5712890000000  0.5557730000000 1.0
C      1  0.5573950000000  0.5264400000000  0.4736160000000 1.0
C      1  0.5406660000000  0.4382240000000  0.5800980000000 1.0
C      1  0.4047490000000  0.5234830000000  0.5646360000000 1.0
C      1  0.5805510000000  0.5424270000000  0.5163920000000 1.0
C      1  0.4739900000000  0.4770480000000  0.5171910000000 1.0
C      1  0.5798680000000  0.5136210000000  0.4173440000000 1.0
C      1  0.5249070000000  0.4109250000000  0.4681440000000 1.0
C      1  0.4611540000000  0.5640080000000  0.5181240000000 1.0
C      1  0.5293260000000  0.4608030000000  0.4780210000000 1.0
C      1  0.4458880000000  0.5463760000000  0.5821490000000 1.0
C      1  0.6061450000000  0.5138100000000  0.4852370000000 1.0
C      1  0.5054080000000  0.4741600000000  0.5794480000000 1.0
C      1  0.4671790000000  0.5029620000000  0.4734570000000 1.0
C      1  0.5847560000000  0.4371680000000  0.5235390000000 1.0
C      1  0.6048130000000  0.5081920000000  0.4559800000000 1.0
C      1  0.5219240000000  0.5840430000000  0.5459080000000 1.0
C      1  0.6034890000000  0.4563820000000  0.5132300000000 1.0
C      1  0.5103880000000  0.5741770000000  0.5201800000000 1.0
C      1  0.5667340000000  0.4886690000000  0.5152790000000 1.0
C      1  0.4927130000000  0.5415550000000  0.6001380000000 1.0
C      1  0.4385680000000  0.5254170000000  0.4497340000000 1.0
C      1  0.5919930000000  0.5296700000000  0.4394230000000 1.0
C      1  0.4741810000000  0.4934740000000  0.5431370000000 1.0
C      1  0.5191960000000  0.5308410000000  0.5883940000000 1.0
C      1  0.5018170000000  0.4046420000000  0.5533770000000 1.0
C      1  0.6139970000000  0.4896770000000  0.5295700000000 1.0
C      1  0.4959350000000  0.6026440000000  0.4630100000000 1.0
C      1  0.4971690000000  0.5975050000000  0.5067100000000 1.0
C      1  0.4082980000000  0.5121280000000  0.5184290000000 1.0
C      1  0.4918860000000  0.5394390000000  0.4340860000000 1.0
C      1  0.3902080000000  0.4726900000000  0.4955210000000 1.0
C      1  0.4904930000000  0.5685450000000  0.3983090000000 1.0
C      1  0.5109950000000  0.4666260000000  0.3885970000000 1.0
C      1  0.5302560000000  0.4387860000000  0.4218000000000 1.0
C      1  0.4588290000000  0.4777070000000  0.5932200000000 1.0
C      1  0.4597150000000  0.5332630000000  0.4023260000000 1.0
C      1  0.4823530000000  0.4930340000000  0.6150970000000 1.0
C      1  0.4304440000000  0.4791970000000  0.4234630000000 1.0
C      1  0.4554510000000  0.5457040000000  0.4710310000000 1.0
C      1  0.5135720000000  0.5091660000000  0.5195670000000 1.0
C      1  0.5324410000000  0.5812220000000  0.4751390000000 1.0
C      1  0.5000090000000  0.4631060000000  0.4541690000000 1.0
C      1  0.4742020000000  0.3969930000000  0.4719550000000 1.0
C      1  0.4905930000000  0.5305320000000  0.5060490000000 1.0
C      1  0.4780750000000  0.4791170000000  0.5695190000000 1.0
C      1  0.4869970000000  0.4886110000000  0.4920300000000 1.0
C      1  0.4712130000000  0.4541920000000  0.4643040000000 1.0
C      1  0.4578900000000  0.5171290000000  0.5423140000000 1.0
C      1  0.5386560000000  0.5224740000000  0.5149450000000 1.0
C      1  0.4266720000000  0.4758090000000  0.4508630000000 1.0
C      1  0.5878890000000  0.4755870000000  0.4960550000000 1.0
C      1  0.5125390000000  0.4452280000000  0.5786000000000 1.0
C      1  0.5079620000000  0.5825760000000  0.4462510000000 1.0
C      1  0.4565100000000  0.4184220000000  0.5460390000000 1.0
C      1  0.4788640000000  0.5817360000000  0.5736390000000 1.0
C      1  0.4446960000000  0.5817860000000  0.5364510000000 1.0
C      1  0.4011170000000  0.5265470000000  0.4771840000000 1.0
C      1  0.4471990000000  0.5241720000000  0.6013640000000 1.0
C      1  0.5477720000000  0.5016010000000  0.4528860000000 1.0
C      1  0.5535700000000  0.5333720000000  0.5602530000000 1.0
C      1  0.5436530000000  0.5430100000000  0.4283420000000 1.0
C      1  0.4880700000000  0.5529920000000  0.5265510000000 1.0
C      1  0.5163880000000  0.6075550000000  0.4850300000000 1.0
C      1  0.4027990000000  0.4567560000000  0.5166640000000 1.0
C      1  0.4309140000000  0.4575020000000  0.5537990000000 1.0
C      1  0.4405580000000  0.4646890000000  0.4031540000000 1.0
C      1  0.4955590000000  0.4584710000000  0.5269580000000 1.0
C      1  0.5055320000000  0.5048530000000  0.3940380000000 1.0
C      1  0.5276710000000  0.4123120000000  0.5397880000000 1.0
C      1  0.4128520000000  0.4509140000000  0.4579050000000 1.0
C      1  0.5858630000000  0.4844970000000  0.4190670000000 1.0
C      1  0.5505640000000  0.5142360000000  0.4235960000000 1.0
C      1  0.3895940000000  0.4564790000000  0.4726950000000 1.0
C      1  0.3989310000000  0.5015640000000  0.5437660000000 1.0
C      1  0.5611850000000  0.5762200000000  0.4641020000000 1.0
END
