TITL C-951345-2650-269 -2.85158590628575e-07 125000 -426.971158517661 0 0 70 (C1) n - 1
REM
REM in /home/bkarasulu/work/CARBON/AIRSS/Generating-Clusters/EDIP-Nigel-Params/with-SteepDescent/Only-C1/SD-CG/HFTN-CG
REM
REM
REM
REM
REM
REM ./C.cell (11c1c37f851c82e70ff6c80c92926a4b)
REM
REM compiler GCC version 9.2.1 20190827 (Red Hat 9.2.1-1)
REM options -cpp -mtune=generic -march=x86-64 -g -O0 -fpre-include=/usr/include/finclude/math-vector-fortran.h
REM seed 1839462659 -194632149 -52211358 -55304257 1176523623 -1495271629 1611286101 -870205241 1418203673 517967134 -495951499 349349180 -1680986517 -140094671 1165436654 765206082 198192713 612384007 -751300125 -463025196 -923719810 -1856422695 -327206629 919931502 -1284270080 258363206 1689168073 -1749608850 -445364790 -1949879059 -1684797842 -90306902 576547064
REM
CELL 1.54180   50.00000   50.00000   50.00000   90.00000   90.00000   90.00000
LATT -1
SFAC C  
C      1  0.4741460000000  0.4985050000000  0.5442420000000 1.0
C      1  0.4636410000000  0.5518740000000  0.4595020000000 1.0
C      1  0.4893640000000  0.5646080000000  0.4537380000000 1.0
C      1  0.5869650000000  0.4854710000000  0.5113990000000 1.0
C      1  0.4909390000000  0.5240980000000  0.5033870000000 1.0
C      1  0.5108730000000  0.5181780000000  0.4829040000000 1.0
C      1  0.5026350000000  0.5530110000000  0.4313770000000 1.0
C      1  0.5323610000000  0.5065800000000  0.5558610000000 1.0
C      1  0.4850400000000  0.5396150000000  0.5681230000000 1.0
C      1  0.4695490000000  0.5471770000000  0.5420190000000 1.0
C      1  0.5278840000000  0.5385690000000  0.4690820000000 1.0
C      1  0.5300090000000  0.5692800000000  0.5172480000000 1.0
C      1  0.4731720000000  0.5164500000000  0.4264030000000 1.0
C      1  0.4968600000000  0.5461250000000  0.5260800000000 1.0
C      1  0.4381550000000  0.4828060000000  0.5255780000000 1.0
C      1  0.5068600000000  0.4644230000000  0.5677510000000 1.0
C      1  0.4859490000000  0.5086590000000  0.5726780000000 1.0
C      1  0.5602870000000  0.5028150000000  0.4629300000000 1.0
C      1  0.5090950000000  0.5782350000000  0.5002820000000 1.0
C      1  0.4914680000000  0.4761280000000  0.4966790000000 1.0
C      1  0.5105870000000  0.5504440000000  0.5621530000000 1.0
C      1  0.5156080000000  0.4895910000000  0.4254050000000 1.0
C      1  0.5558790000000  0.5285940000000  0.4787720000000 1.0
C      1  0.4849340000000  0.4481940000000  0.4528300000000 1.0
C      1  0.4663150000000  0.4949900000000  0.5017980000000 1.0
C      1  0.4238010000000  0.5365510000000  0.5022150000000 1.0
C      1  0.5858560000000  0.4912600000000  0.4665150000000 1.0
C      1  0.5816490000000  0.4725580000000  0.4873040000000 1.0
C      1  0.4838180000000  0.5830860000000  0.5129360000000 1.0
C      1  0.4507460000000  0.4817990000000  0.4630840000000 1.0
C      1  0.5277300000000  0.4448670000000  0.5634770000000 1.0
C      1  0.5291650000000  0.4681050000000  0.4407570000000 1.0
C      1  0.5697820000000  0.5037060000000  0.5237350000000 1.0
C      1  0.4707970000000  0.4722400000000  0.4438370000000 1.0
C      1  0.4866470000000  0.4923490000000  0.4304260000000 1.0
C      1  0.4639400000000  0.5270850000000  0.4881800000000 1.0
C      1  0.5249700000000  0.5376030000000  0.4389850000000 1.0
C      1  0.4429460000000  0.4583890000000  0.5094040000000 1.0
C      1  0.5541350000000  0.4616710000000  0.4861320000000 1.0
C      1  0.5048100000000  0.4160150000000  0.5038340000000 1.0
C      1  0.4552920000000  0.5277570000000  0.4449950000000 1.0
C      1  0.4219360000000  0.5203030000000  0.4790400000000 1.0
C      1  0.5008620000000  0.4696710000000  0.5242930000000 1.0
C      1  0.4452900000000  0.5571050000000  0.4993990000000 1.0
C      1  0.5225750000000  0.4230630000000  0.4829190000000 1.0
C      1  0.5090510000000  0.5620600000000  0.4757700000000 1.0
C      1  0.4407940000000  0.4604260000000  0.4801840000000 1.0
C      1  0.5425050000000  0.4419480000000  0.5386190000000 1.0
C      1  0.5565790000000  0.5256390000000  0.5089320000000 1.0
C      1  0.4592810000000  0.4911890000000  0.5763580000000 1.0
C      1  0.4784540000000  0.4263540000000  0.4993190000000 1.0
C      1  0.5490000000000  0.4328430000000  0.4897030000000 1.0
C      1  0.4604020000000  0.5691080000000  0.5217920000000 1.0
C      1  0.5311820000000  0.5348600000000  0.5506190000000 1.0
C      1  0.4574140000000  0.5219170000000  0.5344690000000 1.0
C      1  0.5142630000000  0.4902980000000  0.4817510000000 1.0
C      1  0.4377020000000  0.5082200000000  0.4588300000000 1.0
C      1  0.4774430000000  0.4515000000000  0.4821700000000 1.0
C      1  0.5119350000000  0.4932860000000  0.5719100000000 1.0
C      1  0.5408520000000  0.5443980000000  0.5252940000000 1.0
C      1  0.5388080000000  0.4802010000000  0.4671950000000 1.0
C      1  0.5301440000000  0.4690390000000  0.5329670000000 1.0
C      1  0.4458030000000  0.4763530000000  0.5543730000000 1.0
C      1  0.4818110000000  0.4549470000000  0.5398970000000 1.0
C      1  0.5293300000000  0.5139510000000  0.4250010000000 1.0
C      1  0.5408230000000  0.4214650000000  0.5174670000000 1.0
C      1  0.5559920000000  0.4938790000000  0.5466420000000 1.0
C      1  0.5114860000000  0.4466450000000  0.4441240000000 1.0
C      1  0.4633690000000  0.4395790000000  0.5220400000000 1.0
C      1  0.4302530000000  0.5202890000000  0.5248860000000 1.0
END
