TITL C-950523-3027-598 -1.58091130191838e-06 125000 -665.988179753114 0 0 107 (C1) n - 1
REM
REM in /home/bkarasulu/work/CARBON/AIRSS/Generating-Clusters/EDIP-Nigel-Params/with-SteepDescent/Only-C1/SD-CG/HFTN-CG
REM
REM
REM
REM
REM
REM ./C.cell (11c1c37f851c82e70ff6c80c92926a4b)
REM
REM compiler GCC version 9.2.1 20190827 (Red Hat 9.2.1-1)
REM options -cpp -mtune=generic -march=x86-64 -g -O0 -fpre-include=/usr/include/finclude/math-vector-fortran.h
REM seed 1571237829 1565845166 179424913 1378648216 226882432 849902624 1414273687 2068838983 1275810069 2043689407 1665693035 374834794 -2103381899 1193871240 1135028811 1923303106 689423234 1287719425 1954777446 -791485009 1570986854 914710061 473443095 461632238 -1280464057 941305689 2125247290 -1043756477 -244266065 1683928628 -476776978 -1535352146 -816267816
REM
CELL 1.54180   50.00000   50.00000   50.00000   90.00000   90.00000   90.00000
LATT -1
SFAC C  
C      1  0.4990540000000  0.4494640000000  0.4095760000000 1.0
C      1  0.4174740000000  0.4697050000000  0.5052640000000 1.0
C      1  0.5012470000000  0.5073280000000  0.5255690000000 1.0
C      1  0.5905630000000  0.5236390000000  0.4871030000000 1.0
C      1  0.4603100000000  0.5412920000000  0.5741210000000 1.0
C      1  0.4051310000000  0.5191600000000  0.5063300000000 1.0
C      1  0.5077750000000  0.4754050000000  0.4851510000000 1.0
C      1  0.4079880000000  0.5121980000000  0.4779680000000 1.0
C      1  0.5180370000000  0.4291230000000  0.5585570000000 1.0
C      1  0.5632290000000  0.5557530000000  0.5216620000000 1.0
C      1  0.5299330000000  0.5874820000000  0.4908870000000 1.0
C      1  0.5366000000000  0.4280940000000  0.4710220000000 1.0
C      1  0.5326530000000  0.5150420000000  0.5819230000000 1.0
C      1  0.5838210000000  0.5098830000000  0.5317240000000 1.0
C      1  0.5076670000000  0.5939580000000  0.5108420000000 1.0
C      1  0.5572930000000  0.5211670000000  0.4240380000000 1.0
C      1  0.4793890000000  0.5891020000000  0.5029530000000 1.0
C      1  0.4240770000000  0.4640550000000  0.5376060000000 1.0
C      1  0.5474140000000  0.4482750000000  0.5145180000000 1.0
C      1  0.4900590000000  0.4170580000000  0.5250850000000 1.0
C      1  0.4990000000000  0.5024990000000  0.4949980000000 1.0
C      1  0.4693390000000  0.4353420000000  0.4690420000000 1.0
C      1  0.5413510000000  0.4879290000000  0.5846190000000 1.0
C      1  0.4463010000000  0.4439080000000  0.5382930000000 1.0
C      1  0.5532310000000  0.5290240000000  0.5646070000000 1.0
C      1  0.5100940000000  0.5880150000000  0.5406090000000 1.0
C      1  0.4679760000000  0.5490640000000  0.5249950000000 1.0
C      1  0.4574000000000  0.4515900000000  0.5115050000000 1.0
C      1  0.4812120000000  0.5869000000000  0.5511040000000 1.0
C      1  0.5221840000000  0.4654250000000  0.5115910000000 1.0
C      1  0.5165650000000  0.4114250000000  0.5144880000000 1.0
C      1  0.4627400000000  0.4909900000000  0.5680450000000 1.0
C      1  0.4562100000000  0.4719130000000  0.4143940000000 1.0
C      1  0.5023120000000  0.5404730000000  0.5263770000000 1.0
C      1  0.5138240000000  0.4211890000000  0.4871510000000 1.0
C      1  0.4472260000000  0.4345120000000  0.4895950000000 1.0
C      1  0.5441840000000  0.4942220000000  0.4270830000000 1.0
C      1  0.4911460000000  0.4157980000000  0.4434100000000 1.0
C      1  0.4800210000000  0.5651490000000  0.5738460000000 1.0
C      1  0.5803460000000  0.5274050000000  0.4392100000000 1.0
C      1  0.5203250000000  0.5793760000000  0.4620170000000 1.0
C      1  0.5063930000000  0.5527120000000  0.5740560000000 1.0
C      1  0.5474300000000  0.5531850000000  0.5478510000000 1.0
C      1  0.4702860000000  0.4453150000000  0.5571510000000 1.0
C      1  0.5576590000000  0.5544940000000  0.4709310000000 1.0
C      1  0.5302390000000  0.4816500000000  0.4635760000000 1.0
C      1  0.4544280000000  0.4900250000000  0.5173740000000 1.0
C      1  0.5770010000000  0.4963130000000  0.4874320000000 1.0
C      1  0.5263780000000  0.4897210000000  0.5323560000000 1.0
C      1  0.5589850000000  0.5064780000000  0.5468010000000 1.0
C      1  0.5358200000000  0.4253610000000  0.5318210000000 1.0
C      1  0.4624800000000  0.5254160000000  0.4105970000000 1.0
C      1  0.4887670000000  0.4461900000000  0.5140740000000 1.0
C      1  0.5164520000000  0.4516810000000  0.5822590000000 1.0
C      1  0.4489840000000  0.4608530000000  0.4397220000000 1.0
C      1  0.5418010000000  0.5633510000000  0.4481670000000 1.0
C      1  0.4487730000000  0.5384530000000  0.5017750000000 1.0
C      1  0.5576450000000  0.4807120000000  0.5617600000000 1.0
C      1  0.4896800000000  0.5199920000000  0.4040840000000 1.0
C      1  0.5162190000000  0.4676950000000  0.5551070000000 1.0
C      1  0.5890880000000  0.4777340000000  0.4687570000000 1.0
C      1  0.4691050000000  0.4634660000000  0.5813440000000 1.0
C      1  0.4832550000000  0.4620350000000  0.4731520000000 1.0
C      1  0.5449980000000  0.5614280000000  0.4977010000000 1.0
C      1  0.4407810000000  0.5453050000000  0.4535770000000 1.0
C      1  0.4294390000000  0.5020550000000  0.5310220000000 1.0
C      1  0.5177010000000  0.5590460000000  0.5475030000000 1.0
C      1  0.4652680000000  0.5790750000000  0.5269370000000 1.0
C      1  0.4494230000000  0.5577670000000  0.4786610000000 1.0
C      1  0.5224410000000  0.5421530000000  0.5031550000000 1.0
C      1  0.4818110000000  0.4698590000000  0.4012200000000 1.0
C      1  0.4947770000000  0.5655690000000  0.4609740000000 1.0
C      1  0.4230010000000  0.4495620000000  0.4828220000000 1.0
C      1  0.4901170000000  0.4120190000000  0.4725490000000 1.0
C      1  0.5540390000000  0.4591950000000  0.4388590000000 1.0
C      1  0.5172120000000  0.4992980000000  0.4391820000000 1.0
C      1  0.4297000000000  0.4924400000000  0.4813510000000 1.0
C      1  0.4925420000000  0.4581130000000  0.5955590000000 1.0
C      1  0.5045170000000  0.5241740000000  0.5781860000000 1.0
C      1  0.5229220000000  0.5180850000000  0.4880470000000 1.0
C      1  0.4893690000000  0.4203890000000  0.5544300000000 1.0
C      1  0.4736350000000  0.5742080000000  0.4781120000000 1.0
C      1  0.4753680000000  0.5164420000000  0.5823510000000 1.0
C      1  0.4629050000000  0.5361090000000  0.4365010000000 1.0
C      1  0.4169280000000  0.5315320000000  0.4594680000000 1.0
C      1  0.5464780000000  0.5004620000000  0.4808670000000 1.0
C      1  0.4259400000000  0.4638040000000  0.4567000000000 1.0
C      1  0.4327180000000  0.4895830000000  0.5586530000000 1.0
C      1  0.4211120000000  0.5412420000000  0.5139220000000 1.0
C      1  0.4717830000000  0.4739910000000  0.4503230000000 1.0
C      1  0.4552340000000  0.5083640000000  0.4935450000000 1.0
C      1  0.4767800000000  0.4916900000000  0.5381590000000 1.0
C      1  0.4889540000000  0.4639470000000  0.5410660000000 1.0
C      1  0.4927940000000  0.4943740000000  0.3933680000000 1.0
C      1  0.5849590000000  0.5345740000000  0.5151640000000 1.0
C      1  0.4503270000000  0.5373600000000  0.5468190000000 1.0
C      1  0.4894100000000  0.5441210000000  0.4427890000000 1.0
C      1  0.5684110000000  0.4593030000000  0.4643820000000 1.0
C      1  0.4231350000000  0.5438860000000  0.5419220000000 1.0
C      1  0.5816570000000  0.5400200000000  0.4644330000000 1.0
C      1  0.5825800000000  0.4856180000000  0.5154860000000 1.0
C      1  0.5084840000000  0.5272020000000  0.4273860000000 1.0
C      1  0.5320900000000  0.4413150000000  0.4457190000000 1.0
C      1  0.5357680000000  0.5422760000000  0.4257440000000 1.0
C      1  0.5663890000000  0.4657410000000  0.5305520000000 1.0
C      1  0.5574430000000  0.4415690000000  0.4856840000000 1.0
C      1  0.5090940000000  0.4335680000000  0.4301310000000 1.0
END
