TITL C-951347-9520-212 -2.63312917354947e-07 125000 -148.347359614634 0 0 25 (C1) n - 1
REM
REM in /home/bkarasulu/work/CARBON/AIRSS/Generating-Clusters/EDIP-Nigel-Params/with-SteepDescent/Only-C1/SD-CG/HFTN-CG
REM
REM
REM
REM
REM
REM ./C.cell (11c1c37f851c82e70ff6c80c92926a4b)
REM
REM compiler GCC version 9.2.1 20190827 (Red Hat 9.2.1-1)
REM options -cpp -mtune=generic -march=x86-64 -g -O0 -fpre-include=/usr/include/finclude/math-vector-fortran.h
REM seed -982945381 -217872473 638170498 1807043271 10075957 -877946665 906837075 1649638589 -1335053661 508807581 1475383700 -2104630844 -1843287280 -738826008 341665955 -592463915 1887761734 1870564295 671962250 -140627735 1824876528 -150899226 -548320751 166790094 -1763563381 1429487397 110720744 -1970366807 -1942298609 1653975001 -1251539089 1094308278 397309169
REM
CELL 1.54180   50.00000   50.00000   50.00000   90.00000   90.00000   90.00000
LATT -1
SFAC C  
C      1  0.4608120000000  0.4944820000000  0.4979920000000 1.0
C      1  0.5419670000000  0.5018770000000  0.4909750000000 1.0
C      1  0.4839740000000  0.4587770000000  0.5253130000000 1.0
C      1  0.5232580000000  0.4558200000000  0.5056960000000 1.0
C      1  0.5222240000000  0.4740250000000  0.5512070000000 1.0
C      1  0.5118760000000  0.4559880000000  0.5325580000000 1.0
C      1  0.5361480000000  0.5158680000000  0.5381580000000 1.0
C      1  0.4697240000000  0.4935160000000  0.5256110000000 1.0
C      1  0.4599000000000  0.5176040000000  0.4810910000000 1.0
C      1  0.5083170000000  0.5359760000000  0.5024240000000 1.0
C      1  0.5319110000000  0.5207110000000  0.5107730000000 1.0
C      1  0.4641620000000  0.5072500000000  0.4541220000000 1.0
C      1  0.4970190000000  0.5261180000000  0.4770460000000 1.0
C      1  0.5358540000000  0.5088260000000  0.4648450000000 1.0
C      1  0.5232390000000  0.5239390000000  0.4461220000000 1.0
C      1  0.5417920000000  0.4750360000000  0.4984240000000 1.0
C      1  0.4979630000000  0.5356960000000  0.4492780000000 1.0
C      1  0.4860210000000  0.4540470000000  0.4966480000000 1.0
C      1  0.4709780000000  0.4795760000000  0.4542070000000 1.0
C      1  0.5218760000000  0.5011400000000  0.5569670000000 1.0
C      1  0.4892140000000  0.5376100000000  0.5229950000000 1.0
C      1  0.4961010000000  0.5112840000000  0.5610670000000 1.0
C      1  0.4762670000000  0.5247070000000  0.4352370000000 1.0
C      1  0.4703290000000  0.4729000000000  0.4816600000000 1.0
C      1  0.4790730000000  0.5172250000000  0.5395830000000 1.0
END
