TITL C-951343-2256-130 2.98837242485054e-06 125000 -360.951671073099 0 0 59 (C1) n - 1
REM
REM in /home/bkarasulu/work/CARBON/AIRSS/Generating-Clusters/EDIP-Nigel-Params/with-SteepDescent/Only-C1/SD-CG/HFTN-CG
REM
REM
REM
REM
REM
REM ./C.cell (11c1c37f851c82e70ff6c80c92926a4b)
REM
REM compiler GCC version 9.2.1 20190827 (Red Hat 9.2.1-1)
REM options -cpp -mtune=generic -march=x86-64 -g -O0 -fpre-include=/usr/include/finclude/math-vector-fortran.h
REM seed 908371024 -1624367955 372794198 874110288 47016216 -2051485909 128489089 -501540674 1975352195 -1279778309 966016 467204693 990515919 399045651 693779197 -869521123 418549034 -1074846489 1303502191 1690985325 -2072936443 2007197635 -2141072135 -2036791711 1066846774 217237086 -172639857 -1118063699 -1262836084 1042914130 1863228017 -974294457 1122799588
REM
CELL 1.54180   50.00000   50.00000   50.00000   90.00000   90.00000   90.00000
LATT -1
SFAC C  
C      1  0.5025230000000  0.5006260000000  0.4331120000000 1.0
C      1  0.5133170000000  0.5634570000000  0.5282650000000 1.0
C      1  0.5464330000000  0.5138530000000  0.4499620000000 1.0
C      1  0.4398810000000  0.4714790000000  0.5056360000000 1.0
C      1  0.4458500000000  0.5492810000000  0.4924350000000 1.0
C      1  0.5115710000000  0.4948700000000  0.4828480000000 1.0
C      1  0.4370430000000  0.5172270000000  0.5351360000000 1.0
C      1  0.5277590000000  0.5513100000000  0.4830280000000 1.0
C      1  0.5491650000000  0.5135940000000  0.5518090000000 1.0
C      1  0.5379630000000  0.4442350000000  0.4531720000000 1.0
C      1  0.4753950000000  0.5324770000000  0.5201520000000 1.0
C      1  0.4838150000000  0.5594530000000  0.4632840000000 1.0
C      1  0.5162390000000  0.4340480000000  0.4835870000000 1.0
C      1  0.5783880000000  0.4598700000000  0.4946420000000 1.0
C      1  0.4827170000000  0.4907530000000  0.4866290000000 1.0
C      1  0.4717510000000  0.5010470000000  0.5142960000000 1.0
C      1  0.4618440000000  0.5312820000000  0.5479170000000 1.0
C      1  0.4551690000000  0.4670220000000  0.5523560000000 1.0
C      1  0.5603120000000  0.4897660000000  0.5362590000000 1.0
C      1  0.4307780000000  0.5272080000000  0.5068240000000 1.0
C      1  0.4795280000000  0.5130820000000  0.5643090000000 1.0
C      1  0.5208200000000  0.5248770000000  0.4407830000000 1.0
C      1  0.4326050000000  0.4773720000000  0.4580560000000 1.0
C      1  0.5099040000000  0.4375160000000  0.5114880000000 1.0
C      1  0.5095980000000  0.5441800000000  0.4604620000000 1.0
C      1  0.5041610000000  0.5211380000000  0.5747840000000 1.0
C      1  0.4412570000000  0.4843820000000  0.5324530000000 1.0
C      1  0.4605140000000  0.4523440000000  0.4974500000000 1.0
C      1  0.5122880000000  0.4544350000000  0.4448940000000 1.0
C      1  0.5552370000000  0.4654980000000  0.4469790000000 1.0
C      1  0.5276420000000  0.4832150000000  0.5045140000000 1.0
C      1  0.5611300000000  0.4903420000000  0.4590130000000 1.0
C      1  0.4590150000000  0.4734910000000  0.4490410000000 1.0
C      1  0.4745060000000  0.4635290000000  0.4737380000000 1.0
C      1  0.5046710000000  0.5358390000000  0.5227210000000 1.0
C      1  0.5138010000000  0.5729390000000  0.4995990000000 1.0
C      1  0.4798180000000  0.4394850000000  0.5179850000000 1.0
C      1  0.4717800000000  0.5000720000000  0.4395360000000 1.0
C      1  0.4646840000000  0.5660570000000  0.5067240000000 1.0
C      1  0.4249740000000  0.4840710000000  0.4842160000000 1.0
C      1  0.4159160000000  0.5096000000000  0.4906120000000 1.0
C      1  0.4783650000000  0.4492020000000  0.5467360000000 1.0
C      1  0.5386470000000  0.5614090000000  0.5403510000000 1.0
C      1  0.5302850000000  0.5148190000000  0.5726660000000 1.0
C      1  0.4955240000000  0.4436350000000  0.4654590000000 1.0
C      1  0.4856180000000  0.5758950000000  0.4885600000000 1.0
C      1  0.5526380000000  0.5374980000000  0.5344490000000 1.0
C      1  0.5183410000000  0.4832020000000  0.4531730000000 1.0
C      1  0.5226970000000  0.4618340000000  0.5253540000000 1.0
C      1  0.5684870000000  0.4484380000000  0.5173600000000 1.0
C      1  0.5538270000000  0.4973600000000  0.5075260000000 1.0
C      1  0.5503630000000  0.5280980000000  0.5059420000000 1.0
C      1  0.4586610000000  0.5430920000000  0.4658440000000 1.0
C      1  0.4827670000000  0.4921920000000  0.5429500000000 1.0
C      1  0.5515040000000  0.4603440000000  0.5366230000000 1.0
C      1  0.5718770000000  0.4862090000000  0.4866430000000 1.0
C      1  0.5027180000000  0.4687320000000  0.5471300000000 1.0
C      1  0.5207840000000  0.5265650000000  0.4993120000000 1.0
C      1  0.4651350000000  0.5151560000000  0.4632180000000 1.0
END
