TITL C-950528-5794-204 -4.97453506466582e-06 125000 -591.956535387279 0 0 95 (C1) n - 1
REM
REM in /home/bkarasulu/work/CARBON/AIRSS/Generating-Clusters/EDIP-Nigel-Params/with-SteepDescent/Only-C1/SD-CG/HFTN-CG
REM
REM
REM
REM
REM
REM ./C.cell (11c1c37f851c82e70ff6c80c92926a4b)
REM
REM compiler GCC version 9.2.1 20190827 (Red Hat 9.2.1-1)
REM options -cpp -mtune=generic -march=x86-64 -g -O0 -fpre-include=/usr/include/finclude/math-vector-fortran.h
REM seed 458144042 1975314352 -1112865368 -1579688947 -1230977602 2010722048 1433388424 -1893450524 -1630250736 533931560 2102886696 935039032 182187119 -2080190798 -795294831 834849820 1279715919 512798428 -628671542 2020107953 1251014622 -1675978320 -612671230 1946415008 1762672427 -1362596966 -1897320512 -663632217 107183010 1698301872 -283945433 1608041969 78030139
REM
CELL 1.54180   50.00000   50.00000   50.00000   90.00000   90.00000   90.00000
LATT -1
SFAC C  
C      1  0.5331350000000  0.4647060000000  0.5139640000000 1.0
C      1  0.5074320000000  0.4555530000000  0.5036920000000 1.0
C      1  0.4168350000000  0.4554640000000  0.5014720000000 1.0
C      1  0.5453020000000  0.5320290000000  0.4923630000000 1.0
C      1  0.4797560000000  0.5055020000000  0.4991110000000 1.0
C      1  0.5389550000000  0.5305300000000  0.4323370000000 1.0
C      1  0.4551290000000  0.4982100000000  0.4556010000000 1.0
C      1  0.4613740000000  0.4600740000000  0.5060920000000 1.0
C      1  0.5052570000000  0.4309410000000  0.4873330000000 1.0
C      1  0.4304380000000  0.5255830000000  0.5095650000000 1.0
C      1  0.4872460000000  0.5231770000000  0.4141610000000 1.0
C      1  0.4621860000000  0.5233290000000  0.5643600000000 1.0
C      1  0.5823580000000  0.4728240000000  0.5317460000000 1.0
C      1  0.4168410000000  0.5082750000000  0.4874750000000 1.0
C      1  0.4309470000000  0.4586080000000  0.4746390000000 1.0
C      1  0.4750630000000  0.5336450000000  0.4948990000000 1.0
C      1  0.5682280000000  0.4452830000000  0.5352020000000 1.0
C      1  0.5279010000000  0.4905980000000  0.4598130000000 1.0
C      1  0.4054580000000  0.4828460000000  0.5089430000000 1.0
C      1  0.4759910000000  0.4699490000000  0.5791930000000 1.0
C      1  0.5133000000000  0.4421560000000  0.5587420000000 1.0
C      1  0.5393130000000  0.4532810000000  0.5432780000000 1.0
C      1  0.4886330000000  0.4352090000000  0.5433310000000 1.0
C      1  0.4885280000000  0.4849260000000  0.5400000000000 1.0
C      1  0.4515580000000  0.5475990000000  0.5047620000000 1.0
C      1  0.5459960000000  0.5761340000000  0.4946860000000 1.0
C      1  0.4330320000000  0.4877260000000  0.4716230000000 1.0
C      1  0.5714210000000  0.4251840000000  0.5148130000000 1.0
C      1  0.4198490000000  0.5192040000000  0.5358960000000 1.0
C      1  0.4808130000000  0.4964240000000  0.4713420000000 1.0
C      1  0.4627860000000  0.4481300000000  0.5628940000000 1.0
C      1  0.5274290000000  0.5726820000000  0.4497170000000 1.0
C      1  0.4259150000000  0.5541770000000  0.4633090000000 1.0
C      1  0.4721390000000  0.5733910000000  0.4677130000000 1.0
C      1  0.4922690000000  0.5492210000000  0.4770040000000 1.0
C      1  0.5675050000000  0.4913820000000  0.5492240000000 1.0
C      1  0.4464970000000  0.5261880000000  0.4466740000000 1.0
C      1  0.4678220000000  0.5391930000000  0.4301350000000 1.0
C      1  0.5484730000000  0.5025330000000  0.4418620000000 1.0
C      1  0.5246830000000  0.5369790000000  0.5687330000000 1.0
C      1  0.4758650000000  0.4089310000000  0.5041540000000 1.0
C      1  0.5229850000000  0.5810630000000  0.4776340000000 1.0
C      1  0.5656290000000  0.5301760000000  0.5149180000000 1.0
C      1  0.5491970000000  0.4294320000000  0.4767760000000 1.0
C      1  0.4765990000000  0.4231630000000  0.4790530000000 1.0
C      1  0.5598270000000  0.5591920000000  0.5393910000000 1.0
C      1  0.4707630000000  0.4560050000000  0.4402810000000 1.0
C      1  0.4777030000000  0.5655290000000  0.4384800000000 1.0
C      1  0.5059830000000  0.5675540000000  0.4283230000000 1.0
C      1  0.5908400000000  0.5172450000000  0.5024100000000 1.0
C      1  0.4129130000000  0.4916680000000  0.5354540000000 1.0
C      1  0.4900310000000  0.5780780000000  0.5171910000000 1.0
C      1  0.4511550000000  0.4888460000000  0.5393880000000 1.0
C      1  0.4564440000000  0.4898370000000  0.5092000000000 1.0
C      1  0.5132020000000  0.5683530000000  0.5313120000000 1.0
C      1  0.5013880000000  0.5022890000000  0.5200440000000 1.0
C      1  0.5016230000000  0.5038060000000  0.4526290000000 1.0
C      1  0.5053690000000  0.5505040000000  0.5521740000000 1.0
C      1  0.5047620000000  0.4651470000000  0.5760410000000 1.0
C      1  0.5233840000000  0.4319900000000  0.4637890000000 1.0
C      1  0.4710440000000  0.4987780000000  0.5764430000000 1.0
C      1  0.5499460000000  0.5539370000000  0.4468460000000 1.0
C      1  0.4866040000000  0.4582560000000  0.5233410000000 1.0
C      1  0.5481830000000  0.4115360000000  0.5021200000000 1.0
C      1  0.5564940000000  0.4542480000000  0.4945580000000 1.0
C      1  0.5183270000000  0.4888830000000  0.5653500000000 1.0
C      1  0.5750290000000  0.4759540000000  0.4818840000000 1.0
C      1  0.5722070000000  0.4997080000000  0.4615700000000 1.0
C      1  0.4660620000000  0.5619170000000  0.5279850000000 1.0
C      1  0.4129930000000  0.5288320000000  0.4653130000000 1.0
C      1  0.4948100000000  0.5865520000000  0.4879890000000 1.0
C      1  0.4455470000000  0.5653700000000  0.4810650000000 1.0
C      1  0.4412700000000  0.4600950000000  0.5466870000000 1.0
C      1  0.5512120000000  0.5361560000000  0.5560580000000 1.0
C      1  0.5628470000000  0.5491130000000  0.4733830000000 1.0
C      1  0.5128600000000  0.5404190000000  0.4138970000000 1.0
C      1  0.4985520000000  0.4570200000000  0.4312630000000 1.0
C      1  0.4902750000000  0.4945690000000  0.4250090000000 1.0
C      1  0.5297550000000  0.4953490000000  0.5144720000000 1.0
C      1  0.5211150000000  0.4568700000000  0.4486540000000 1.0
C      1  0.4953540000000  0.4106410000000  0.5253480000000 1.0
C      1  0.4772400000000  0.5444450000000  0.5501910000000 1.0
C      1  0.5056910000000  0.5341830000000  0.4524690000000 1.0
C      1  0.5846280000000  0.5252300000000  0.4731910000000 1.0
C      1  0.5232840000000  0.4079740000000  0.5172700000000 1.0
C      1  0.4611690000000  0.4476960000000  0.4692490000000 1.0
C      1  0.5406040000000  0.5730080000000  0.5231070000000 1.0
C      1  0.4355960000000  0.5248420000000  0.5577260000000 1.0
C      1  0.4623230000000  0.4826110000000  0.4313850000000 1.0
C      1  0.4388010000000  0.4459690000000  0.5205330000000 1.0
C      1  0.5177420000000  0.5127560000000  0.5812710000000 1.0
C      1  0.5359650000000  0.5042720000000  0.4870460000000 1.0
C      1  0.5516030000000  0.5121810000000  0.5354460000000 1.0
C      1  0.5451160000000  0.4764040000000  0.5608810000000 1.0
C      1  0.5903030000000  0.4865730000000  0.5046590000000 1.0
END
