TITL C-951338-5626-6 -1.49072421200529e-06 125000 -251.464089249402 0 0 43 (C1) n - 1
REM
REM in /home/bkarasulu/work/CARBON/AIRSS/Generating-Clusters/EDIP-Nigel-Params/with-SteepDescent/Only-C1/SD-CG/HFTN-CG
REM
REM
REM
REM
REM
REM ./C.cell (11c1c37f851c82e70ff6c80c92926a4b)
REM
REM compiler GCC version 9.2.1 20190827 (Red Hat 9.2.1-1)
REM options -cpp -mtune=generic -march=x86-64 -g -O0 -fpre-include=/usr/include/finclude/math-vector-fortran.h
REM seed 936010097 -1993010707 2039821352 1205613232 97022921 -5901528 523580569 -413320524 864996036 -1149297566 -1904475769 -1216061776 -437447376 2134252405 -1632898961 -707873794 481657243 2038511513 -2039237490 -1222975952 -2074691984 -650338361 -1130140539 -1138499432 -1468544764 196760506 -377158100 -643379786 -607966072 -183200581 -429301047 -1426828157 -448359207
REM
CELL 1.54180   50.00000   50.00000   50.00000   90.00000   90.00000   90.00000
LATT -1
SFAC C  
C      1  0.4693770000000  0.5035160000000  0.5484570000000 1.0
C      1  0.4873740000000  0.4607440000000  0.4817260000000 1.0
C      1  0.5467550000000  0.5257260000000  0.4717550000000 1.0
C      1  0.4999940000000  0.5353900000000  0.4378150000000 1.0
C      1  0.4735280000000  0.4774400000000  0.5326950000000 1.0
C      1  0.4796920000000  0.5622060000000  0.4722000000000 1.0
C      1  0.5245100000000  0.4922500000000  0.4414080000000 1.0
C      1  0.4545330000000  0.5118270000000  0.4570590000000 1.0
C      1  0.4702890000000  0.5456460000000  0.5185040000000 1.0
C      1  0.4947730000000  0.5362180000000  0.5011970000000 1.0
C      1  0.4411480000000  0.5119410000000  0.4806080000000 1.0
C      1  0.4761310000000  0.4962250000000  0.4481160000000 1.0
C      1  0.5467400000000  0.5116360000000  0.4461570000000 1.0
C      1  0.4613300000000  0.4512360000000  0.4747630000000 1.0
C      1  0.5261730000000  0.4850530000000  0.5252450000000 1.0
C      1  0.4455550000000  0.4571820000000  0.4954450000000 1.0
C      1  0.4984780000000  0.5079940000000  0.4321770000000 1.0
C      1  0.5291480000000  0.4649640000000  0.5459830000000 1.0
C      1  0.5441630000000  0.4820830000000  0.5012860000000 1.0
C      1  0.4425260000000  0.5040900000000  0.5078340000000 1.0
C      1  0.4872810000000  0.5144820000000  0.5664080000000 1.0
C      1  0.5424650000000  0.4569730000000  0.4851430000000 1.0
C      1  0.5017050000000  0.4403110000000  0.5180850000000 1.0
C      1  0.5311140000000  0.5116960000000  0.5373910000000 1.0
C      1  0.5080130000000  0.4546910000000  0.5600320000000 1.0
C      1  0.5389500000000  0.5199670000000  0.5738920000000 1.0
C      1  0.4484410000000  0.4760870000000  0.5154080000000 1.0
C      1  0.5115490000000  0.5196420000000  0.5759610000000 1.0
C      1  0.5333480000000  0.5658070000000  0.4995330000000 1.0
C      1  0.4550410000000  0.5215910000000  0.5289880000000 1.0
C      1  0.5028040000000  0.5512960000000  0.4604680000000 1.0
C      1  0.5545080000000  0.5168880000000  0.5512950000000 1.0
C      1  0.5288960000000  0.5497350000000  0.4756430000000 1.0
C      1  0.5326460000000  0.5000170000000  0.4805820000000 1.0
C      1  0.4917760000000  0.5066640000000  0.4948780000000 1.0
C      1  0.4878600000000  0.4505750000000  0.5408420000000 1.0
C      1  0.5206490000000  0.4358900000000  0.4973030000000 1.0
C      1  0.4970720000000  0.4834190000000  0.5133100000000 1.0
C      1  0.4944630000000  0.4879700000000  0.4707650000000 1.0
C      1  0.5196460000000  0.5464060000000  0.5133690000000 1.0
C      1  0.5085550000000  0.4440490000000  0.4703670000000 1.0
C      1  0.5285470000000  0.4637050000000  0.4561700000000 1.0
C      1  0.4624540000000  0.5587740000000  0.4937390000000 1.0
END
