TITL C-951348-1603-197 1.58206577676875e-07 125000 -470.274848763727 0 0 77 (C1) n - 1
REM
REM in /home/bkarasulu/work/CARBON/AIRSS/Generating-Clusters/EDIP-Nigel-Params/with-SteepDescent/Only-C1/SD-CG/HFTN-CG
REM
REM
REM
REM
REM
REM ./C.cell (11c1c37f851c82e70ff6c80c92926a4b)
REM
REM compiler GCC version 9.2.1 20190827 (Red Hat 9.2.1-1)
REM options -cpp -mtune=generic -march=x86-64 -g -O0 -fpre-include=/usr/include/finclude/math-vector-fortran.h
REM seed -2074440173 916128628 907192746 -844333134 -1603028874 2084360838 -60390739 -766672272 1547954113 -1676246189 2082932521 208393292 419909960 -219903401 -55005210 -1093622409 1086268479 -574397206 1680669454 -2049313724 -734148784 679100619 1253762866 1443864276 170864114 -2058976568 2127473988 -1331134611 624581650 -1452804113 1328992401 -1103358694 1301257331
REM
CELL 1.54180   50.00000   50.00000   50.00000   90.00000   90.00000   90.00000
LATT -1
SFAC C  
C      1  0.4838270000000  0.5317740000000  0.4087320000000 1.0
C      1  0.5243940000000  0.5560190000000  0.5697870000000 1.0
C      1  0.5520910000000  0.4552970000000  0.4835800000000 1.0
C      1  0.5334740000000  0.5136650000000  0.5333050000000 1.0
C      1  0.5844290000000  0.5177290000000  0.4794010000000 1.0
C      1  0.5094610000000  0.4330310000000  0.5115850000000 1.0
C      1  0.4435350000000  0.4849460000000  0.5354360000000 1.0
C      1  0.5182630000000  0.4590450000000  0.5255100000000 1.0
C      1  0.5277720000000  0.5459830000000  0.4213680000000 1.0
C      1  0.5069420000000  0.4709040000000  0.4893200000000 1.0
C      1  0.5613120000000  0.4765400000000  0.5024400000000 1.0
C      1  0.4217730000000  0.4725240000000  0.5198790000000 1.0
C      1  0.4441540000000  0.4882590000000  0.5655900000000 1.0
C      1  0.5131680000000  0.5306470000000  0.5796320000000 1.0
C      1  0.5695400000000  0.5338610000000  0.4984340000000 1.0
C      1  0.5465540000000  0.5538660000000  0.4638000000000 1.0
C      1  0.5749420000000  0.5295730000000  0.5272890000000 1.0
C      1  0.5542690000000  0.4905040000000  0.5451690000000 1.0
C      1  0.4881610000000  0.5563340000000  0.4497260000000 1.0
C      1  0.4377770000000  0.4980400000000  0.4548550000000 1.0
C      1  0.4710140000000  0.5620880000000  0.5223350000000 1.0
C      1  0.5311950000000  0.4623710000000  0.4447240000000 1.0
C      1  0.4208350000000  0.5262040000000  0.5512440000000 1.0
C      1  0.4856360000000  0.5311830000000  0.5826040000000 1.0
C      1  0.4878550000000  0.4903550000000  0.5226680000000 1.0
C      1  0.5539780000000  0.4281890000000  0.4909060000000 1.0
C      1  0.4584400000000  0.5596570000000  0.4973390000000 1.0
C      1  0.4685990000000  0.4746920000000  0.5750920000000 1.0
C      1  0.4292620000000  0.5076800000000  0.5067580000000 1.0
C      1  0.4719180000000  0.4998060000000  0.4889630000000 1.0
C      1  0.4681680000000  0.4699320000000  0.5291720000000 1.0
C      1  0.5854540000000  0.4892910000000  0.4847380000000 1.0
C      1  0.4225460000000  0.4568340000000  0.4761110000000 1.0
C      1  0.4612860000000  0.5501420000000  0.4529570000000 1.0
C      1  0.5028800000000  0.5634400000000  0.4727100000000 1.0
C      1  0.5055410000000  0.5250540000000  0.5007090000000 1.0
C      1  0.4661770000000  0.5350650000000  0.5350130000000 1.0
C      1  0.5146520000000  0.5536650000000  0.4976390000000 1.0
C      1  0.5123580000000  0.4123050000000  0.4700430000000 1.0
C      1  0.5369620000000  0.5353010000000  0.4455560000000 1.0
C      1  0.4999900000000  0.5482270000000  0.4244670000000 1.0
C      1  0.5498090000000  0.5396640000000  0.5376790000000 1.0
C      1  0.5240770000000  0.5058230000000  0.5661190000000 1.0
C      1  0.4835530000000  0.4414610000000  0.4526250000000 1.0
C      1  0.4502830000000  0.5421370000000  0.4770740000000 1.0
C      1  0.5417850000000  0.5001950000000  0.5038600000000 1.0
C      1  0.4524820000000  0.5058260000000  0.4322610000000 1.0
C      1  0.5273590000000  0.4198110000000  0.4929680000000 1.0
C      1  0.4595370000000  0.4554170000000  0.4476850000000 1.0
C      1  0.4764270000000  0.4553060000000  0.5539960000000 1.0
C      1  0.5585830000000  0.4630940000000  0.4565830000000 1.0
C      1  0.5055670000000  0.4838160000000  0.5704200000000 1.0
C      1  0.5190920000000  0.5011060000000  0.4855910000000 1.0
C      1  0.4902420000000  0.5183630000000  0.5246630000000 1.0
C      1  0.4959630000000  0.4890550000000  0.4229300000000 1.0
C      1  0.4367210000000  0.5274770000000  0.5277610000000 1.0
C      1  0.4356430000000  0.4684480000000  0.4545970000000 1.0
C      1  0.4464270000000  0.5119640000000  0.4815360000000 1.0
C      1  0.4636570000000  0.4541680000000  0.5035240000000 1.0
C      1  0.4752160000000  0.5063610000000  0.4162740000000 1.0
C      1  0.5793120000000  0.5033270000000  0.5377420000000 1.0
C      1  0.4774890000000  0.4723950000000  0.4838410000000 1.0
C      1  0.4329960000000  0.4534940000000  0.5014150000000 1.0
C      1  0.5105680000000  0.5675450000000  0.5480820000000 1.0
C      1  0.5474060000000  0.5535750000000  0.4914100000000 1.0
C      1  0.4837420000000  0.4186180000000  0.4728590000000 1.0
C      1  0.4809270000000  0.4288310000000  0.5018830000000 1.0
C      1  0.5053900000000  0.4598780000000  0.5535610000000 1.0
C      1  0.5514540000000  0.5515440000000  0.5634020000000 1.0
C      1  0.5120410000000  0.4504690000000  0.4655900000000 1.0
C      1  0.5486310000000  0.4650890000000  0.5293730000000 1.0
C      1  0.5257080000000  0.5096120000000  0.4557210000000 1.0
C      1  0.5215980000000  0.4889060000000  0.4347610000000 1.0
C      1  0.5002500000000  0.5685840000000  0.5218330000000 1.0
C      1  0.5757100000000  0.4867500000000  0.4574170000000 1.0
C      1  0.4640290000000  0.5342430000000  0.5655530000000 1.0
C      1  0.4397480000000  0.5176170000000  0.5708240000000 1.0
END
