TITL C-951348-1603-424 -8.56851728301229e-07 125000 -714.699316435759 0 0 115 (C1) n - 1
REM
REM in /home/bkarasulu/work/CARBON/AIRSS/Generating-Clusters/EDIP-Nigel-Params/with-SteepDescent/Only-C1/SD-CG/HFTN-CG
REM
REM
REM
REM
REM
REM ./C.cell (11c1c37f851c82e70ff6c80c92926a4b)
REM
REM compiler GCC version 9.2.1 20190827 (Red Hat 9.2.1-1)
REM options -cpp -mtune=generic -march=x86-64 -g -O0 -fpre-include=/usr/include/finclude/math-vector-fortran.h
REM seed -506557696 683060680 -1538551874 737947484 1937556136 -1575947925 1956062140 -1970468756 1614809331 630907007 1355170900 1652716701 -1557308072 -1336149101 1778711209 1931674349 -1959479576 -435992586 -1249949958 7010062 -1828280043 -514272062 598156161 -336247388 -658504977 -1818606463 -293487969 421901342 597070870 1068222643 598822448 -1155925795 -755163466
REM
CELL 1.54180   50.00000   50.00000   50.00000   90.00000   90.00000   90.00000
LATT -1
SFAC C  
C      1  0.4721290000000  0.4221210000000  0.5469090000000 1.0
C      1  0.5347710000000  0.5129600000000  0.5173320000000 1.0
C      1  0.4385070000000  0.5101660000000  0.5287560000000 1.0
C      1  0.5277020000000  0.5913440000000  0.5316600000000 1.0
C      1  0.5041810000000  0.5219900000000  0.5102260000000 1.0
C      1  0.5620160000000  0.4483720000000  0.4946410000000 1.0
C      1  0.5257620000000  0.5135330000000  0.5881730000000 1.0
C      1  0.5345650000000  0.5457940000000  0.4817390000000 1.0
C      1  0.4724230000000  0.4473650000000  0.4245530000000 1.0
C      1  0.5081300000000  0.4382070000000  0.4812220000000 1.0
C      1  0.5535760000000  0.4984730000000  0.4716560000000 1.0
C      1  0.5260300000000  0.5878470000000  0.5041110000000 1.0
C      1  0.4169180000000  0.5318170000000  0.4928770000000 1.0
C      1  0.4994520000000  0.5756470000000  0.4963510000000 1.0
C      1  0.5458510000000  0.4298470000000  0.5130570000000 1.0
C      1  0.4777660000000  0.5060470000000  0.5947550000000 1.0
C      1  0.5005850000000  0.5258890000000  0.5943830000000 1.0
C      1  0.4594920000000  0.5836230000000  0.4728210000000 1.0
C      1  0.5014310000000  0.5558360000000  0.4394380000000 1.0
C      1  0.5055770000000  0.5452390000000  0.4879300000000 1.0
C      1  0.5015520000000  0.4120030000000  0.5241010000000 1.0
C      1  0.4589610000000  0.5352450000000  0.4624420000000 1.0
C      1  0.5550980000000  0.4794430000000  0.5677410000000 1.0
C      1  0.5436080000000  0.4834700000000  0.5163050000000 1.0
C      1  0.5720970000000  0.5632760000000  0.5079070000000 1.0
C      1  0.4599380000000  0.5177900000000  0.5103950000000 1.0
C      1  0.4115750000000  0.4816450000000  0.5076520000000 1.0
C      1  0.4260060000000  0.4574160000000  0.4325640000000 1.0
C      1  0.5684860000000  0.5609450000000  0.5352870000000 1.0
C      1  0.5244910000000  0.4210010000000  0.4614940000000 1.0
C      1  0.4725400000000  0.4895620000000  0.4722650000000 1.0
C      1  0.4879950000000  0.5886200000000  0.4715210000000 1.0
C      1  0.4907090000000  0.5336010000000  0.5431270000000 1.0
C      1  0.4444580000000  0.4915380000000  0.5531440000000 1.0
C      1  0.5044140000000  0.5008570000000  0.4339950000000 1.0
C      1  0.4517970000000  0.5797610000000  0.5002940000000 1.0
C      1  0.5790840000000  0.5374500000000  0.4955560000000 1.0
C      1  0.4579960000000  0.4968010000000  0.4263360000000 1.0
C      1  0.5228360000000  0.4241600000000  0.5545580000000 1.0
C      1  0.5086430000000  0.4594330000000  0.5272890000000 1.0
C      1  0.4979680000000  0.5595210000000  0.5571550000000 1.0
C      1  0.5648510000000  0.5050040000000  0.5574800000000 1.0
C      1  0.4680050000000  0.4737620000000  0.5472630000000 1.0
C      1  0.4605320000000  0.5320870000000  0.5517990000000 1.0
C      1  0.5882230000000  0.5411990000000  0.4671570000000 1.0
C      1  0.5143580000000  0.4669610000000  0.4768980000000 1.0
C      1  0.4482120000000  0.5372340000000  0.4917220000000 1.0
C      1  0.4642450000000  0.4509670000000  0.5028370000000 1.0
C      1  0.5871250000000  0.4536640000000  0.5376410000000 1.0
C      1  0.4551170000000  0.5120290000000  0.5746620000000 1.0
C      1  0.5847290000000  0.5011180000000  0.5380680000000 1.0
C      1  0.5267270000000  0.5483150000000  0.4297390000000 1.0
C      1  0.4091950000000  0.5226780000000  0.4654770000000 1.0
C      1  0.4271270000000  0.4455300000000  0.4584380000000 1.0
C      1  0.4771510000000  0.4301990000000  0.4847600000000 1.0
C      1  0.4312120000000  0.4457020000000  0.5401290000000 1.0
C      1  0.4249270000000  0.4735670000000  0.4792260000000 1.0
C      1  0.5829420000000  0.4914610000000  0.4618840000000 1.0
C      1  0.5085210000000  0.5114920000000  0.5533890000000 1.0
C      1  0.4276610000000  0.5648140000000  0.5366870000000 1.0
C      1  0.5501880000000  0.4949730000000  0.4327450000000 1.0
C      1  0.5414980000000  0.5216480000000  0.5473030000000 1.0
C      1  0.5181000000000  0.4637810000000  0.4130760000000 1.0
C      1  0.5418510000000  0.4740450000000  0.4868150000000 1.0
C      1  0.5466010000000  0.5510490000000  0.5488660000000 1.0
C      1  0.4273640000000  0.5655580000000  0.5084510000000 1.0
C      1  0.4576100000000  0.4461760000000  0.5553610000000 1.0
C      1  0.5481030000000  0.5711970000000  0.4904170000000 1.0
C      1  0.5485770000000  0.4310520000000  0.5426760000000 1.0
C      1  0.5942640000000  0.5162420000000  0.4552270000000 1.0
C      1  0.4758940000000  0.5769120000000  0.5162620000000 1.0
C      1  0.4742010000000  0.5748610000000  0.5459080000000 1.0
C      1  0.5165950000000  0.4350100000000  0.5107100000000 1.0
C      1  0.4531830000000  0.5058550000000  0.4544860000000 1.0
C      1  0.5515540000000  0.5236380000000  0.4916770000000 1.0
C      1  0.4249000000000  0.4981420000000  0.4608710000000 1.0
C      1  0.5492650000000  0.4105400000000  0.4705420000000 1.0
C      1  0.4816150000000  0.4712610000000  0.5199810000000 1.0
C      1  0.4577150000000  0.4103190000000  0.5242490000000 1.0
C      1  0.4411290000000  0.5532570000000  0.4460350000000 1.0
C      1  0.5706050000000  0.4750920000000  0.4388220000000 1.0
C      1  0.4154050000000  0.5423560000000  0.4463280000000 1.0
C      1  0.4493030000000  0.5602290000000  0.5538970000000 1.0
C      1  0.4785880000000  0.4062440000000  0.5038300000000 1.0
C      1  0.4120150000000  0.5107160000000  0.5142090000000 1.0
C      1  0.4975840000000  0.4795000000000  0.4554330000000 1.0
C      1  0.4988520000000  0.4565880000000  0.4345180000000 1.0
C      1  0.4901720000000  0.5389630000000  0.4616560000000 1.0
C      1  0.5666270000000  0.4330270000000  0.4693080000000 1.0
C      1  0.5000040000000  0.5827540000000  0.4471330000000 1.0
C      1  0.4418810000000  0.4338310000000  0.5156640000000 1.0
C      1  0.4820680000000  0.4999060000000  0.5024400000000 1.0
C      1  0.4545190000000  0.4688070000000  0.4826790000000 1.0
C      1  0.5597350000000  0.5828450000000  0.4664890000000 1.0
C      1  0.5246040000000  0.5693220000000  0.5484640000000 1.0
C      1  0.5105830000000  0.4497750000000  0.5555940000000 1.0
C      1  0.5314990000000  0.4368410000000  0.4368500000000 1.0
C      1  0.4508910000000  0.4676320000000  0.4227310000000 1.0
C      1  0.5304270000000  0.4855810000000  0.5817830000000 1.0
C      1  0.4900060000000  0.4873160000000  0.5631030000000 1.0
C      1  0.5747640000000  0.4889760000000  0.5146010000000 1.0
C      1  0.4871910000000  0.4767250000000  0.5992290000000 1.0
C      1  0.5535550000000  0.5501190000000  0.4322660000000 1.0
C      1  0.5705350000000  0.5606780000000  0.4519670000000 1.0
C      1  0.4967250000000  0.5522830000000  0.5852210000000 1.0
C      1  0.4540540000000  0.4298990000000  0.4608520000000 1.0
C      1  0.5126000000000  0.4643280000000  0.5905420000000 1.0
C      1  0.4432370000000  0.5807900000000  0.4502370000000 1.0
C      1  0.5856200000000  0.4614540000000  0.5098180000000 1.0
C      1  0.4826580000000  0.5052750000000  0.4169350000000 1.0
C      1  0.4183780000000  0.4708460000000  0.5340390000000 1.0
C      1  0.5584650000000  0.4602040000000  0.5438220000000 1.0
C      1  0.5582520000000  0.4483330000000  0.4456860000000 1.0
C      1  0.5264680000000  0.4909730000000  0.4178570000000 1.0
C      1  0.4639450000000  0.4228380000000  0.4353660000000 1.0
END
