TITL C-951344-124-475 4.29485159990976e-07 125000 -1019.33588065248 0 0 163 (C1) n - 1
REM
REM in /home/bkarasulu/work/CARBON/AIRSS/Generating-Clusters/EDIP-Nigel-Params/with-SteepDescent/Only-C1/SD-CG/HFTN-CG
REM
REM
REM
REM
REM
REM ./C.cell (11c1c37f851c82e70ff6c80c92926a4b)
REM
REM compiler GCC version 9.2.1 20190827 (Red Hat 9.2.1-1)
REM options -cpp -mtune=generic -march=x86-64 -g -O0 -fpre-include=/usr/include/finclude/math-vector-fortran.h
REM seed -1558818331 1351176457 52972408 113015134 -189640428 1603596655 287439628 -300774400 485837174 -1030607413 2096996601 -528418142 -1357996400 -714343917 1085695864 -1163126681 -1708327378 -1896304925 1761774856 -21392153 -1208718735 422021223 -829541304 548715246 -1921249210 -1211677273 -239413179 -948526596 1683884230 228997043 1285180578 1609289575 -1833815275
REM
CELL 1.54180   50.00000   50.00000   50.00000   90.00000   90.00000   90.00000
LATT -1
SFAC C  
C      1  0.5469260000000  0.5834340000000  0.4466520000000 1.0
C      1  0.5056840000000  0.5123290000000  0.4656680000000 1.0
C      1  0.4604150000000  0.4080360000000  0.5410240000000 1.0
C      1  0.5332890000000  0.5463100000000  0.4781000000000 1.0
C      1  0.5368290000000  0.4642040000000  0.5476710000000 1.0
C      1  0.4743380000000  0.5776840000000  0.4661270000000 1.0
C      1  0.6044600000000  0.5042420000000  0.4578220000000 1.0
C      1  0.5303440000000  0.4596240000000  0.4006000000000 1.0
C      1  0.5177830000000  0.5015160000000  0.4413590000000 1.0
C      1  0.4990810000000  0.4420610000000  0.5807380000000 1.0
C      1  0.4953490000000  0.4227090000000  0.4850770000000 1.0
C      1  0.5456580000000  0.5322600000000  0.5904330000000 1.0
C      1  0.4869590000000  0.4060130000000  0.4413000000000 1.0
C      1  0.4869510000000  0.5884870000000  0.5432770000000 1.0
C      1  0.5077760000000  0.6113510000000  0.5089520000000 1.0
C      1  0.5276950000000  0.3975940000000  0.5112870000000 1.0
C      1  0.4872560000000  0.4834240000000  0.4391150000000 1.0
C      1  0.4474420000000  0.4568160000000  0.5125300000000 1.0
C      1  0.4515150000000  0.5116780000000  0.4300770000000 1.0
C      1  0.4864530000000  0.4884640000000  0.4004700000000 1.0
C      1  0.5146320000000  0.5333820000000  0.5529440000000 1.0
C      1  0.4391750000000  0.5430220000000  0.5210540000000 1.0
C      1  0.4903970000000  0.5716610000000  0.5928950000000 1.0
C      1  0.4570810000000  0.4895900000000  0.4083980000000 1.0
C      1  0.5857860000000  0.5591720000000  0.5106530000000 1.0
C      1  0.4449180000000  0.4317820000000  0.4492670000000 1.0
C      1  0.4799920000000  0.3990990000000  0.4956480000000 1.0
C      1  0.5789490000000  0.5370930000000  0.5561610000000 1.0
C      1  0.4098810000000  0.5577130000000  0.5410030000000 1.0
C      1  0.5139080000000  0.4017600000000  0.5596110000000 1.0
C      1  0.5295250000000  0.3989480000000  0.4608250000000 1.0
C      1  0.4805390000000  0.5364150000000  0.3923820000000 1.0
C      1  0.5997960000000  0.4723000000000  0.5382280000000 1.0
C      1  0.4543120000000  0.5349680000000  0.5824010000000 1.0
C      1  0.5432300000000  0.5713760000000  0.4214170000000 1.0
C      1  0.5482130000000  0.5062420000000  0.4067190000000 1.0
C      1  0.5660130000000  0.5155250000000  0.4953230000000 1.0
C      1  0.4718860000000  0.4563570000000  0.5313010000000 1.0
C      1  0.5498910000000  0.5912420000000  0.5024620000000 1.0
C      1  0.4960860000000  0.4380360000000  0.5320960000000 1.0
C      1  0.4735040000000  0.5371390000000  0.4833000000000 1.0
C      1  0.5007080000000  0.5461900000000  0.5968550000000 1.0
C      1  0.5728810000000  0.5603170000000  0.5374240000000 1.0
C      1  0.5397320000000  0.4620260000000  0.5962690000000 1.0
C      1  0.5493140000000  0.4763930000000  0.4672050000000 1.0
C      1  0.5926360000000  0.4572320000000  0.4803380000000 1.0
C      1  0.5075540000000  0.4171310000000  0.4579440000000 1.0
C      1  0.5119070000000  0.4170150000000  0.5834350000000 1.0
C      1  0.5959270000000  0.4910450000000  0.5602130000000 1.0
C      1  0.5113980000000  0.5552310000000  0.4572790000000 1.0
C      1  0.4650360000000  0.4199610000000  0.4314960000000 1.0
C      1  0.4357440000000  0.5140130000000  0.5903570000000 1.0
C      1  0.4858490000000  0.5669940000000  0.5228120000000 1.0
C      1  0.4708460000000  0.4683480000000  0.5594360000000 1.0
C      1  0.5260320000000  0.4899320000000  0.5360560000000 1.0
C      1  0.6036760000000  0.5359410000000  0.5042970000000 1.0
C      1  0.5132220000000  0.4391410000000  0.5068670000000 1.0
C      1  0.4910930000000  0.5244540000000  0.5061790000000 1.0
C      1  0.5161330000000  0.6003360000000  0.5365350000000 1.0
C      1  0.3961970000000  0.5168820000000  0.5008520000000 1.0
C      1  0.5226390000000  0.4638190000000  0.4672590000000 1.0
C      1  0.4246230000000  0.4490890000000  0.5490510000000 1.0
C      1  0.6014910000000  0.5187800000000  0.5509680000000 1.0
C      1  0.5648440000000  0.4564160000000  0.4387050000000 1.0
C      1  0.6007240000000  0.5230690000000  0.4791000000000 1.0
C      1  0.5744570000000  0.4405380000000  0.4649920000000 1.0
C      1  0.5165820000000  0.4442220000000  0.4457410000000 1.0
C      1  0.3998980000000  0.4915270000000  0.4863790000000 1.0
C      1  0.5239690000000  0.5458710000000  0.5792430000000 1.0
C      1  0.5579200000000  0.5190500000000  0.5680040000000 1.0
C      1  0.4270490000000  0.4259800000000  0.4719940000000 1.0
C      1  0.4911790000000  0.4078910000000  0.5398650000000 1.0
C      1  0.6101680000000  0.4872990000000  0.5164900000000 1.0
C      1  0.5795340000000  0.4665090000000  0.5063310000000 1.0
C      1  0.5460530000000  0.4467140000000  0.5230480000000 1.0
C      1  0.5322400000000  0.5520190000000  0.5102890000000 1.0
C      1  0.4241500000000  0.4717600000000  0.5677030000000 1.0
C      1  0.4723680000000  0.5792920000000  0.4974760000000 1.0
C      1  0.5235090000000  0.5970250000000  0.4597770000000 1.0
C      1  0.5274470000000  0.4886300000000  0.5059000000000 1.0
C      1  0.5553980000000  0.5266250000000  0.4682360000000 1.0
C      1  0.5594350000000  0.4220340000000  0.5376480000000 1.0
C      1  0.4778440000000  0.6091800000000  0.5047490000000 1.0
C      1  0.4760090000000  0.5775910000000  0.5697390000000 1.0
C      1  0.4542840000000  0.4043830000000  0.5112410000000 1.0
C      1  0.4100010000000  0.4657860000000  0.4480490000000 1.0
C      1  0.5888060000000  0.5114700000000  0.4346830000000 1.0
C      1  0.4382540000000  0.5932230000000  0.5283390000000 1.0
C      1  0.5253110000000  0.5982890000000  0.4890410000000 1.0
C      1  0.4458260000000  0.5289650000000  0.4744720000000 1.0
C      1  0.5386560000000  0.5168290000000  0.5444360000000 1.0
C      1  0.5416310000000  0.4037660000000  0.4854680000000 1.0
C      1  0.5182220000000  0.4674370000000  0.6112770000000 1.0
C      1  0.4527630000000  0.5605920000000  0.5661650000000 1.0
C      1  0.4802040000000  0.4773330000000  0.4934900000000 1.0
C      1  0.4104920000000  0.4497680000000  0.5230450000000 1.0
C      1  0.5217760000000  0.5203870000000  0.4160630000000 1.0
C      1  0.5419610000000  0.5838020000000  0.5300470000000 1.0
C      1  0.5198420000000  0.5549540000000  0.4263050000000 1.0
C      1  0.4533600000000  0.5061460000000  0.5360300000000 1.0
C      1  0.5755560000000  0.4233230000000  0.5127530000000 1.0
C      1  0.4441880000000  0.5584000000000  0.4284350000000 1.0
C      1  0.4773610000000  0.4994510000000  0.6055660000000 1.0
C      1  0.4996570000000  0.5149890000000  0.3960160000000 1.0
C      1  0.5648880000000  0.4950140000000  0.4295010000000 1.0
C      1  0.4466960000000  0.5026120000000  0.4585450000000 1.0
C      1  0.4704570000000  0.4856060000000  0.4652500000000 1.0
C      1  0.5703400000000  0.4919240000000  0.5748150000000 1.0
C      1  0.4961620000000  0.4912620000000  0.5438060000000 1.0
C      1  0.4992770000000  0.3912460000000  0.5161130000000 1.0
C      1  0.4709910000000  0.4418830000000  0.4115380000000 1.0
C      1  0.5628610000000  0.4233720000000  0.4869730000000 1.0
C      1  0.5741510000000  0.5429830000000  0.4506290000000 1.0
C      1  0.4045180000000  0.4635980000000  0.4968870000000 1.0
C      1  0.4265600000000  0.4893950000000  0.5310970000000 1.0
C      1  0.4411450000000  0.4655070000000  0.5923990000000 1.0
C      1  0.5672630000000  0.5712850000000  0.4909610000000 1.0
C      1  0.4647770000000  0.6078400000000  0.5320640000000 1.0
C      1  0.6042450000000  0.4773260000000  0.4649520000000 1.0
C      1  0.4818320000000  0.5237820000000  0.5874510000000 1.0
C      1  0.4485130000000  0.4919680000000  0.6059410000000 1.0
C      1  0.4922480000000  0.4550430000000  0.4317240000000 1.0
C      1  0.5108580000000  0.4508230000000  0.5546330000000 1.0
C      1  0.4966270000000  0.4823880000000  0.6157410000000 1.0
C      1  0.5465560000000  0.5008760000000  0.4519320000000 1.0
C      1  0.4086220000000  0.4944140000000  0.4583650000000 1.0
C      1  0.4898300000000  0.5346370000000  0.4588880000000 1.0
C      1  0.4421850000000  0.5714000000000  0.5050510000000 1.0
C      1  0.5162390000000  0.5147130000000  0.4929460000000 1.0
C      1  0.4122050000000  0.5307220000000  0.5462580000000 1.0
C      1  0.4081560000000  0.5428820000000  0.4740150000000 1.0
C      1  0.4726700000000  0.5551020000000  0.4144150000000 1.0
C      1  0.4418630000000  0.4863240000000  0.4989630000000 1.0
C      1  0.5007130000000  0.4604880000000  0.3948000000000 1.0
C      1  0.4478770000000  0.5688820000000  0.4561190000000 1.0
C      1  0.4479650000000  0.4617930000000  0.4123560000000 1.0
C      1  0.4347080000000  0.4555480000000  0.4371420000000 1.0
C      1  0.4308270000000  0.5745580000000  0.5509370000000 1.0
C      1  0.4544790000000  0.4951670000000  0.5627350000000 1.0
C      1  0.4941130000000  0.5149310000000  0.5613670000000 1.0
C      1  0.4788790000000  0.4996400000000  0.5193430000000 1.0
C      1  0.5567900000000  0.4861090000000  0.4957770000000 1.0
C      1  0.4068160000000  0.4478460000000  0.4718590000000 1.0
C      1  0.4290570000000  0.5319100000000  0.4269140000000 1.0
C      1  0.4768940000000  0.5286620000000  0.4309480000000 1.0
C      1  0.6107760000000  0.5154520000000  0.5237810000000 1.0
C      1  0.5394990000000  0.4460750000000  0.4258530000000 1.0
C      1  0.5527820000000  0.5317700000000  0.5206890000000 1.0
C      1  0.4038450000000  0.5096340000000  0.5293040000000 1.0
C      1  0.5099640000000  0.4665680000000  0.4935460000000 1.0
C      1  0.4269850000000  0.5668460000000  0.4772840000000 1.0
C      1  0.4472820000000  0.4304570000000  0.5573640000000 1.0
C      1  0.4957780000000  0.5732920000000  0.4205990000000 1.0
C      1  0.5051040000000  0.5451360000000  0.5237770000000 1.0
C      1  0.5383930000000  0.4009280000000  0.5389430000000 1.0
C      1  0.5539400000000  0.4673000000000  0.5728710000000 1.0
C      1  0.5676390000000  0.5692760000000  0.4620020000000 1.0
C      1  0.4632400000000  0.4451950000000  0.5802260000000 1.0
C      1  0.4348040000000  0.5200720000000  0.4994310000000 1.0
C      1  0.4952600000000  0.5895510000000  0.4472150000000 1.0
C      1  0.5438680000000  0.4827900000000  0.3925530000000 1.0
C      1  0.4095130000000  0.5253750000000  0.4493920000000 1.0
C      1  0.4359970000000  0.4229560000000  0.4991970000000 1.0
END
