TITL C-951338-5626-407 -3.90128913354989e-07 125000 -133.100313474703 0 0 23 (C1) n - 1
REM
REM in /home/bkarasulu/work/CARBON/AIRSS/Generating-Clusters/EDIP-Nigel-Params/with-SteepDescent/Only-C1/SD-CG/HFTN-CG
REM
REM
REM
REM
REM
REM ./C.cell (11c1c37f851c82e70ff6c80c92926a4b)
REM
REM compiler GCC version 9.2.1 20190827 (Red Hat 9.2.1-1)
REM options -cpp -mtune=generic -march=x86-64 -g -O0 -fpre-include=/usr/include/finclude/math-vector-fortran.h
REM seed 265959137 116159407 -438860386 1104270019 703000741 -1207879586 -157359552 668856831 -433465692 -1465727266 -1096934446 -1222525408 -1018412025 -714073029 990416626 -1004151212 -916066230 -1201934303 902302078 -1789410072 -1881732009 -572837188 551352216 -760805102 -612449465 1983143657 -139880118 -1992475531 2037605988 1280800741 -1840543536 -1862151751 1979874593
REM
CELL 1.54180   50.00000   50.00000   50.00000   90.00000   90.00000   90.00000
LATT -1
SFAC C  
C      1  0.5414210000000  0.5211010000000  0.4868340000000 1.0
C      1  0.4908770000000  0.4422100000000  0.5070280000000 1.0
C      1  0.4847850000000  0.5333880000000  0.4480820000000 1.0
C      1  0.4688230000000  0.5029780000000  0.5451670000000 1.0
C      1  0.4566750000000  0.4764340000000  0.4861310000000 1.0
C      1  0.4453070000000  0.4911460000000  0.5065820000000 1.0
C      1  0.4532230000000  0.5359060000000  0.5172840000000 1.0
C      1  0.5976380000000  0.4758430000000  0.4837850000000 1.0
C      1  0.4966080000000  0.5500800000000  0.4654490000000 1.0
C      1  0.5141790000000  0.5062350000000  0.5223930000000 1.0
C      1  0.4626610000000  0.4896340000000  0.4626940000000 1.0
C      1  0.4953760000000  0.5052560000000  0.5426070000000 1.0
C      1  0.4748050000000  0.5483670000000  0.5075740000000 1.0
C      1  0.4717680000000  0.4545320000000  0.4932410000000 1.0
C      1  0.5359680000000  0.4879150000000  0.5200470000000 1.0
C      1  0.4719730000000  0.5100350000000  0.4483600000000 1.0
C      1  0.4496700000000  0.5100080000000  0.5263820000000 1.0
C      1  0.5325910000000  0.4613790000000  0.5271190000000 1.0
C      1  0.5756950000000  0.4867810000000  0.4911480000000 1.0
C      1  0.5135380000000  0.4437490000000  0.5208400000000 1.0
C      1  0.5179610000000  0.5259880000000  0.5017560000000 1.0
C      1  0.5506380000000  0.4963790000000  0.4967900000000 1.0
C      1  0.4978210000000  0.5446580000000  0.4927080000000 1.0
END
