TITL C-950522-5749-284 -6.33682964330166e-07 125000 -1073.89277408075 0 0 171 (C1) n - 1
REM
REM in /home/bkarasulu/work/CARBON/AIRSS/Generating-Clusters/EDIP-Nigel-Params/with-SteepDescent/Only-C1/SD-CG/HFTN-CG
REM
REM
REM
REM
REM
REM ./C.cell (11c1c37f851c82e70ff6c80c92926a4b)
REM
REM compiler GCC version 9.2.1 20190827 (Red Hat 9.2.1-1)
REM options -cpp -mtune=generic -march=x86-64 -g -O0 -fpre-include=/usr/include/finclude/math-vector-fortran.h
REM seed 121275557 -1922594386 1159105353 525428557 -48935773 1563034163 -432840727 -3835752 -756634599 -904281428 -809058623 -1398755711 -1683040324 968748673 -1514909782 665906686 -1788359089 -1624869810 555491326 2069498494 -1944377968 -1552042603 -1102484376 836696295 1357657285 2059027943 348015390 2047342041 -2053111218 -154277831 1167365918 1657730163 303422065
REM
CELL 1.54180   50.00000   50.00000   50.00000   90.00000   90.00000   90.00000
LATT -1
SFAC C  
C      1  0.5540330000000  0.5133700000000  0.4212040000000 1.0
C      1  0.5686530000000  0.5799680000000  0.5349150000000 1.0
C      1  0.5898210000000  0.5321100000000  0.4430730000000 1.0
C      1  0.5143210000000  0.4068920000000  0.5656150000000 1.0
C      1  0.4398580000000  0.4929640000000  0.4347920000000 1.0
C      1  0.5671010000000  0.4364220000000  0.4350080000000 1.0
C      1  0.4894560000000  0.4618730000000  0.4624120000000 1.0
C      1  0.5658790000000  0.4523210000000  0.5760300000000 1.0
C      1  0.4754760000000  0.5911450000000  0.4663940000000 1.0
C      1  0.4537100000000  0.4823580000000  0.5930440000000 1.0
C      1  0.5404320000000  0.5032030000000  0.5997120000000 1.0
C      1  0.5836620000000  0.5327080000000  0.5665240000000 1.0
C      1  0.4101260000000  0.5071460000000  0.5598290000000 1.0
C      1  0.4891810000000  0.4328510000000  0.5038000000000 1.0
C      1  0.5601870000000  0.4212970000000  0.5272620000000 1.0
C      1  0.4115190000000  0.4402280000000  0.5242230000000 1.0
C      1  0.4075830000000  0.5241880000000  0.4838340000000 1.0
C      1  0.4069250000000  0.5491660000000  0.5448370000000 1.0
C      1  0.5549520000000  0.4575920000000  0.4773960000000 1.0
C      1  0.4937280000000  0.4383630000000  0.4162000000000 1.0
C      1  0.4703550000000  0.5249780000000  0.4063100000000 1.0
C      1  0.5643660000000  0.4845440000000  0.5268530000000 1.0
C      1  0.4850200000000  0.4358070000000  0.4444180000000 1.0
C      1  0.5288310000000  0.5250690000000  0.5195800000000 1.0
C      1  0.4692820000000  0.5038620000000  0.5169850000000 1.0
C      1  0.5157790000000  0.5339390000000  0.3949860000000 1.0
C      1  0.5045900000000  0.5936130000000  0.4670810000000 1.0
C      1  0.5925540000000  0.4765110000000  0.4299290000000 1.0
C      1  0.4096650000000  0.5553870000000  0.4844030000000 1.0
C      1  0.5221230000000  0.4384270000000  0.4109120000000 1.0
C      1  0.4804150000000  0.3847840000000  0.5361770000000 1.0
C      1  0.5422140000000  0.4521840000000  0.5943980000000 1.0
C      1  0.5173170000000  0.5623380000000  0.3964420000000 1.0
C      1  0.4446590000000  0.5395210000000  0.5064770000000 1.0
C      1  0.5932690000000  0.5185600000000  0.4671350000000 1.0
C      1  0.5380620000000  0.5176980000000  0.4768660000000 1.0
C      1  0.5482300000000  0.4758620000000  0.4540990000000 1.0
C      1  0.5838980000000  0.4264400000000  0.5097590000000 1.0
C      1  0.5519300000000  0.4984210000000  0.5525870000000 1.0
C      1  0.4548910000000  0.4373840000000  0.4377860000000 1.0
C      1  0.4559000000000  0.5512170000000  0.4089250000000 1.0
C      1  0.4655190000000  0.4014990000000  0.5549390000000 1.0
C      1  0.5867930000000  0.5641740000000  0.4744400000000 1.0
C      1  0.4218620000000  0.5596400000000  0.4579950000000 1.0
C      1  0.5059080000000  0.4538100000000  0.4885810000000 1.0
C      1  0.4563030000000  0.4651580000000  0.4995170000000 1.0
C      1  0.5374730000000  0.5515460000000  0.5102450000000 1.0
C      1  0.5009410000000  0.4751640000000  0.3919230000000 1.0
C      1  0.4101030000000  0.4908100000000  0.4429320000000 1.0
C      1  0.6010750000000  0.5373950000000  0.5423520000000 1.0
C      1  0.5274880000000  0.4623070000000  0.3952570000000 1.0
C      1  0.5669030000000  0.5757610000000  0.4591050000000 1.0
C      1  0.5149770000000  0.5274760000000  0.5457740000000 1.0
C      1  0.4855060000000  0.4122390000000  0.5755320000000 1.0
C      1  0.5079500000000  0.4775210000000  0.5371020000000 1.0
C      1  0.4973860000000  0.5714560000000  0.5244160000000 1.0
C      1  0.5448600000000  0.5784950000000  0.4766230000000 1.0
C      1  0.5103690000000  0.5627870000000  0.4974950000000 1.0
C      1  0.4999070000000  0.4786510000000  0.6070040000000 1.0
C      1  0.5062760000000  0.5778550000000  0.4170650000000 1.0
C      1  0.4169390000000  0.4795290000000  0.5567720000000 1.0
C      1  0.5215520000000  0.5808930000000  0.4433860000000 1.0
C      1  0.4119400000000  0.5397720000000  0.4387780000000 1.0
C      1  0.5721320000000  0.5215980000000  0.4883180000000 1.0
C      1  0.5858300000000  0.4659920000000  0.5391580000000 1.0
C      1  0.4502050000000  0.5500600000000  0.4594550000000 1.0
C      1  0.5083690000000  0.5384950000000  0.4432900000000 1.0
C      1  0.4790530000000  0.4604640000000  0.4045580000000 1.0
C      1  0.4604410000000  0.5852960000000  0.4934440000000 1.0
C      1  0.4625740000000  0.5300420000000  0.5317090000000 1.0
C      1  0.4039580000000  0.4374510000000  0.4961920000000 1.0
C      1  0.4949380000000  0.4967330000000  0.3758010000000 1.0
C      1  0.5687770000000  0.5390720000000  0.4263400000000 1.0
C      1  0.5208610000000  0.5194860000000  0.4223290000000 1.0
C      1  0.4527490000000  0.5119300000000  0.4591220000000 1.0
C      1  0.5267820000000  0.5453230000000  0.4669650000000 1.0
C      1  0.4363390000000  0.5143160000000  0.4881680000000 1.0
C      1  0.3971610000000  0.4639780000000  0.4852790000000 1.0
C      1  0.4840880000000  0.5827570000000  0.5694690000000 1.0
C      1  0.5140700000000  0.6062360000000  0.4919850000000 1.0
C      1  0.4667240000000  0.3777590000000  0.5128510000000 1.0
C      1  0.5756100000000  0.4580280000000  0.4153350000000 1.0
C      1  0.4008810000000  0.5164580000000  0.4540360000000 1.0
C      1  0.4894670000000  0.5142520000000  0.4927760000000 1.0
C      1  0.5818650000000  0.4781470000000  0.5766180000000 1.0
C      1  0.4521650000000  0.4442540000000  0.5650160000000 1.0
C      1  0.4593980000000  0.4369430000000  0.5104490000000 1.0
C      1  0.4665580000000  0.3928330000000  0.4897580000000 1.0
C      1  0.5413190000000  0.5664980000000  0.5375630000000 1.0
C      1  0.4214920000000  0.4190480000000  0.5396280000000 1.0
C      1  0.5017750000000  0.4946740000000  0.4458200000000 1.0
C      1  0.4214560000000  0.5225170000000  0.5816380000000 1.0
C      1  0.4430390000000  0.5097400000000  0.4097850000000 1.0
C      1  0.5270980000000  0.4198630000000  0.4573600000000 1.0
C      1  0.5765020000000  0.4175010000000  0.4828470000000 1.0
C      1  0.4933260000000  0.4064640000000  0.4879400000000 1.0
C      1  0.5545410000000  0.4376950000000  0.5514980000000 1.0
C      1  0.4809240000000  0.5043490000000  0.4656580000000 1.0
C      1  0.5162670000000  0.5228520000000  0.6015720000000 1.0
C      1  0.4493890000000  0.4254490000000  0.5423650000000 1.0
C      1  0.3971370000000  0.4828720000000  0.5081670000000 1.0
C      1  0.4130840000000  0.4694730000000  0.5293340000000 1.0
C      1  0.5685970000000  0.5038210000000  0.5874350000000 1.0
C      1  0.5595570000000  0.5011840000000  0.3950320000000 1.0
C      1  0.5430620000000  0.6009400000000  0.4955880000000 1.0
C      1  0.4237460000000  0.5685670000000  0.5320050000000 1.0
C      1  0.5180300000000  0.3952080000000  0.5054330000000 1.0
C      1  0.5285040000000  0.4766930000000  0.6009640000000 1.0
C      1  0.4055310000000  0.5219100000000  0.5352390000000 1.0
C      1  0.5104630000000  0.5920370000000  0.5669490000000 1.0
C      1  0.5593730000000  0.5272390000000  0.5518370000000 1.0
C      1  0.5428640000000  0.4133090000000  0.5009030000000 1.0
C      1  0.5957330000000  0.4543230000000  0.5125210000000 1.0
C      1  0.5948130000000  0.4780910000000  0.4923880000000 1.0
C      1  0.4285740000000  0.5368070000000  0.4133160000000 1.0
C      1  0.4950920000000  0.6160040000000  0.5110210000000 1.0
C      1  0.3952140000000  0.5120920000000  0.5089890000000 1.0
C      1  0.4475940000000  0.4163720000000  0.4909720000000 1.0
C      1  0.5473000000000  0.4708570000000  0.5065210000000 1.0
C      1  0.5379070000000  0.4338850000000  0.4347300000000 1.0
C      1  0.6009440000000  0.4900630000000  0.4652230000000 1.0
C      1  0.4925440000000  0.5067150000000  0.6067780000000 1.0
C      1  0.5068570000000  0.3996040000000  0.5346580000000 1.0
C      1  0.4681890000000  0.5094760000000  0.5886960000000 1.0
C      1  0.5873250000000  0.5590590000000  0.5229730000000 1.0
C      1  0.4904080000000  0.5226440000000  0.3849680000000 1.0
C      1  0.4408000000000  0.4700310000000  0.5698460000000 1.0
C      1  0.4653290000000  0.5925340000000  0.5479770000000 1.0
C      1  0.3994950000000  0.4700370000000  0.4581950000000 1.0
C      1  0.4193060000000  0.4186560000000  0.4808630000000 1.0
C      1  0.5221320000000  0.4976550000000  0.5536440000000 1.0
C      1  0.5376280000000  0.5450540000000  0.5580070000000 1.0
C      1  0.5696140000000  0.4927320000000  0.4418120000000 1.0
C      1  0.5079220000000  0.4495310000000  0.5476930000000 1.0
C      1  0.4150620000000  0.5491900000000  0.5735090000000 1.0
C      1  0.4552490000000  0.5398680000000  0.5895480000000 1.0
C      1  0.5011350000000  0.4285770000000  0.5291040000000 1.0
C      1  0.4385100000000  0.5825160000000  0.5525750000000 1.0
C      1  0.5614880000000  0.6010890000000  0.5172110000000 1.0
C      1  0.4887580000000  0.5450230000000  0.5382890000000 1.0
C      1  0.5541910000000  0.5614790000000  0.4372820000000 1.0
C      1  0.4989790000000  0.4127650000000  0.4584600000000 1.0
C      1  0.4773590000000  0.5937170000000  0.5186280000000 1.0
C      1  0.4888540000000  0.5434720000000  0.4892260000000 1.0
C      1  0.6054360000000  0.5099440000000  0.5296730000000 1.0
C      1  0.5323430000000  0.4361710000000  0.4815140000000 1.0
C      1  0.5188090000000  0.4776580000000  0.5077730000000 1.0
C      1  0.4617600000000  0.5544450000000  0.4877150000000 1.0
C      1  0.4433340000000  0.4430950000000  0.4632090000000 1.0
C      1  0.5773110000000  0.4396520000000  0.4641970000000 1.0
C      1  0.5726820000000  0.5510620000000  0.4967340000000 1.0
C      1  0.4801930000000  0.5589180000000  0.5877350000000 1.0
C      1  0.5839720000000  0.5011890000000  0.5095930000000 1.0
C      1  0.6058940000000  0.4869160000000  0.5487440000000 1.0
C      1  0.4343070000000  0.5699950000000  0.5781030000000 1.0
C      1  0.4246920000000  0.5733030000000  0.5033340000000 1.0
C      1  0.4603960000000  0.4656830000000  0.4715150000000 1.0
C      1  0.5183460000000  0.5847440000000  0.5411550000000 1.0
C      1  0.4809800000000  0.4892620000000  0.5394600000000 1.0
C      1  0.4877420000000  0.5579040000000  0.4293050000000 1.0
C      1  0.4671900000000  0.5709100000000  0.4466380000000 1.0
C      1  0.5541710000000  0.4738560000000  0.4007790000000 1.0
C      1  0.5286950000000  0.4957990000000  0.4583050000000 1.0
C      1  0.4406770000000  0.4886130000000  0.5089120000000 1.0
C      1  0.5045260000000  0.5485610000000  0.5980540000000 1.0
C      1  0.5271050000000  0.4349140000000  0.5653340000000 1.0
C      1  0.4543330000000  0.4631080000000  0.4220430000000 1.0
C      1  0.4771690000000  0.4411460000000  0.5785890000000 1.0
C      1  0.5180000000000  0.5075140000000  0.4995300000000 1.0
C      1  0.4774450000000  0.5086450000000  0.5606050000000 1.0
C      1  0.4761280000000  0.4626190000000  0.5994070000000 1.0
END
