TITL C-950529-3362-616 3.11153443612501e-06 125000 -470.854226532533 0 0 77 (C1) n - 1
REM
REM in /home/bkarasulu/work/CARBON/AIRSS/Generating-Clusters/EDIP-Nigel-Params/with-SteepDescent/Only-C1/SD-CG/HFTN-CG
REM
REM
REM
REM
REM
REM ./C.cell (11c1c37f851c82e70ff6c80c92926a4b)
REM
REM compiler GCC version 9.2.1 20190827 (Red Hat 9.2.1-1)
REM options -cpp -mtune=generic -march=x86-64 -g -O0 -fpre-include=/usr/include/finclude/math-vector-fortran.h
REM seed -1046127084 -946400578 91222686 1110026828 -1946001007 624800443 1302263290 1985236859 1306491963 -1282887046 -983524863 -17397003 1137867552 693750974 1571056289 -709084881 980419597 -707064830 -326175045 1733388307 -478742096 1978777451 1560151655 -439066808 2001243113 -112760818 192637942 -1170830086 1171203768 -19355120 -1527733147 1037868914 1124054999
REM
CELL 1.54180   50.00000   50.00000   50.00000   90.00000   90.00000   90.00000
LATT -1
SFAC C  
C      1  0.4469010000000  0.5540640000000  0.5340800000000 1.0
C      1  0.5327800000000  0.5064260000000  0.5468910000000 1.0
C      1  0.5363220000000  0.5208490000000  0.5215200000000 1.0
C      1  0.5553060000000  0.4888340000000  0.5524660000000 1.0
C      1  0.5007440000000  0.5579270000000  0.4532060000000 1.0
C      1  0.4426760000000  0.5216830000000  0.4585720000000 1.0
C      1  0.4613410000000  0.4537070000000  0.4426600000000 1.0
C      1  0.4992040000000  0.4686800000000  0.4708990000000 1.0
C      1  0.4777390000000  0.5225030000000  0.4295010000000 1.0
C      1  0.4760040000000  0.4295550000000  0.4431260000000 1.0
C      1  0.5168440000000  0.5440230000000  0.5638960000000 1.0
C      1  0.4402030000000  0.4557040000000  0.4631190000000 1.0
C      1  0.5171120000000  0.4483420000000  0.4591240000000 1.0
C      1  0.5597710000000  0.4766370000000  0.5246670000000 1.0
C      1  0.4979530000000  0.4243000000000  0.4598770000000 1.0
C      1  0.4817600000000  0.5163650000000  0.5808780000000 1.0
C      1  0.5269440000000  0.5531910000000  0.4389630000000 1.0
C      1  0.5467650000000  0.5492310000000  0.4598950000000 1.0
C      1  0.5561190000000  0.5504770000000  0.5348750000000 1.0
C      1  0.5587890000000  0.4717020000000  0.4667940000000 1.0
C      1  0.5566030000000  0.5564100000000  0.5067500000000 1.0
C      1  0.4587460000000  0.5005520000000  0.5742800000000 1.0
C      1  0.4307250000000  0.4825550000000  0.4681610000000 1.0
C      1  0.5241800000000  0.4656070000000  0.4341150000000 1.0
C      1  0.4755480000000  0.5500430000000  0.4396420000000 1.0
C      1  0.5480300000000  0.4496270000000  0.5256330000000 1.0
C      1  0.4972480000000  0.4744020000000  0.5192940000000 1.0
C      1  0.5430430000000  0.4850990000000  0.4462950000000 1.0
C      1  0.4318010000000  0.5208040000000  0.5041090000000 1.0
C      1  0.5246600000000  0.4490740000000  0.5428260000000 1.0
C      1  0.4561860000000  0.4566070000000  0.5505540000000 1.0
C      1  0.4689930000000  0.4717040000000  0.5737400000000 1.0
C      1  0.5017030000000  0.5673960000000  0.4812510000000 1.0
C      1  0.4888710000000  0.5155100000000  0.5345680000000 1.0
C      1  0.5042960000000  0.5102410000000  0.4282490000000 1.0
C      1  0.5225310000000  0.4602410000000  0.5711400000000 1.0
C      1  0.5774890000000  0.5170500000000  0.4776500000000 1.0
C      1  0.5487380000000  0.4718990000000  0.5741380000000 1.0
C      1  0.4775780000000  0.5704300000000  0.4998570000000 1.0
C      1  0.4898470000000  0.5346600000000  0.5586500000000 1.0
C      1  0.5293960000000  0.5264740000000  0.4215990000000 1.0
C      1  0.4372720000000  0.5258810000000  0.5324540000000 1.0
C      1  0.5219670000000  0.5203870000000  0.4612030000000 1.0
C      1  0.4281740000000  0.4928300000000  0.4947600000000 1.0
C      1  0.4325460000000  0.5455670000000  0.4878120000000 1.0
C      1  0.5527690000000  0.5092870000000  0.4326180000000 1.0
C      1  0.4464410000000  0.4394520000000  0.4855660000000 1.0
C      1  0.4883930000000  0.4195570000000  0.4860080000000 1.0
C      1  0.5136630000000  0.4260650000000  0.5543210000000 1.0
C      1  0.5648400000000  0.5276440000000  0.4528820000000 1.0
C      1  0.4528070000000  0.5035470000000  0.5448980000000 1.0
C      1  0.4985950000000  0.4825510000000  0.5718660000000 1.0
C      1  0.5077800000000  0.5272710000000  0.5119440000000 1.0
C      1  0.5169470000000  0.5687640000000  0.5244560000000 1.0
C      1  0.5324550000000  0.5606700000000  0.5476230000000 1.0
C      1  0.4485080000000  0.5642390000000  0.5053850000000 1.0
C      1  0.4757450000000  0.4429060000000  0.5287290000000 1.0
C      1  0.4442000000000  0.4746790000000  0.5114010000000 1.0
C      1  0.5434340000000  0.4476640000000  0.4746990000000 1.0
C      1  0.5058860000000  0.5119630000000  0.4865960000000 1.0
C      1  0.5124410000000  0.4834980000000  0.4937730000000 1.0
C      1  0.4713240000000  0.4831220000000  0.5108370000000 1.0
C      1  0.5279230000000  0.5640340000000  0.4973320000000 1.0
C      1  0.4730030000000  0.5590990000000  0.5486440000000 1.0
C      1  0.5754010000000  0.5397470000000  0.4942290000000 1.0
C      1  0.4383130000000  0.4773270000000  0.5394180000000 1.0
C      1  0.4501480000000  0.5491650000000  0.4538830000000 1.0
C      1  0.5432590000000  0.4946770000000  0.5052730000000 1.0
C      1  0.5059050000000  0.4923960000000  0.5438120000000 1.0
C      1  0.5004100000000  0.4803130000000  0.4251950000000 1.0
C      1  0.4675630000000  0.4300950000000  0.5017610000000 1.0
C      1  0.5462770000000  0.4381960000000  0.5006150000000 1.0
C      1  0.5687370000000  0.4896190000000  0.4886460000000 1.0
C      1  0.4882570000000  0.5735720000000  0.5269970000000 1.0
C      1  0.4892530000000  0.4221640000000  0.5431900000000 1.0
C      1  0.4625480000000  0.5042300000000  0.4462260000000 1.0
C      1  0.4793260000000  0.4772340000000  0.4474350000000 1.0
END
