TITL C-951341-1326-301 -2.14780232758355e-06 125000 -900.970541326136 0 0 143 (C1) n - 1
REM
REM in /home/bkarasulu/work/CARBON/AIRSS/Generating-Clusters/EDIP-Nigel-Params/with-SteepDescent/Only-C1/SD-CG/HFTN-CG
REM
REM
REM
REM
REM
REM ./C.cell (11c1c37f851c82e70ff6c80c92926a4b)
REM
REM compiler GCC version 9.2.1 20190827 (Red Hat 9.2.1-1)
REM options -cpp -mtune=generic -march=x86-64 -g -O0 -fpre-include=/usr/include/finclude/math-vector-fortran.h
REM seed 563887802 1520602327 -757507352 947878874 -908473071 564991373 -1241826183 1004931207 1257920751 -1267503287 -1584728740 -909953115 -102377765 -1225073200 1266354405 1317552807 707481235 -1447885705 -540829434 1209115983 -2133003560 -1699139752 -527993814 -36159763 -849138726 -2112161275 -354335529 296031483 -1471381441 -1566174193 -1004327875 22889907 59585783
REM
CELL 1.54180   50.00000   50.00000   50.00000   90.00000   90.00000   90.00000
LATT -1
SFAC C  
C      1  0.4933640000000  0.5330640000000  0.4634530000000 1.0
C      1  0.6037750000000  0.4848390000000  0.4777890000000 1.0
C      1  0.4369570000000  0.4522180000000  0.4210430000000 1.0
C      1  0.5688800000000  0.5794020000000  0.4592790000000 1.0
C      1  0.4431910000000  0.4953460000000  0.5781340000000 1.0
C      1  0.4623790000000  0.4359050000000  0.4191470000000 1.0
C      1  0.4766790000000  0.4942850000000  0.5492710000000 1.0
C      1  0.4116150000000  0.4723920000000  0.4608280000000 1.0
C      1  0.4098660000000  0.4767650000000  0.4901400000000 1.0
C      1  0.5539340000000  0.4721520000000  0.4130510000000 1.0
C      1  0.5086660000000  0.4302450000000  0.5889550000000 1.0
C      1  0.4374420000000  0.4376000000000  0.5103290000000 1.0
C      1  0.5536970000000  0.5300350000000  0.4576010000000 1.0
C      1  0.5088850000000  0.4414530000000  0.4700040000000 1.0
C      1  0.4276920000000  0.5202390000000  0.5729950000000 1.0
C      1  0.5753850000000  0.4872300000000  0.5320640000000 1.0
C      1  0.4067750000000  0.5123510000000  0.5558640000000 1.0
C      1  0.5398680000000  0.4610070000000  0.5964760000000 1.0
C      1  0.4271490000000  0.5253670000000  0.4121000000000 1.0
C      1  0.4908350000000  0.4750670000000  0.5901080000000 1.0
C      1  0.5660170000000  0.4584950000000  0.5815560000000 1.0
C      1  0.4240990000000  0.5519320000000  0.5123530000000 1.0
C      1  0.5466280000000  0.4392340000000  0.5000780000000 1.0
C      1  0.4278950000000  0.5546640000000  0.5401020000000 1.0
C      1  0.5063920000000  0.5064280000000  0.4696080000000 1.0
C      1  0.4117140000000  0.5292350000000  0.4971170000000 1.0
C      1  0.4116460000000  0.4537820000000  0.5089760000000 1.0
C      1  0.5464670000000  0.5210080000000  0.4094570000000 1.0
C      1  0.4225110000000  0.4469990000000  0.4480300000000 1.0
C      1  0.4331180000000  0.4547320000000  0.5534380000000 1.0
C      1  0.4569610000000  0.4595430000000  0.5021230000000 1.0
C      1  0.5492470000000  0.4893830000000  0.5460300000000 1.0
C      1  0.4832920000000  0.4932780000000  0.5221820000000 1.0
C      1  0.4838910000000  0.4504800000000  0.5114710000000 1.0
C      1  0.5401220000000  0.5923280000000  0.4951590000000 1.0
C      1  0.4657210000000  0.4920870000000  0.4326390000000 1.0
C      1  0.4726390000000  0.4104610000000  0.5528710000000 1.0
C      1  0.4732890000000  0.4395410000000  0.5606610000000 1.0
C      1  0.5367170000000  0.4948820000000  0.4038710000000 1.0
C      1  0.4193660000000  0.4987190000000  0.4171060000000 1.0
C      1  0.5909680000000  0.5098260000000  0.5196720000000 1.0
C      1  0.5111280000000  0.5330290000000  0.5790050000000 1.0
C      1  0.4921390000000  0.6118960000000  0.4942360000000 1.0
C      1  0.5862940000000  0.5617320000000  0.4728270000000 1.0
C      1  0.4658880000000  0.3992660000000  0.4948950000000 1.0
C      1  0.5103550000000  0.4350700000000  0.4227580000000 1.0
C      1  0.4367440000000  0.5723190000000  0.4950170000000 1.0
C      1  0.4941220000000  0.3973020000000  0.4946420000000 1.0
C      1  0.5728050000000  0.4830710000000  0.4392300000000 1.0
C      1  0.4638760000000  0.6141570000000  0.4913440000000 1.0
C      1  0.4974060000000  0.4216510000000  0.4488830000000 1.0
C      1  0.4941460000000  0.5834300000000  0.4604040000000 1.0
C      1  0.5370600000000  0.4296540000000  0.4723480000000 1.0
C      1  0.5570200000000  0.4877910000000  0.5747960000000 1.0
C      1  0.5285660000000  0.4643650000000  0.5358730000000 1.0
C      1  0.5071240000000  0.3972900000000  0.4674790000000 1.0
C      1  0.5195490000000  0.5563130000000  0.4294360000000 1.0
C      1  0.4935960000000  0.5561270000000  0.5078670000000 1.0
C      1  0.4876180000000  0.4693880000000  0.3901670000000 1.0
C      1  0.4927760000000  0.5386600000000  0.4319200000000 1.0
C      1  0.5240650000000  0.4937460000000  0.4503280000000 1.0
C      1  0.4470940000000  0.4831680000000  0.5499360000000 1.0
C      1  0.4103150000000  0.5326500000000  0.4694620000000 1.0
C      1  0.5998260000000  0.4956710000000  0.4500930000000 1.0
C      1  0.5169430000000  0.6049130000000  0.5088140000000 1.0
C      1  0.4083080000000  0.4948810000000  0.5338720000000 1.0
C      1  0.5582590000000  0.5760820000000  0.5398530000000 1.0
C      1  0.5377840000000  0.4483700000000  0.4254900000000 1.0
C      1  0.4464910000000  0.4301180000000  0.4636270000000 1.0
C      1  0.4884260000000  0.5060010000000  0.4174320000000 1.0
C      1  0.5567890000000  0.5161120000000  0.5871440000000 1.0
C      1  0.4076130000000  0.4926560000000  0.4420050000000 1.0
C      1  0.6038140000000  0.5232820000000  0.4471540000000 1.0
C      1  0.4848220000000  0.4451610000000  0.5888130000000 1.0
C      1  0.4101090000000  0.4654940000000  0.5366690000000 1.0
C      1  0.4854850000000  0.4881450000000  0.4781230000000 1.0
C      1  0.5135770000000  0.5263690000000  0.5406370000000 1.0
C      1  0.5848290000000  0.4629280000000  0.4810170000000 1.0
C      1  0.5673810000000  0.4428480000000  0.5552360000000 1.0
C      1  0.5741330000000  0.4578670000000  0.4548790000000 1.0
C      1  0.5431090000000  0.5881810000000  0.4657470000000 1.0
C      1  0.4837070000000  0.5381680000000  0.5913270000000 1.0
C      1  0.4530070000000  0.5934130000000  0.5074480000000 1.0
C      1  0.5357790000000  0.5371420000000  0.4830150000000 1.0
C      1  0.5377830000000  0.4192800000000  0.5202730000000 1.0
C      1  0.4848960000000  0.4970120000000  0.3895370000000 1.0
C      1  0.4434580000000  0.4153760000000  0.4899720000000 1.0
C      1  0.5450090000000  0.5410620000000  0.4295780000000 1.0
C      1  0.4298150000000  0.5466710000000  0.4557920000000 1.0
C      1  0.4420290000000  0.5397470000000  0.4310180000000 1.0
C      1  0.5153540000000  0.5533190000000  0.5294220000000 1.0
C      1  0.5726060000000  0.5509160000000  0.5476070000000 1.0
C      1  0.4937230000000  0.4543160000000  0.5415120000000 1.0
C      1  0.5029060000000  0.4614970000000  0.4920750000000 1.0
C      1  0.5094580000000  0.5537870000000  0.4798210000000 1.0
C      1  0.5257620000000  0.5616950000000  0.5756650000000 1.0
C      1  0.5197950000000  0.5808220000000  0.4474840000000 1.0
C      1  0.4730420000000  0.4744310000000  0.4550060000000 1.0
C      1  0.5065910000000  0.5804120000000  0.5869020000000 1.0
C      1  0.5525250000000  0.4399000000000  0.4493000000000 1.0
C      1  0.5287330000000  0.5739840000000  0.5462720000000 1.0
C      1  0.4721000000000  0.5188980000000  0.6079350000000 1.0
C      1  0.4847970000000  0.5769070000000  0.5688430000000 1.0
C      1  0.5201140000000  0.4832130000000  0.5983510000000 1.0
C      1  0.4875780000000  0.4464430000000  0.4071510000000 1.0
C      1  0.4960580000000  0.4784960000000  0.5616470000000 1.0
C      1  0.5218610000000  0.5124330000000  0.4936140000000 1.0
C      1  0.4666780000000  0.5541260000000  0.5736180000000 1.0
C      1  0.5004180000000  0.4078330000000  0.5459650000000 1.0
C      1  0.4434300000000  0.4813330000000  0.4144660000000 1.0
C      1  0.5351070000000  0.4004030000000  0.4707390000000 1.0
C      1  0.5763110000000  0.4464990000000  0.5038510000000 1.0
C      1  0.4862070000000  0.5937290000000  0.5449010000000 1.0
C      1  0.5811200000000  0.5615890000000  0.5019880000000 1.0
C      1  0.5520380000000  0.5354210000000  0.5636290000000 1.0
C      1  0.5281830000000  0.5126150000000  0.5955990000000 1.0
C      1  0.5178280000000  0.4238320000000  0.5629830000000 1.0
C      1  0.4673620000000  0.4210320000000  0.4439890000000 1.0
C      1  0.5098130000000  0.4086360000000  0.5181550000000 1.0
C      1  0.6085500000000  0.5019900000000  0.4994000000000 1.0
C      1  0.4548950000000  0.4890030000000  0.5120460000000 1.0
C      1  0.4796760000000  0.5832730000000  0.5170530000000 1.0
C      1  0.4422170000000  0.4301190000000  0.5396020000000 1.0
C      1  0.5142550000000  0.4917540000000  0.4230690000000 1.0
C      1  0.5521360000000  0.5001300000000  0.4543850000000 1.0
C      1  0.5389820000000  0.4366720000000  0.5453800000000 1.0
C      1  0.4063310000000  0.5018110000000  0.5060390000000 1.0
C      1  0.5297860000000  0.4637900000000  0.5060500000000 1.0
C      1  0.4507030000000  0.5584970000000  0.4722110000000 1.0
C      1  0.4523290000000  0.4594740000000  0.4711620000000 1.0
C      1  0.5143920000000  0.6001080000000  0.5384680000000 1.0
C      1  0.5407750000000  0.5176100000000  0.5427760000000 1.0
C      1  0.4418560000000  0.5432280000000  0.5615410000000 1.0
C      1  0.4694790000000  0.5363220000000  0.4838620000000 1.0
C      1  0.4676210000000  0.5550000000000  0.4285120000000 1.0
C      1  0.5823980000000  0.4580040000000  0.5316270000000 1.0
C      1  0.5832250000000  0.5349400000000  0.4624050000000 1.0
C      1  0.4667850000000  0.4940760000000  0.5969890000000 1.0
C      1  0.5022460000000  0.5136540000000  0.5157730000000 1.0
C      1  0.5633220000000  0.5830180000000  0.5115780000000 1.0
C      1  0.4679800000000  0.5739500000000  0.4518600000000 1.0
C      1  0.4606510000000  0.5069580000000  0.4869700000000 1.0
C      1  0.5833100000000  0.5390760000000  0.5222090000000 1.0
END
