TITL C-951346-9544-36 -3.05737138403339e-06 125000 -1111.38629825532 0 0 177 (C1) n - 1
REM
REM in /home/bkarasulu/work/CARBON/AIRSS/Generating-Clusters/EDIP-Nigel-Params/with-SteepDescent/Only-C1/SD-CG/HFTN-CG
REM
REM
REM
REM
REM
REM ./C.cell (11c1c37f851c82e70ff6c80c92926a4b)
REM
REM compiler GCC version 9.2.1 20190827 (Red Hat 9.2.1-1)
REM options -cpp -mtune=generic -march=x86-64 -g -O0 -fpre-include=/usr/include/finclude/math-vector-fortran.h
REM seed 784177587 1076410215 -191688110 -702536049 403711999 -1685761451 -2027361476 -31214170 -1697604356 655364024 -411435706 1746327862 -1352635564 -1283868906 1127756707 -1011976504 -596906215 503604596 1868551 -1651534926 1576432962 -1858167134 -707824939 379489470 -583799716 1670922923 76062727 -387656567 588177717 -678136289 -910332890 952352263 -1681271220
REM
CELL 1.54180   50.00000   50.00000   50.00000   90.00000   90.00000   90.00000
LATT -1
SFAC C  
C      1  0.4464420000000  0.5865010000000  0.4882030000000 1.0
C      1  0.5546180000000  0.5377620000000  0.6021620000000 1.0
C      1  0.4553330000000  0.4836480000000  0.3962080000000 1.0
C      1  0.4859690000000  0.4997680000000  0.6215810000000 1.0
C      1  0.5540490000000  0.4651570000000  0.5100850000000 1.0
C      1  0.5850860000000  0.5366040000000  0.4946230000000 1.0
C      1  0.4292720000000  0.5010960000000  0.4600620000000 1.0
C      1  0.4722090000000  0.4400660000000  0.5895800000000 1.0
C      1  0.6003670000000  0.4920420000000  0.4413540000000 1.0
C      1  0.4785720000000  0.5253000000000  0.6098360000000 1.0
C      1  0.5433060000000  0.4946020000000  0.5506100000000 1.0
C      1  0.5486930000000  0.5784130000000  0.4284300000000 1.0
C      1  0.4703590000000  0.4718270000000  0.4196370000000 1.0
C      1  0.5155430000000  0.4892660000000  0.3943490000000 1.0
C      1  0.5278640000000  0.5719780000000  0.4083350000000 1.0
C      1  0.4925000000000  0.4569850000000  0.6042300000000 1.0
C      1  0.4102000000000  0.4098230000000  0.4567070000000 1.0
C      1  0.4379150000000  0.4703040000000  0.4614370000000 1.0
C      1  0.4727300000000  0.4879770000000  0.4890250000000 1.0
C      1  0.4818820000000  0.6107730000000  0.5136920000000 1.0
C      1  0.4386540000000  0.5113840000000  0.4318790000000 1.0
C      1  0.5015170000000  0.4877840000000  0.4527390000000 1.0
C      1  0.3999360000000  0.4970490000000  0.4599130000000 1.0
C      1  0.5253870000000  0.5460560000000  0.5010340000000 1.0
C      1  0.4582570000000  0.4330760000000  0.4841300000000 1.0
C      1  0.4731510000000  0.4583970000000  0.5281400000000 1.0
C      1  0.4449000000000  0.3907370000000  0.4848820000000 1.0
C      1  0.4745870000000  0.4635850000000  0.5585480000000 1.0
C      1  0.5975890000000  0.4863290000000  0.5190920000000 1.0
C      1  0.5265650000000  0.4711920000000  0.4473080000000 1.0
C      1  0.3981380000000  0.4764070000000  0.5214510000000 1.0
C      1  0.4286360000000  0.5765230000000  0.5365200000000 1.0
C      1  0.4198600000000  0.5516870000000  0.4737980000000 1.0
C      1  0.4737620000000  0.5127830000000  0.5459050000000 1.0
C      1  0.4411750000000  0.4958890000000  0.5798490000000 1.0
C      1  0.4473150000000  0.5532290000000  0.4195510000000 1.0
C      1  0.5403390000000  0.5586740000000  0.5233640000000 1.0
C      1  0.5769650000000  0.5359420000000  0.4393260000000 1.0
C      1  0.5726590000000  0.4131290000000  0.5145690000000 1.0
C      1  0.5826560000000  0.4663170000000  0.5608250000000 1.0
C      1  0.4178230000000  0.5547790000000  0.5514150000000 1.0
C      1  0.5398960000000  0.4687090000000  0.5362000000000 1.0
C      1  0.5183990000000  0.5066050000000  0.6025600000000 1.0
C      1  0.4872670000000  0.4948760000000  0.4266480000000 1.0
C      1  0.5154880000000  0.4390000000000  0.5664630000000 1.0
C      1  0.4845660000000  0.4704620000000  0.4695060000000 1.0
C      1  0.4784990000000  0.4122310000000  0.5471120000000 1.0
C      1  0.4579700000000  0.5662940000000  0.4430670000000 1.0
C      1  0.5580630000000  0.5730100000000  0.5703230000000 1.0
C      1  0.5780450000000  0.4446500000000  0.5138940000000 1.0
C      1  0.5471370000000  0.5113720000000  0.6081370000000 1.0
C      1  0.5745320000000  0.5102680000000  0.4818510000000 1.0
C      1  0.4516610000000  0.5018220000000  0.5257850000000 1.0
C      1  0.4517250000000  0.5491810000000  0.5244860000000 1.0
C      1  0.4314430000000  0.4910760000000  0.4102570000000 1.0
C      1  0.4673220000000  0.5682370000000  0.5885090000000 1.0
C      1  0.4638620000000  0.6182980000000  0.5337840000000 1.0
C      1  0.5696630000000  0.5596430000000  0.4264420000000 1.0
C      1  0.3738830000000  0.4975710000000  0.4881830000000 1.0
C      1  0.5274080000000  0.4055070000000  0.5356440000000 1.0
C      1  0.5005540000000  0.5195680000000  0.5339890000000 1.0
C      1  0.5030080000000  0.5473060000000  0.5212050000000 1.0
C      1  0.5630600000000  0.4898080000000  0.5958660000000 1.0
C      1  0.5796200000000  0.4109640000000  0.4851290000000 1.0
C      1  0.5097640000000  0.4357000000000  0.4451190000000 1.0
C      1  0.4661350000000  0.3928830000000  0.4613300000000 1.0
C      1  0.5102170000000  0.6083990000000  0.5197850000000 1.0
C      1  0.4126510000000  0.4291780000000  0.5063980000000 1.0
C      1  0.5465890000000  0.5146740000000  0.4662540000000 1.0
C      1  0.4204600000000  0.4543280000000  0.4432890000000 1.0
C      1  0.4724920000000  0.6002230000000  0.4881720000000 1.0
C      1  0.5142070000000  0.5583010000000  0.5890400000000 1.0
C      1  0.5351820000000  0.4583030000000  0.4882500000000 1.0
C      1  0.5609230000000  0.5390390000000  0.5309270000000 1.0
C      1  0.5418880000000  0.5418560000000  0.4512830000000 1.0
C      1  0.5155510000000  0.4617100000000  0.4058770000000 1.0
C      1  0.4913350000000  0.5940410000000  0.4662920000000 1.0
C      1  0.5914790000000  0.4392990000000  0.4842320000000 1.0
C      1  0.4963040000000  0.3991430000000  0.4739880000000 1.0
C      1  0.3845100000000  0.5007010000000  0.5146780000000 1.0
C      1  0.4881630000000  0.5018210000000  0.3881790000000 1.0
C      1  0.4651390000000  0.5411600000000  0.5495950000000 1.0
C      1  0.4997900000000  0.4134360000000  0.5261750000000 1.0
C      1  0.5309920000000  0.4165830000000  0.4373470000000 1.0
C      1  0.4758630000000  0.5520570000000  0.5060840000000 1.0
C      1  0.4387580000000  0.5724190000000  0.4641130000000 1.0
C      1  0.4377330000000  0.5281630000000  0.4814160000000 1.0
C      1  0.4878830000000  0.5314040000000  0.3914020000000 1.0
C      1  0.4270490000000  0.4528480000000  0.5527120000000 1.0
C      1  0.5286010000000  0.3973480000000  0.4604550000000 1.0
C      1  0.4829510000000  0.5808770000000  0.4420490000000 1.0
C      1  0.5321490000000  0.5171720000000  0.5003620000000 1.0
C      1  0.5400570000000  0.4475530000000  0.4164580000000 1.0
C      1  0.5151100000000  0.4556690000000  0.5417430000000 1.0
C      1  0.5757490000000  0.4540420000000  0.4643320000000 1.0
C      1  0.5760780000000  0.5431290000000  0.5545660000000 1.0
C      1  0.5824260000000  0.5611240000000  0.4795480000000 1.0
C      1  0.5065010000000  0.4513560000000  0.4908340000000 1.0
C      1  0.5195530000000  0.5994280000000  0.4694980000000 1.0
C      1  0.5368840000000  0.5355650000000  0.3965770000000 1.0
C      1  0.4019440000000  0.4580080000000  0.4984870000000 1.0
C      1  0.5476280000000  0.4439670000000  0.4660830000000 1.0
C      1  0.5700870000000  0.4928210000000  0.5072210000000 1.0
C      1  0.4881070000000  0.4506410000000  0.4096800000000 1.0
C      1  0.5272590000000  0.6031390000000  0.4971210000000 1.0
C      1  0.4215380000000  0.5018060000000  0.5583840000000 1.0
C      1  0.5694600000000  0.4464780000000  0.5787070000000 1.0
C      1  0.5510870000000  0.4616410000000  0.5972360000000 1.0
C      1  0.5538010000000  0.5940630000000  0.5009540000000 1.0
C      1  0.4467860000000  0.4640030000000  0.5731970000000 1.0
C      1  0.4778000000000  0.4821690000000  0.6006170000000 1.0
C      1  0.4587260000000  0.5201430000000  0.5879610000000 1.0
C      1  0.5832100000000  0.5112020000000  0.4253210000000 1.0
C      1  0.3984710000000  0.5245590000000  0.5222360000000 1.0
C      1  0.4665440000000  0.5414280000000  0.4786060000000 1.0
C      1  0.4634380000000  0.4650300000000  0.4490690000000 1.0
C      1  0.6192400000000  0.5200400000000  0.4843620000000 1.0
C      1  0.4294840000000  0.4311650000000  0.5317370000000 1.0
C      1  0.5026970000000  0.5132890000000  0.4675160000000 1.0
C      1  0.4842910000000  0.4304950000000  0.4308190000000 1.0
C      1  0.5422670000000  0.5836580000000  0.4572560000000 1.0
C      1  0.5634800000000  0.5896810000000  0.5271030000000 1.0
C      1  0.4354820000000  0.5245890000000  0.5130790000000 1.0
C      1  0.5474420000000  0.5918350000000  0.5508320000000 1.0
C      1  0.5705850000000  0.4934600000000  0.5663090000000 1.0
C      1  0.4094750000000  0.5276440000000  0.5484250000000 1.0
C      1  0.4290260000000  0.4257650000000  0.4428900000000 1.0
C      1  0.4056720000000  0.5624280000000  0.4960120000000 1.0
C      1  0.5109050000000  0.5370420000000  0.4094710000000 1.0
C      1  0.4645910000000  0.5447200000000  0.3992170000000 1.0
C      1  0.4860050000000  0.5331080000000  0.4534720000000 1.0
C      1  0.5585920000000  0.4951820000000  0.4194300000000 1.0
C      1  0.4253740000000  0.5363960000000  0.4247420000000 1.0
C      1  0.4248210000000  0.5797890000000  0.5077990000000 1.0
C      1  0.4609430000000  0.4077100000000  0.5035040000000 1.0
C      1  0.4748580000000  0.6126990000000  0.5576810000000 1.0
C      1  0.5053780000000  0.5339670000000  0.6012900000000 1.0
C      1  0.5893270000000  0.5171670000000  0.5576070000000 1.0
C      1  0.4936860000000  0.5780050000000  0.5851500000000 1.0
C      1  0.4400460000000  0.4579790000000  0.4898900000000 1.0
C      1  0.4986180000000  0.4443270000000  0.5198490000000 1.0
C      1  0.5004620000000  0.4292450000000  0.4719200000000 1.0
C      1  0.4895990000000  0.3969560000000  0.5033620000000 1.0
C      1  0.4537980000000  0.5466660000000  0.5756600000000 1.0
C      1  0.5449130000000  0.4936710000000  0.4452130000000 1.0
C      1  0.5867590000000  0.4636860000000  0.4381460000000 1.0
C      1  0.5648490000000  0.4656690000000  0.4166140000000 1.0
C      1  0.5956930000000  0.4603510000000  0.5344670000000 1.0
C      1  0.4515220000000  0.4115190000000  0.5324260000000 1.0
C      1  0.5459180000000  0.4037160000000  0.5142340000000 1.0
C      1  0.4176970000000  0.4682570000000  0.4190680000000 1.0
C      1  0.5647630000000  0.5827380000000  0.4766820000000 1.0
C      1  0.5619810000000  0.4210150000000  0.5695480000000 1.0
C      1  0.4855140000000  0.4900120000000  0.5698240000000 1.0
C      1  0.4890320000000  0.4250200000000  0.5712880000000 1.0
C      1  0.4207850000000  0.4093120000000  0.4830970000000 1.0
C      1  0.4581860000000  0.4217770000000  0.4538540000000 1.0
C      1  0.5487510000000  0.4142810000000  0.4774220000000 1.0
C      1  0.5398840000000  0.5062340000000  0.3979980000000 1.0
C      1  0.4695260000000  0.5172870000000  0.4333000000000 1.0
C      1  0.5009320000000  0.5783630000000  0.4194360000000 1.0
C      1  0.4571160000000  0.4764540000000  0.5101860000000 1.0
C      1  0.6009510000000  0.5013650000000  0.4706110000000 1.0
C      1  0.5110540000000  0.5468630000000  0.4399370000000 1.0
C      1  0.5079090000000  0.5045370000000  0.5108180000000 1.0
C      1  0.4872260000000  0.5120060000000  0.4924740000000 1.0
C      1  0.5519960000000  0.5117720000000  0.5238610000000 1.0
C      1  0.4979220000000  0.5998440000000  0.5664550000000 1.0
C      1  0.5428860000000  0.5604620000000  0.5907360000000 1.0
C      1  0.5189630000000  0.5988500000000  0.5462410000000 1.0
C      1  0.5355460000000  0.4174290000000  0.5614190000000 1.0
C      1  0.4130110000000  0.4767700000000  0.5457250000000 1.0
C      1  0.6079100000000  0.5104700000000  0.5334770000000 1.0
C      1  0.5201000000000  0.4605780000000  0.5884150000000 1.0
C      1  0.6118550000000  0.5315540000000  0.5109940000000 1.0
C      1  0.3872200000000  0.4741860000000  0.4752110000000 1.0
C      1  0.5166330000000  0.4896140000000  0.5757680000000 1.0
END
