TITL C-951338-5626-5 1.02240845133231e-06 125000 -685.484206434117 0 0 113 (C1) n - 1
REM
REM in /home/bkarasulu/work/CARBON/AIRSS/Generating-Clusters/EDIP-Nigel-Params/with-SteepDescent/Only-C1/SD-CG/HFTN-CG
REM
REM
REM
REM
REM
REM ./C.cell (11c1c37f851c82e70ff6c80c92926a4b)
REM
REM compiler GCC version 9.2.1 20190827 (Red Hat 9.2.1-1)
REM options -cpp -mtune=generic -march=x86-64 -g -O0 -fpre-include=/usr/include/finclude/math-vector-fortran.h
REM seed -1712931973 704932347 -1101255923 -389675893 -61444086 -559619382 -175660607 -1693857677 11514291 -70077411 691169047 2021026696 1748506087 213038524 2052958606 -1524423881 886654063 -581655336 1758660898 -972819160 -782910819 1664600952 292076544 1535391505 46482427 458145908 651613086 1808949444 2057743166 -741577807 759310038 -558674786 2187032
REM
CELL 1.54180   50.00000   50.00000   50.00000   90.00000   90.00000   90.00000
LATT -1
SFAC C  
C      1  0.5090330000000  0.5312950000000  0.4350910000000 1.0
C      1  0.5480510000000  0.5514490000000  0.4516500000000 1.0
C      1  0.5430660000000  0.4977960000000  0.5820570000000 1.0
C      1  0.5216110000000  0.4506230000000  0.5760920000000 1.0
C      1  0.5541990000000  0.5708520000000  0.4726080000000 1.0
C      1  0.4974870000000  0.4130380000000  0.4787540000000 1.0
C      1  0.5286330000000  0.4643220000000  0.4402740000000 1.0
C      1  0.5486080000000  0.5181110000000  0.5264430000000 1.0
C      1  0.5287880000000  0.5288640000000  0.5051790000000 1.0
C      1  0.5308320000000  0.4767690000000  0.5637450000000 1.0
C      1  0.4688560000000  0.4488550000000  0.5712030000000 1.0
C      1  0.5092940000000  0.4898320000000  0.5478540000000 1.0
C      1  0.4188830000000  0.5114570000000  0.4594300000000 1.0
C      1  0.4886960000000  0.4693930000000  0.4239310000000 1.0
C      1  0.4832360000000  0.5153650000000  0.4815370000000 1.0
C      1  0.4675390000000  0.4065420000000  0.4872920000000 1.0
C      1  0.4850690000000  0.4360120000000  0.4603640000000 1.0
C      1  0.5110360000000  0.4626480000000  0.4966930000000 1.0
C      1  0.5098260000000  0.5165760000000  0.4633670000000 1.0
C      1  0.5135710000000  0.6004280000000  0.5217710000000 1.0
C      1  0.5033510000000  0.5905890000000  0.5456370000000 1.0
C      1  0.4301380000000  0.4430430000000  0.4741530000000 1.0
C      1  0.4888830000000  0.4800810000000  0.4518300000000 1.0
C      1  0.5458500000000  0.4253480000000  0.5106100000000 1.0
C      1  0.5107350000000  0.5197150000000  0.5481290000000 1.0
C      1  0.4771890000000  0.5774830000000  0.5406620000000 1.0
C      1  0.4567750000000  0.4703670000000  0.5026460000000 1.0
C      1  0.4609410000000  0.5696630000000  0.4430980000000 1.0
C      1  0.4405320000000  0.5597700000000  0.5114070000000 1.0
C      1  0.5758390000000  0.5090160000000  0.4445200000000 1.0
C      1  0.4618320000000  0.4073420000000  0.5142370000000 1.0
C      1  0.5454530000000  0.4698710000000  0.4637820000000 1.0
C      1  0.4998930000000  0.4747650000000  0.5226470000000 1.0
C      1  0.5042290000000  0.4110170000000  0.5344670000000 1.0
C      1  0.4288400000000  0.5775100000000  0.4909240000000 1.0
C      1  0.4661370000000  0.5141240000000  0.5321140000000 1.0
C      1  0.4656520000000  0.4249130000000  0.5578060000000 1.0
C      1  0.4934130000000  0.5030320000000  0.6014420000000 1.0
C      1  0.4371060000000  0.5272420000000  0.5528910000000 1.0
C      1  0.5180730000000  0.4308770000000  0.4988140000000 1.0
C      1  0.5792300000000  0.5433600000000  0.5095700000000 1.0
C      1  0.4597780000000  0.5084810000000  0.5029020000000 1.0
C      1  0.5355830000000  0.4820920000000  0.4894820000000 1.0
C      1  0.5698210000000  0.4331740000000  0.4957870000000 1.0
C      1  0.5131730000000  0.5346660000000  0.5741840000000 1.0
C      1  0.4458610000000  0.4660290000000  0.5750760000000 1.0
C      1  0.4318530000000  0.4560330000000  0.5013160000000 1.0
C      1  0.4784600000000  0.5842760000000  0.4623450000000 1.0
C      1  0.5220520000000  0.5794130000000  0.5632420000000 1.0
C      1  0.4670610000000  0.5723890000000  0.5128420000000 1.0
C      1  0.4100870000000  0.4716110000000  0.5104110000000 1.0
C      1  0.4292830000000  0.5373090000000  0.4721910000000 1.0
C      1  0.4568920000000  0.5448660000000  0.4598980000000 1.0
C      1  0.5281600000000  0.5835330000000  0.4797080000000 1.0
C      1  0.4504460000000  0.4223890000000  0.4690560000000 1.0
C      1  0.5710500000000  0.5040030000000  0.4740240000000 1.0
C      1  0.5195870000000  0.4873720000000  0.4103680000000 1.0
C      1  0.4903290000000  0.4754540000000  0.6043020000000 1.0
C      1  0.4611870000000  0.5198760000000  0.4362380000000 1.0
C      1  0.5520000000000  0.4339650000000  0.5368340000000 1.0
C      1  0.5680680000000  0.4887480000000  0.4260380000000 1.0
C      1  0.5310690000000  0.4279150000000  0.5574780000000 1.0
C      1  0.5187760000000  0.4018890000000  0.5562260000000 1.0
C      1  0.4744560000000  0.5625230000000  0.4194370000000 1.0
C      1  0.5193140000000  0.5772220000000  0.5066580000000 1.0
C      1  0.5742660000000  0.4512160000000  0.5360400000000 1.0
C      1  0.4737110000000  0.5517320000000  0.5541080000000 1.0
C      1  0.4822000000000  0.5358340000000  0.4234500000000 1.0
C      1  0.4471910000000  0.5007050000000  0.4172120000000 1.0
C      1  0.4222980000000  0.5164320000000  0.5298690000000 1.0
C      1  0.4941890000000  0.4388810000000  0.4312830000000 1.0
C      1  0.5708320000000  0.5644800000000  0.4939540000000 1.0
C      1  0.4761230000000  0.4097740000000  0.5374190000000 1.0
C      1  0.4717940000000  0.5215240000000  0.5913330000000 1.0
C      1  0.5511860000000  0.4885550000000  0.5163310000000 1.0
C      1  0.4803900000000  0.5442540000000  0.4815850000000 1.0
C      1  0.4725910000000  0.4686680000000  0.5260730000000 1.0
C      1  0.4637630000000  0.4784920000000  0.4117970000000 1.0
C      1  0.5813660000000  0.4702740000000  0.4896080000000 1.0
C      1  0.5232960000000  0.4349810000000  0.4379720000000 1.0
C      1  0.5323590000000  0.4218460000000  0.4635950000000 1.0
C      1  0.4929820000000  0.4532120000000  0.5875820000000 1.0
C      1  0.4351920000000  0.5298400000000  0.5038920000000 1.0
C      1  0.4262740000000  0.4744680000000  0.5566880000000 1.0
C      1  0.5590810000000  0.5150300000000  0.5635520000000 1.0
C      1  0.6048120000000  0.5337620000000  0.5053560000000 1.0
C      1  0.4654460000000  0.4866860000000  0.5484560000000 1.0
C      1  0.4318940000000  0.4648320000000  0.4548510000000 1.0
C      1  0.5702950000000  0.4552010000000  0.4637360000000 1.0
C      1  0.5761850000000  0.4740140000000  0.5194160000000 1.0
C      1  0.4400460000000  0.4902450000000  0.4678760000000 1.0
C      1  0.4637660000000  0.5897840000000  0.4885350000000 1.0
C      1  0.5338070000000  0.5125980000000  0.4808080000000 1.0
C      1  0.5645460000000  0.5342880000000  0.4340770000000 1.0
C      1  0.4137970000000  0.5620810000000  0.4723410000000 1.0
C      1  0.5931580000000  0.5123280000000  0.4920240000000 1.0
C      1  0.4225720000000  0.4947510000000  0.4325230000000 1.0
C      1  0.5461830000000  0.4732730000000  0.4166830000000 1.0
C      1  0.5204150000000  0.5146300000000  0.5949520000000 1.0
C      1  0.5501700000000  0.5268910000000  0.4108270000000 1.0
C      1  0.4503690000000  0.5117440000000  0.5735880000000 1.0
C      1  0.5241810000000  0.5166540000000  0.4140500000000 1.0
C      1  0.5620270000000  0.4254550000000  0.4677640000000 1.0
C      1  0.5073750000000  0.5730270000000  0.4619770000000 1.0
C      1  0.5543970000000  0.5421030000000  0.5559510000000 1.0
C      1  0.5336690000000  0.5553910000000  0.5707150000000 1.0
C      1  0.4894620000000  0.4617630000000  0.4744450000000 1.0
C      1  0.4892780000000  0.5341570000000  0.5343110000000 1.0
C      1  0.4855220000000  0.5460590000000  0.5806330000000 1.0
C      1  0.5216370000000  0.5577060000000  0.4409670000000 1.0
C      1  0.4210190000000  0.4868900000000  0.5315550000000 1.0
C      1  0.4684370000000  0.5007110000000  0.4587630000000 1.0
C      1  0.5037010000000  0.5481950000000  0.5067100000000 1.0
END
