TITL C-951347-9520-58 -2.7139171450772e-06 125000 -423.736723456409 0 0 70 (C1) n - 1
REM
REM in /home/bkarasulu/work/CARBON/AIRSS/Generating-Clusters/EDIP-Nigel-Params/with-SteepDescent/Only-C1/SD-CG/HFTN-CG
REM
REM
REM
REM
REM
REM ./C.cell (11c1c37f851c82e70ff6c80c92926a4b)
REM
REM compiler GCC version 9.2.1 20190827 (Red Hat 9.2.1-1)
REM options -cpp -mtune=generic -march=x86-64 -g -O0 -fpre-include=/usr/include/finclude/math-vector-fortran.h
REM seed 196956164 -279095954 1238860497 -351011593 204622948 515231797 -227467295 1768626416 -1510814855 -769437341 -2122955412 1788377410 1575888263 1603244911 2092125276 858765862 1552723493 -1065663853 47566631 -1691816886 1173750873 -1679584389 294055693 -565256128 -1840327623 -1215179748 1076199977 -1584898840 -87587414 -1025826245 965402991 53797089 -357587488
REM
CELL 1.54180   50.00000   50.00000   50.00000   90.00000   90.00000   90.00000
LATT -1
SFAC C  
C      1  0.4946130000000  0.4936760000000  0.4666070000000 1.0
C      1  0.4977690000000  0.5554410000000  0.5590770000000 1.0
C      1  0.5152260000000  0.4934530000000  0.5239060000000 1.0
C      1  0.4580190000000  0.4844230000000  0.4761480000000 1.0
C      1  0.4944960000000  0.4743230000000  0.5802120000000 1.0
C      1  0.4419150000000  0.5060270000000  0.4910620000000 1.0
C      1  0.4805270000000  0.4978420000000  0.4253310000000 1.0
C      1  0.4781870000000  0.4614010000000  0.5350870000000 1.0
C      1  0.5102930000000  0.4328340000000  0.5071600000000 1.0
C      1  0.5421500000000  0.5488340000000  0.4589790000000 1.0
C      1  0.5257800000000  0.5067490000000  0.4357240000000 1.0
C      1  0.4426950000000  0.5200620000000  0.4459770000000 1.0
C      1  0.5475650000000  0.4534450000000  0.5196600000000 1.0
C      1  0.5020460000000  0.5267630000000  0.5630640000000 1.0
C      1  0.4223360000000  0.4795050000000  0.5392570000000 1.0
C      1  0.5269740000000  0.4633750000000  0.5375910000000 1.0
C      1  0.4383210000000  0.5277040000000  0.4722410000000 1.0
C      1  0.4702350000000  0.5630400000000  0.5569480000000 1.0
C      1  0.5036060000000  0.4444140000000  0.5339720000000 1.0
C      1  0.4860050000000  0.5592790000000  0.4681520000000 1.0
C      1  0.5372740000000  0.5532670000000  0.5319900000000 1.0
C      1  0.4721870000000  0.4717910000000  0.5635190000000 1.0
C      1  0.5838930000000  0.5172250000000  0.4813380000000 1.0
C      1  0.5370150000000  0.4633710000000  0.5653610000000 1.0
C      1  0.5322650000000  0.5577960000000  0.4840600000000 1.0
C      1  0.5684750000000  0.4727370000000  0.5141820000000 1.0
C      1  0.4631180000000  0.4275650000000  0.5033680000000 1.0
C      1  0.5055570000000  0.4423830000000  0.4432740000000 1.0
C      1  0.4592790000000  0.4983120000000  0.5653780000000 1.0
C      1  0.4844240000000  0.4764410000000  0.4894660000000 1.0
C      1  0.5497830000000  0.5605810000000  0.5073370000000 1.0
C      1  0.4840410000000  0.4413550000000  0.4620010000000 1.0
C      1  0.5437550000000  0.5209260000000  0.4540100000000 1.0
C      1  0.4999060000000  0.5196330000000  0.4313630000000 1.0
C      1  0.5305780000000  0.5151510000000  0.4958160000000 1.0
C      1  0.5381750000000  0.4345190000000  0.5007290000000 1.0
C      1  0.4869100000000  0.5321490000000  0.4996850000000 1.0
C      1  0.5492850000000  0.5068210000000  0.5479150000000 1.0
C      1  0.5665870000000  0.5002860000000  0.5260710000000 1.0
C      1  0.5400280000000  0.4693490000000  0.4605090000000 1.0
C      1  0.5056600000000  0.5694590000000  0.4870410000000 1.0
C      1  0.4293450000000  0.4590790000000  0.5171440000000 1.0
C      1  0.4671230000000  0.5661070000000  0.5288290000000 1.0
C      1  0.5685900000000  0.5065770000000  0.4599470000000 1.0
C      1  0.4538920000000  0.5485240000000  0.4853680000000 1.0
C      1  0.5137310000000  0.5675970000000  0.5379020000000 1.0
C      1  0.5790990000000  0.4704050000000  0.4882380000000 1.0
C      1  0.5016460000000  0.4516250000000  0.4176680000000 1.0
C      1  0.4874870000000  0.4841740000000  0.5171990000000 1.0
C      1  0.4552020000000  0.4464560000000  0.5219980000000 1.0
C      1  0.5207520000000  0.4829310000000  0.5768380000000 1.0
C      1  0.5737990000000  0.5458130000000  0.5055120000000 1.0
C      1  0.5165830000000  0.4793050000000  0.4473510000000 1.0
C      1  0.4868970000000  0.4285360000000  0.4887500000000 1.0
C      1  0.4944160000000  0.5672930000000  0.5155390000000 1.0
C      1  0.4585940000000  0.4496920000000  0.4523760000000 1.0
C      1  0.4780940000000  0.5175190000000  0.5736610000000 1.0
C      1  0.4499260000000  0.5177660000000  0.5175650000000 1.0
C      1  0.4530190000000  0.4970650000000  0.4342360000000 1.0
C      1  0.4396700000000  0.5041140000000  0.5430910000000 1.0
C      1  0.4487570000000  0.5476660000000  0.5147270000000 1.0
C      1  0.4968810000000  0.5449730000000  0.4455100000000 1.0
C      1  0.4430640000000  0.4712120000000  0.4432000000000 1.0
C      1  0.4040140000000  0.4733200000000  0.5177970000000 1.0
C      1  0.5661590000000  0.4779180000000  0.4644840000000 1.0
C      1  0.5256640000000  0.5084670000000  0.5639360000000 1.0
C      1  0.5124990000000  0.5272410000000  0.5203090000000 1.0
C      1  0.5049790000000  0.5212980000000  0.4753990000000 1.0
C      1  0.5628890000000  0.5183520000000  0.5025530000000 1.0
C      1  0.4902770000000  0.4752660000000  0.4123040000000 1.0
END
