TITL C-951341-1326-356 -2.33876242920773e-06 125000 -846.323854649413 0 0 134 (C1) n - 1
REM
REM in /home/bkarasulu/work/CARBON/AIRSS/Generating-Clusters/EDIP-Nigel-Params/with-SteepDescent/Only-C1/SD-CG/HFTN-CG
REM
REM
REM
REM
REM
REM ./C.cell (11c1c37f851c82e70ff6c80c92926a4b)
REM
REM compiler GCC version 9.2.1 20190827 (Red Hat 9.2.1-1)
REM options -cpp -mtune=generic -march=x86-64 -g -O0 -fpre-include=/usr/include/finclude/math-vector-fortran.h
REM seed 959612094 1429679102 -1605755797 -987609454 -635421862 390274088 -743243101 1683782577 2136705544 -247637214 703144598 -1975919575 -671871740 -2108286188 -2116240207 1455717634 -469787304 390489158 1561732409 -882269794 1921892924 1858843262 1843222769 756959098 -552877438 1863668880 -1882273690 -1664205015 1045556308 -279634366 602050042 1203610549 1699107916
REM
CELL 1.54180   50.00000   50.00000   50.00000   90.00000   90.00000   90.00000
LATT -1
SFAC C  
C      1  0.5793670000000  0.4806230000000  0.5442500000000 1.0
C      1  0.5317510000000  0.4827730000000  0.6085640000000 1.0
C      1  0.4955830000000  0.5041820000000  0.5605020000000 1.0
C      1  0.4709090000000  0.5508890000000  0.5066800000000 1.0
C      1  0.5041380000000  0.4017730000000  0.4790380000000 1.0
C      1  0.5453820000000  0.4850150000000  0.5721390000000 1.0
C      1  0.4385700000000  0.4373290000000  0.4667710000000 1.0
C      1  0.4561210000000  0.5575790000000  0.4583740000000 1.0
C      1  0.5780020000000  0.5192190000000  0.4936390000000 1.0
C      1  0.5632290000000  0.4869390000000  0.4108620000000 1.0
C      1  0.5467770000000  0.4817030000000  0.5140180000000 1.0
C      1  0.4773570000000  0.5901900000000  0.5243200000000 1.0
C      1  0.5556870000000  0.5247710000000  0.4612240000000 1.0
C      1  0.5144550000000  0.5876120000000  0.4900140000000 1.0
C      1  0.5427680000000  0.5791100000000  0.4804430000000 1.0
C      1  0.4773560000000  0.4837060000000  0.5466410000000 1.0
C      1  0.4954760000000  0.4600880000000  0.5848100000000 1.0
C      1  0.4273850000000  0.4214120000000  0.5206210000000 1.0
C      1  0.4192930000000  0.4986750000000  0.4341390000000 1.0
C      1  0.5909240000000  0.5068060000000  0.4495930000000 1.0
C      1  0.4885460000000  0.5056230000000  0.4525080000000 1.0
C      1  0.5792140000000  0.5247340000000  0.5389230000000 1.0
C      1  0.4765270000000  0.4127250000000  0.4838550000000 1.0
C      1  0.4845350000000  0.5549190000000  0.5933100000000 1.0
C      1  0.4909710000000  0.4484280000000  0.4219360000000 1.0
C      1  0.4471210000000  0.4898880000000  0.5463210000000 1.0
C      1  0.4380170000000  0.5466820000000  0.5745580000000 1.0
C      1  0.4269160000000  0.4848590000000  0.4102860000000 1.0
C      1  0.6003970000000  0.4879560000000  0.4704780000000 1.0
C      1  0.5477760000000  0.4479240000000  0.4340680000000 1.0
C      1  0.5163900000000  0.4876510000000  0.4159470000000 1.0
C      1  0.4863050000000  0.4565680000000  0.5572550000000 1.0
C      1  0.5808620000000  0.4560050000000  0.5006480000000 1.0
C      1  0.5611420000000  0.5143410000000  0.5172670000000 1.0
C      1  0.4397320000000  0.4614310000000  0.4208060000000 1.0
C      1  0.5242920000000  0.4966210000000  0.5551350000000 1.0
C      1  0.5380730000000  0.4317520000000  0.4902510000000 1.0
C      1  0.4903690000000  0.5752570000000  0.5715400000000 1.0
C      1  0.5566110000000  0.4196550000000  0.4712110000000 1.0
C      1  0.5228700000000  0.4083650000000  0.5019590000000 1.0
C      1  0.4674040000000  0.4321950000000  0.5515540000000 1.0
C      1  0.5245620000000  0.4791330000000  0.5331190000000 1.0
C      1  0.5649690000000  0.5705340000000  0.5011650000000 1.0
C      1  0.5819740000000  0.5426590000000  0.4570450000000 1.0
C      1  0.5152530000000  0.4495940000000  0.4769840000000 1.0
C      1  0.5112310000000  0.5435560000000  0.4709890000000 1.0
C      1  0.4258970000000  0.4539570000000  0.4460710000000 1.0
C      1  0.5274740000000  0.4302510000000  0.5463590000000 1.0
C      1  0.4217920000000  0.5241160000000  0.5707790000000 1.0
C      1  0.5541590000000  0.4495240000000  0.5108870000000 1.0
C      1  0.4087600000000  0.5471260000000  0.5254690000000 1.0
C      1  0.5500300000000  0.5287500000000  0.5705220000000 1.0
C      1  0.4326180000000  0.4654900000000  0.5362070000000 1.0
C      1  0.4805880000000  0.4159840000000  0.5303510000000 1.0
C      1  0.5041010000000  0.5301860000000  0.4032350000000 1.0
C      1  0.5592930000000  0.5481850000000  0.4136710000000 1.0
C      1  0.4946860000000  0.5653450000000  0.4330370000000 1.0
C      1  0.5653050000000  0.5476500000000  0.5498710000000 1.0
C      1  0.5181600000000  0.5697260000000  0.5631050000000 1.0
C      1  0.5063780000000  0.5893230000000  0.5182000000000 1.0
C      1  0.4961830000000  0.5018340000000  0.3992410000000 1.0
C      1  0.5389780000000  0.5346000000000  0.5129560000000 1.0
C      1  0.5840010000000  0.5501670000000  0.4883820000000 1.0
C      1  0.4951360000000  0.5299030000000  0.5445540000000 1.0
C      1  0.4930500000000  0.5199860000000  0.4764670000000 1.0
C      1  0.4821990000000  0.5427700000000  0.4180420000000 1.0
C      1  0.4063870000000  0.4635980000000  0.5006110000000 1.0
C      1  0.4047480000000  0.4723900000000  0.5286500000000 1.0
C      1  0.4927250000000  0.5075940000000  0.5914830000000 1.0
C      1  0.5421890000000  0.4210970000000  0.4473140000000 1.0
C      1  0.4369180000000  0.5200400000000  0.4446990000000 1.0
C      1  0.4652550000000  0.5367570000000  0.5335970000000 1.0
C      1  0.5553870000000  0.4373450000000  0.5386830000000 1.0
C      1  0.4993240000000  0.4529520000000  0.5052390000000 1.0
C      1  0.5664340000000  0.5607290000000  0.4379410000000 1.0
C      1  0.4079660000000  0.5138330000000  0.4898000000000 1.0
C      1  0.4683480000000  0.4683410000000  0.4221430000000 1.0
C      1  0.5495350000000  0.5597490000000  0.5265130000000 1.0
C      1  0.4290280000000  0.5660640000000  0.5288600000000 1.0
C      1  0.5178450000000  0.4581670000000  0.4116920000000 1.0
C      1  0.5559430000000  0.4586120000000  0.4070810000000 1.0
C      1  0.4625680000000  0.4807540000000  0.4935700000000 1.0
C      1  0.4697960000000  0.4961440000000  0.4104190000000 1.0
C      1  0.4644980000000  0.5117470000000  0.6000270000000 1.0
C      1  0.5200360000000  0.5528420000000  0.4429170000000 1.0
C      1  0.5507440000000  0.5014830000000  0.5971770000000 1.0
C      1  0.4666360000000  0.5307500000000  0.4844250000000 1.0
C      1  0.5038560000000  0.4813260000000  0.6016360000000 1.0
C      1  0.4791930000000  0.5738060000000  0.4569710000000 1.0
C      1  0.4121540000000  0.4786150000000  0.4544360000000 1.0
C      1  0.5911100000000  0.4781730000000  0.5167300000000 1.0
C      1  0.5652100000000  0.4931910000000  0.4403800000000 1.0
C      1  0.4952330000000  0.5668950000000  0.4813200000000 1.0
C      1  0.4872320000000  0.4818120000000  0.5093460000000 1.0
C      1  0.4685380000000  0.5179920000000  0.4324790000000 1.0
C      1  0.5284450000000  0.4756870000000  0.4670350000000 1.0
C      1  0.5670070000000  0.4575310000000  0.5564480000000 1.0
C      1  0.5123080000000  0.4911650000000  0.4455040000000 1.0
C      1  0.4385200000000  0.4366300000000  0.5427350000000 1.0
C      1  0.4133530000000  0.5193190000000  0.5195210000000 1.0
C      1  0.5256710000000  0.5758530000000  0.5358030000000 1.0
C      1  0.5064660000000  0.5345260000000  0.5958660000000 1.0
C      1  0.5213750000000  0.5408910000000  0.5709310000000 1.0
C      1  0.4495770000000  0.5584950000000  0.5493010000000 1.0
C      1  0.4586990000000  0.5403710000000  0.5945540000000 1.0
C      1  0.4528720000000  0.4541830000000  0.5048890000000 1.0
C      1  0.5102970000000  0.4533420000000  0.5375190000000 1.0
C      1  0.4923670000000  0.4349150000000  0.4487110000000 1.0
C      1  0.5803460000000  0.5052800000000  0.5590890000000 1.0
C      1  0.5384110000000  0.5408240000000  0.4828590000000 1.0
C      1  0.4483260000000  0.5720870000000  0.5057670000000 1.0
C      1  0.5132160000000  0.4135110000000  0.4519030000000 1.0
C      1  0.5310080000000  0.4918550000000  0.4908990000000 1.0
C      1  0.5821850000000  0.4638680000000  0.4721690000000 1.0
C      1  0.5563560000000  0.4687110000000  0.4552240000000 1.0
C      1  0.4355220000000  0.5614680000000  0.4788260000000 1.0
C      1  0.4122310000000  0.4857210000000  0.4825140000000 1.0
C      1  0.4442950000000  0.5131670000000  0.5256100000000 1.0
C      1  0.3973240000000  0.4994670000000  0.5331850000000 1.0
C      1  0.5369980000000  0.5314260000000  0.4216890000000 1.0
C      1  0.4487350000000  0.5070750000000  0.4953990000000 1.0
C      1  0.4265720000000  0.4404660000000  0.4969720000000 1.0
C      1  0.4763410000000  0.4328370000000  0.5059760000000 1.0
C      1  0.5054010000000  0.5041090000000  0.4993800000000 1.0
C      1  0.4451190000000  0.4920590000000  0.5956600000000 1.0
C      1  0.5116400000000  0.4095650000000  0.5304100000000 1.0
C      1  0.4651430000000  0.4250240000000  0.4601460000000 1.0
C      1  0.4691650000000  0.5811300000000  0.5511070000000 1.0
C      1  0.4332590000000  0.4985400000000  0.5714900000000 1.0
C      1  0.5116730000000  0.5247840000000  0.5199030000000 1.0
C      1  0.5397000000000  0.5037600000000  0.4064900000000 1.0
C      1  0.6003140000000  0.4998240000000  0.4973810000000 1.0
C      1  0.4251640000000  0.5310630000000  0.4716170000000 1.0
C      1  0.5423890000000  0.5723540000000  0.4502140000000 1.0
END
