TITL C-950532-2784-437 -2.38282374001234e-06 125000 -390.093800432195 0 0 63 (C1) n - 1
REM
REM in /home/bkarasulu/work/CARBON/AIRSS/Generating-Clusters/EDIP-Nigel-Params/with-SteepDescent/Only-C1/SD-CG/HFTN-CG
REM
REM
REM
REM
REM
REM ./C.cell (11c1c37f851c82e70ff6c80c92926a4b)
REM
REM compiler GCC version 9.2.1 20190827 (Red Hat 9.2.1-1)
REM options -cpp -mtune=generic -march=x86-64 -g -O0 -fpre-include=/usr/include/finclude/math-vector-fortran.h
REM seed 1003293781 1236226179 1273641705 -1273914910 1306900059 1868953386 -177224576 1196066127 -748200766 1121246870 2047178810 -135236289 -96665019 1733615427 -706685320 -2133091812 -1156695302 1371408158 1055050074 1274109429 2141897426 -641153034 1706007973 1084717154 -1299146432 -360678545 -1961443237 1811197316 576102840 -57239552 -1483336092 1025333803 -1846792835
REM
CELL 1.54180   50.00000   50.00000   50.00000   90.00000   90.00000   90.00000
LATT -1
SFAC C  
C      1  0.4534130000000  0.5140590000000  0.4329790000000 1.0
C      1  0.5564170000000  0.5451700000000  0.4795940000000 1.0
C      1  0.5047450000000  0.4442680000000  0.4920980000000 1.0
C      1  0.5534120000000  0.4401150000000  0.5056680000000 1.0
C      1  0.4745760000000  0.5604220000000  0.4824310000000 1.0
C      1  0.4991820000000  0.4524050000000  0.5404820000000 1.0
C      1  0.4501330000000  0.4547880000000  0.4730290000000 1.0
C      1  0.4634340000000  0.4786750000000  0.5320660000000 1.0
C      1  0.4192710000000  0.4690860000000  0.5122510000000 1.0
C      1  0.5263070000000  0.4300000000000  0.5079090000000 1.0
C      1  0.5057580000000  0.4753820000000  0.4966930000000 1.0
C      1  0.4735100000000  0.5326500000000  0.4735130000000 1.0
C      1  0.5363350000000  0.5394610000000  0.5447170000000 1.0
C      1  0.5401940000000  0.5178500000000  0.4432360000000 1.0
C      1  0.5227570000000  0.4604550000000  0.4514030000000 1.0
C      1  0.5019410000000  0.4799530000000  0.4443420000000 1.0
C      1  0.5021630000000  0.5549220000000  0.5162640000000 1.0
C      1  0.5300560000000  0.5602490000000  0.5250520000000 1.0
C      1  0.5100200000000  0.4390470000000  0.4641080000000 1.0
C      1  0.4570190000000  0.4302070000000  0.4837820000000 1.0
C      1  0.4816080000000  0.5187750000000  0.5571770000000 1.0
C      1  0.5476620000000  0.4454930000000  0.5435020000000 1.0
C      1  0.5725500000000  0.4867660000000  0.5420170000000 1.0
C      1  0.4338180000000  0.4811870000000  0.5326010000000 1.0
C      1  0.4414690000000  0.5382550000000  0.5089130000000 1.0
C      1  0.4342420000000  0.4729730000000  0.4888850000000 1.0
C      1  0.4592310000000  0.5624340000000  0.5081020000000 1.0
C      1  0.4936780000000  0.4893090000000  0.4723500000000 1.0
C      1  0.5479050000000  0.5075860000000  0.5024020000000 1.0
C      1  0.4777800000000  0.4353980000000  0.5018330000000 1.0
C      1  0.4261870000000  0.5060350000000  0.5418690000000 1.0
C      1  0.5358810000000  0.5413010000000  0.4598590000000 1.0
C      1  0.5366910000000  0.4794620000000  0.4961180000000 1.0
C      1  0.5209940000000  0.5147110000000  0.5367280000000 1.0
C      1  0.5118040000000  0.5105730000000  0.4378060000000 1.0
C      1  0.4761650000000  0.5609310000000  0.5327480000000 1.0
C      1  0.4652870000000  0.4704080000000  0.4528660000000 1.0
C      1  0.4775500000000  0.4979480000000  0.5117680000000 1.0
C      1  0.5114560000000  0.5567990000000  0.4543750000000 1.0
C      1  0.4363430000000  0.5318420000000  0.5373540000000 1.0
C      1  0.4612680000000  0.5412610000000  0.5524010000000 1.0
C      1  0.4364130000000  0.4991600000000  0.4766920000000 1.0
C      1  0.4957190000000  0.5382430000000  0.4353840000000 1.0
C      1  0.5003080000000  0.4737740000000  0.5601870000000 1.0
C      1  0.5214010000000  0.5262530000000  0.4987410000000 1.0
C      1  0.4921720000000  0.5197360000000  0.5293900000000 1.0
C      1  0.4557850000000  0.5161170000000  0.4928800000000 1.0
C      1  0.5638150000000  0.5335140000000  0.5437450000000 1.0
C      1  0.5009820000000  0.5187400000000  0.4743140000000 1.0
C      1  0.5619650000000  0.4530120000000  0.4818120000000 1.0
C      1  0.4731350000000  0.4488100000000  0.5279690000000 1.0
C      1  0.5491200000000  0.4736150000000  0.5492410000000 1.0
C      1  0.5587410000000  0.4992960000000  0.4569980000000 1.0
C      1  0.5645250000000  0.5096870000000  0.5284290000000 1.0
C      1  0.5666720000000  0.5165440000000  0.4806210000000 1.0
C      1  0.4744950000000  0.4895330000000  0.5590140000000 1.0
C      1  0.5249160000000  0.4899450000000  0.5546960000000 1.0
C      1  0.4466070000000  0.4927760000000  0.4494940000000 1.0
C      1  0.5455490000000  0.4728730000000  0.4671150000000 1.0
C      1  0.4673690000000  0.5350660000000  0.4440680000000 1.0
C      1  0.5488740000000  0.5585180000000  0.5036580000000 1.0
C      1  0.4993960000000  0.5720240000000  0.4758530000000 1.0
C      1  0.5218260000000  0.4341560000000  0.5364090000000 1.0
END
