TITL C-950525-1983-368 -4.61470450486479e-05 125000 -530.710232717896 0 0 86 (C1) n - 1
REM
REM in /home/bkarasulu/work/CARBON/AIRSS/Generating-Clusters/EDIP-Nigel-Params/with-SteepDescent/Only-C1/SD-CG/HFTN-CG
REM
REM
REM
REM
REM
REM ./C.cell (11c1c37f851c82e70ff6c80c92926a4b)
REM
REM compiler GCC version 9.2.1 20190827 (Red Hat 9.2.1-1)
REM options -cpp -mtune=generic -march=x86-64 -g -O0 -fpre-include=/usr/include/finclude/math-vector-fortran.h
REM seed -99641352 -495272354 303415326 -914183130 68019986 1015993684 -1097217513 468826293 920803216 -927011721 818441160 1129654193 -1872472685 -295684444 -1248661916 1340776070 -1755704691 -1047230597 -1580777753 -541975275 1124025856 -692042145 758374991 1527747559 -2115208002 -1007567813 -1108825969 1046016903 1844775170 -955897238 189708064 735154408 564999598
REM
CELL 1.54180   50.00000   50.00000   50.00000   90.00000   90.00000   90.00000
LATT -1
SFAC C  
C      1  0.4805350000000  0.5059070000000  0.4160940000000 1.0
C      1  0.5565920000000  0.5452740000000  0.4545930000000 1.0
C      1  0.5753320000000  0.5369260000000  0.5022350000000 1.0
C      1  0.5013100000000  0.4504020000000  0.5381740000000 1.0
C      1  0.4661130000000  0.5643990000000  0.4610760000000 1.0
C      1  0.5116400000000  0.5562090000000  0.4447560000000 1.0
C      1  0.5601610000000  0.5626600000000  0.5073710000000 1.0
C      1  0.4193360000000  0.4728330000000  0.5288340000000 1.0
C      1  0.4770020000000  0.4837010000000  0.5136760000000 1.0
C      1  0.5431680000000  0.4695730000000  0.5568410000000 1.0
C      1  0.5696680000000  0.4478640000000  0.4540720000000 1.0
C      1  0.5105360000000  0.4969920000000  0.4158810000000 1.0
C      1  0.4836860000000  0.5581510000000  0.4383780000000 1.0
C      1  0.5352380000000  0.5676310000000  0.5224970000000 1.0
C      1  0.5470040000000  0.4625480000000  0.4459870000000 1.0
C      1  0.5295350000000  0.5083080000000  0.4356060000000 1.0
C      1  0.5560940000000  0.4917080000000  0.5702010000000 1.0
C      1  0.4804710000000  0.5330310000000  0.5076840000000 1.0
C      1  0.5045130000000  0.4975180000000  0.5926050000000 1.0
C      1  0.5003630000000  0.4712520000000  0.5809810000000 1.0
C      1  0.5025580000000  0.5152750000000  0.5691010000000 1.0
C      1  0.5094340000000  0.5257000000000  0.5252220000000 1.0
C      1  0.4305180000000  0.4745750000000  0.5531500000000 1.0
C      1  0.4888500000000  0.5310140000000  0.4783790000000 1.0
C      1  0.5174590000000  0.5852790000000  0.5100760000000 1.0
C      1  0.4343630000000  0.5046230000000  0.4969200000000 1.0
C      1  0.5047940000000  0.5010040000000  0.5429930000000 1.0
C      1  0.5044070000000  0.5803870000000  0.4858630000000 1.0
C      1  0.5521410000000  0.4916960000000  0.4444690000000 1.0
C      1  0.5352850000000  0.5427350000000  0.4861840000000 1.0
C      1  0.4254810000000  0.4771950000000  0.5019240000000 1.0
C      1  0.5234270000000  0.4548030000000  0.4635870000000 1.0
C      1  0.4951740000000  0.4634510000000  0.4504030000000 1.0
C      1  0.4969340000000  0.5598140000000  0.5547280000000 1.0
C      1  0.4641410000000  0.4788260000000  0.4177990000000 1.0
C      1  0.4689340000000  0.5620300000000  0.5115720000000 1.0
C      1  0.4586150000000  0.5121620000000  0.5642570000000 1.0
C      1  0.4915700000000  0.4094750000000  0.5239640000000 1.0
C      1  0.4950290000000  0.4695340000000  0.4205020000000 1.0
C      1  0.5765070000000  0.4589490000000  0.4790000000000 1.0
C      1  0.5021690000000  0.5044550000000  0.4769660000000 1.0
C      1  0.5214780000000  0.5482580000000  0.5419380000000 1.0
C      1  0.4804070000000  0.5724090000000  0.5360440000000 1.0
C      1  0.5071840000000  0.4076620000000  0.4676220000000 1.0
C      1  0.4464150000000  0.4780530000000  0.4427360000000 1.0
C      1  0.5047090000000  0.4229630000000  0.5435100000000 1.0
C      1  0.4750270000000  0.5166870000000  0.4446590000000 1.0
C      1  0.4530550000000  0.4838580000000  0.5665310000000 1.0
C      1  0.4283210000000  0.4997380000000  0.4472700000000 1.0
C      1  0.5900520000000  0.4832180000000  0.4763750000000 1.0
C      1  0.5626370000000  0.5206920000000  0.5473450000000 1.0
C      1  0.5602040000000  0.5158860000000  0.5184380000000 1.0
C      1  0.4456630000000  0.5221380000000  0.4478060000000 1.0
C      1  0.4462360000000  0.5208170000000  0.5402610000000 1.0
C      1  0.5138840000000  0.4725750000000  0.5539140000000 1.0
C      1  0.4748480000000  0.4418350000000  0.4564160000000 1.0
C      1  0.4132030000000  0.5240400000000  0.4955310000000 1.0
C      1  0.4278870000000  0.5476360000000  0.4896540000000 1.0
C      1  0.4838070000000  0.4212480000000  0.4755380000000 1.0
C      1  0.5385310000000  0.5126240000000  0.5831490000000 1.0
C      1  0.4847260000000  0.4903360000000  0.4610450000000 1.0
C      1  0.5740570000000  0.5289040000000  0.4713900000000 1.0
C      1  0.4476950000000  0.5432580000000  0.4681560000000 1.0
C      1  0.5558070000000  0.4492970000000  0.5424400000000 1.0
C      1  0.4334720000000  0.5458570000000  0.5384070000000 1.0
C      1  0.5712260000000  0.5006960000000  0.4652440000000 1.0
C      1  0.5102110000000  0.5532660000000  0.4742070000000 1.0
C      1  0.5343600000000  0.5376850000000  0.4365700000000 1.0
C      1  0.5320650000000  0.5187370000000  0.5058130000000 1.0
C      1  0.4591440000000  0.4433900000000  0.5140300000000 1.0
C      1  0.4590190000000  0.5104950000000  0.5149240000000 1.0
C      1  0.5550890000000  0.4596910000000  0.5005960000000 1.0
C      1  0.5585800000000  0.4356340000000  0.5183720000000 1.0
C      1  0.5082170000000  0.4887900000000  0.5008500000000 1.0
C      1  0.5263290000000  0.4663160000000  0.4912210000000 1.0
C      1  0.4506940000000  0.4562630000000  0.4635470000000 1.0
C      1  0.4394400000000  0.5594390000000  0.5144290000000 1.0
C      1  0.4501750000000  0.4633300000000  0.4934050000000 1.0
C      1  0.5412150000000  0.5351640000000  0.5617000000000 1.0
C      1  0.4727180000000  0.4648570000000  0.5738380000000 1.0
C      1  0.5277590000000  0.4258620000000  0.4731980000000 1.0
C      1  0.4755070000000  0.5783140000000  0.4863880000000 1.0
C      1  0.4763790000000  0.4221810000000  0.5040490000000 1.0
C      1  0.5380280000000  0.4245940000000  0.5006460000000 1.0
C      1  0.4850620000000  0.5390840000000  0.5708960000000 1.0
C      1  0.4733930000000  0.4603530000000  0.5352990000000 1.0
END
