TITL C-950531-5884-393 -2.01355870017506e-06 125000 -946.302540474643 0 0 152 (C1) n - 1
REM
REM in /home/bkarasulu/work/CARBON/AIRSS/Generating-Clusters/EDIP-Nigel-Params/with-SteepDescent/Only-C1/SD-CG/HFTN-CG
REM
REM
REM
REM
REM
REM ./C.cell (11c1c37f851c82e70ff6c80c92926a4b)
REM
REM compiler GCC version 9.2.1 20190827 (Red Hat 9.2.1-1)
REM options -cpp -mtune=generic -march=x86-64 -g -O0 -fpre-include=/usr/include/finclude/math-vector-fortran.h
REM seed -274927024 1667852651 209327050 -368262023 -1642385900 1657542524 -1269161883 -2093277496 -936392146 825150029 308784602 47544975 453407933 -886223275 1065673633 -1850812896 1586151714 841052507 1717197847 917592261 933836995 -643850963 -754000819 2023077396 -1851910544 849297424 -131094645 -802508752 -1426013505 -1966361230 2118249932 -1291289198 -1386504787
REM
CELL 1.54180   50.00000   50.00000   50.00000   90.00000   90.00000   90.00000
LATT -1
SFAC C  
C      1  0.4697660000000  0.5743750000000  0.5741240000000 1.0
C      1  0.5777130000000  0.4254680000000  0.4759660000000 1.0
C      1  0.5068810000000  0.5518950000000  0.5484420000000 1.0
C      1  0.5130440000000  0.5764690000000  0.5658680000000 1.0
C      1  0.5339660000000  0.4253150000000  0.4593470000000 1.0
C      1  0.3950900000000  0.5187100000000  0.5343870000000 1.0
C      1  0.4835110000000  0.5939840000000  0.5308780000000 1.0
C      1  0.4978380000000  0.6045450000000  0.4824950000000 1.0
C      1  0.5791080000000  0.5559860000000  0.5216020000000 1.0
C      1  0.4309680000000  0.4547000000000  0.5468530000000 1.0
C      1  0.4850900000000  0.5347610000000  0.4969100000000 1.0
C      1  0.4307760000000  0.5386400000000  0.4526740000000 1.0
C      1  0.4857350000000  0.4064100000000  0.5400150000000 1.0
C      1  0.5562380000000  0.4963940000000  0.5986320000000 1.0
C      1  0.5795610000000  0.4406320000000  0.5011510000000 1.0
C      1  0.4786470000000  0.4844230000000  0.4421210000000 1.0
C      1  0.4409200000000  0.4568320000000  0.4613640000000 1.0
C      1  0.5283790000000  0.6107090000000  0.5198520000000 1.0
C      1  0.4416050000000  0.4058870000000  0.5080810000000 1.0
C      1  0.4937900000000  0.3909820000000  0.4955750000000 1.0
C      1  0.5890450000000  0.4710230000000  0.4667640000000 1.0
C      1  0.4400920000000  0.4259070000000  0.4547000000000 1.0
C      1  0.4837520000000  0.5781790000000  0.4773420000000 1.0
C      1  0.4138900000000  0.5483920000000  0.5028360000000 1.0
C      1  0.5083730000000  0.4599190000000  0.5258380000000 1.0
C      1  0.4908520000000  0.5081260000000  0.5976650000000 1.0
C      1  0.5208480000000  0.4288770000000  0.4121120000000 1.0
C      1  0.4914560000000  0.4458410000000  0.4698450000000 1.0
C      1  0.5458860000000  0.5910000000000  0.5111100000000 1.0
C      1  0.4629720000000  0.4889480000000  0.4012370000000 1.0
C      1  0.4171970000000  0.4183330000000  0.5139160000000 1.0
C      1  0.5564200000000  0.5710840000000  0.5307800000000 1.0
C      1  0.5776010000000  0.4465170000000  0.4550970000000 1.0
C      1  0.5478540000000  0.5142370000000  0.5519180000000 1.0
C      1  0.4099990000000  0.5394020000000  0.5495880000000 1.0
C      1  0.4774070000000  0.4625800000000  0.5284950000000 1.0
C      1  0.4580140000000  0.5261440000000  0.4623600000000 1.0
C      1  0.5258610000000  0.5565350000000  0.4923400000000 1.0
C      1  0.5537490000000  0.4824840000000  0.5382020000000 1.0
C      1  0.4365640000000  0.5800390000000  0.5366970000000 1.0
C      1  0.4999300000000  0.4427200000000  0.3978950000000 1.0
C      1  0.4445010000000  0.5561790000000  0.4323270000000 1.0
C      1  0.5457060000000  0.3982010000000  0.4968460000000 1.0
C      1  0.5171410000000  0.4850440000000  0.5100530000000 1.0
C      1  0.5503090000000  0.5606440000000  0.4531400000000 1.0
C      1  0.5312470000000  0.5474140000000  0.4119260000000 1.0
C      1  0.5187660000000  0.4361390000000  0.5096140000000 1.0
C      1  0.4204830000000  0.4818310000000  0.5539750000000 1.0
C      1  0.5148430000000  0.5874240000000  0.4399380000000 1.0
C      1  0.4910950000000  0.4929330000000  0.4010640000000 1.0
C      1  0.4749930000000  0.4367520000000  0.5794030000000 1.0
C      1  0.4980470000000  0.5129230000000  0.4235940000000 1.0
C      1  0.4627600000000  0.4304690000000  0.4344090000000 1.0
C      1  0.4847240000000  0.5362690000000  0.5643980000000 1.0
C      1  0.4483350000000  0.5956040000000  0.4954560000000 1.0
C      1  0.5032310000000  0.5383740000000  0.4077500000000 1.0
C      1  0.5545550000000  0.4073390000000  0.4721330000000 1.0
C      1  0.5495920000000  0.5255790000000  0.4208050000000 1.0
C      1  0.5481400000000  0.5651720000000  0.5583580000000 1.0
C      1  0.5438740000000  0.5007040000000  0.4566690000000 1.0
C      1  0.4926600000000  0.5665180000000  0.5268470000000 1.0
C      1  0.5370430000000  0.4734690000000  0.4044290000000 1.0
C      1  0.5324750000000  0.4732270000000  0.4539550000000 1.0
C      1  0.5789620000000  0.5219710000000  0.4867880000000 1.0
C      1  0.5132750000000  0.4612630000000  0.5972610000000 1.0
C      1  0.4544710000000  0.5957570000000  0.5226460000000 1.0
C      1  0.4401290000000  0.5806100000000  0.4732620000000 1.0
C      1  0.4526210000000  0.4120470000000  0.4803140000000 1.0
C      1  0.5407550000000  0.5203660000000  0.5901570000000 1.0
C      1  0.4127150000000  0.4670100000000  0.5024020000000 1.0
C      1  0.4351020000000  0.5003610000000  0.5711840000000 1.0
C      1  0.5312430000000  0.4106970000000  0.5182950000000 1.0
C      1  0.4036380000000  0.4958950000000  0.4638610000000 1.0
C      1  0.5085720000000  0.5068750000000  0.5277100000000 1.0
C      1  0.4242640000000  0.4451950000000  0.5187360000000 1.0
C      1  0.5564160000000  0.5389300000000  0.5695670000000 1.0
C      1  0.4989530000000  0.5642350000000  0.4532240000000 1.0
C      1  0.5032460000000  0.4912060000000  0.4824160000000 1.0
C      1  0.4523740000000  0.5289010000000  0.5260450000000 1.0
C      1  0.4591010000000  0.5396130000000  0.4126410000000 1.0
C      1  0.4839790000000  0.5592170000000  0.5944980000000 1.0
C      1  0.4136790000000  0.5151780000000  0.4429800000000 1.0
C      1  0.4855880000000  0.4587720000000  0.5957500000000 1.0
C      1  0.5172250000000  0.5171180000000  0.4616620000000 1.0
C      1  0.4217700000000  0.5576940000000  0.4758280000000 1.0
C      1  0.4610830000000  0.4616570000000  0.4283230000000 1.0
C      1  0.5484280000000  0.4488700000000  0.4457870000000 1.0
C      1  0.5085040000000  0.4697070000000  0.4000850000000 1.0
C      1  0.4565380000000  0.5771300000000  0.4498140000000 1.0
C      1  0.5229460000000  0.6025660000000  0.4657030000000 1.0
C      1  0.4324130000000  0.5302720000000  0.5677860000000 1.0
C      1  0.5165140000000  0.4367170000000  0.4815330000000 1.0
C      1  0.5466060000000  0.4860340000000  0.5084770000000 1.0
C      1  0.6054990000000  0.4691780000000  0.5446750000000 1.0
C      1  0.5761040000000  0.4307010000000  0.5283200000000 1.0
C      1  0.6015100000000  0.4856700000000  0.5192170000000 1.0
C      1  0.5707920000000  0.4815250000000  0.5788310000000 1.0
C      1  0.4786110000000  0.3996350000000  0.4730350000000 1.0
C      1  0.3910580000000  0.5087740000000  0.4853530000000 1.0
C      1  0.5811210000000  0.4927430000000  0.4498880000000 1.0
C      1  0.5267870000000  0.4796720000000  0.5798340000000 1.0
C      1  0.5893070000000  0.4682120000000  0.4968190000000 1.0
C      1  0.4869900000000  0.4213000000000  0.4512320000000 1.0
C      1  0.4605470000000  0.4965770000000  0.4627910000000 1.0
C      1  0.3964460000000  0.5259850000000  0.5064230000000 1.0
C      1  0.4230750000000  0.5061220000000  0.4185730000000 1.0
C      1  0.5881890000000  0.5088300000000  0.5375820000000 1.0
C      1  0.4618020000000  0.4712750000000  0.5042750000000 1.0
C      1  0.5772910000000  0.5492220000000  0.4945860000000 1.0
C      1  0.5653010000000  0.5367550000000  0.4426130000000 1.0
C      1  0.4883790000000  0.5936230000000  0.5615040000000 1.0
C      1  0.5796080000000  0.4544270000000  0.5452060000000 1.0
C      1  0.4733980000000  0.4851870000000  0.5943500000000 1.0
C      1  0.5510880000000  0.5098600000000  0.4896280000000 1.0
C      1  0.5447760000000  0.4468740000000  0.4159240000000 1.0
C      1  0.4557590000000  0.5449680000000  0.5536770000000 1.0
C      1  0.5378940000000  0.5726240000000  0.4283150000000 1.0
C      1  0.4968290000000  0.5598330000000  0.4996280000000 1.0
C      1  0.5201660000000  0.4225600000000  0.5746210000000 1.0
C      1  0.4602770000000  0.4545950000000  0.5506670000000 1.0
C      1  0.4582600000000  0.5367820000000  0.4894610000000 1.0
C      1  0.5940180000000  0.4925900000000  0.5625860000000 1.0
C      1  0.4816870000000  0.5157140000000  0.5195690000000 1.0
C      1  0.5452980000000  0.5875770000000  0.4805440000000 1.0
C      1  0.4134530000000  0.4676350000000  0.4719160000000 1.0
C      1  0.4744000000000  0.4931700000000  0.4888740000000 1.0
C      1  0.5052610000000  0.3953710000000  0.5214420000000 1.0
C      1  0.4198180000000  0.5588410000000  0.5295670000000 1.0
C      1  0.4596340000000  0.4032090000000  0.5297000000000 1.0
C      1  0.5512330000000  0.4188130000000  0.5392650000000 1.0
C      1  0.5414970000000  0.4369970000000  0.5613510000000 1.0
C      1  0.5481570000000  0.4981750000000  0.4136650000000 1.0
C      1  0.5679520000000  0.4511480000000  0.5746850000000 1.0
C      1  0.5019830000000  0.4719430000000  0.4586630000000 1.0
C      1  0.4935490000000  0.4182510000000  0.5665260000000 1.0
C      1  0.4803680000000  0.5519520000000  0.3983570000000 1.0
C      1  0.4459320000000  0.4898880000000  0.5949620000000 1.0
C      1  0.4627520000000  0.4499730000000  0.4835120000000 1.0
C      1  0.5918030000000  0.5365710000000  0.5371140000000 1.0
C      1  0.4472100000000  0.5125960000000  0.4063610000000 1.0
C      1  0.5015450000000  0.6105980000000  0.5121670000000 1.0
C      1  0.5143470000000  0.4154080000000  0.4381750000000 1.0
C      1  0.5425730000000  0.5365110000000  0.5070200000000 1.0
C      1  0.5277510000000  0.5281140000000  0.5336750000000 1.0
C      1  0.5146370000000  0.5079160000000  0.5805780000000 1.0
C      1  0.4342120000000  0.4866300000000  0.5062060000000 1.0
C      1  0.5238180000000  0.5482750000000  0.4643720000000 1.0
C      1  0.4774490000000  0.5329200000000  0.6025240000000 1.0
C      1  0.4298970000000  0.5067440000000  0.5278620000000 1.0
C      1  0.5836870000000  0.5196910000000  0.4581000000000 1.0
C      1  0.5304100000000  0.4651660000000  0.5512840000000 1.0
C      1  0.4847810000000  0.5346300000000  0.4474490000000 1.0
END
