TITL C-951346-9544-456 0.00150232452438837 125000 -139.414475926103 0 0 24 (C1) n - 1
REM
REM in /home/bkarasulu/work/CARBON/AIRSS/Generating-Clusters/EDIP-Nigel-Params/with-SteepDescent/Only-C1/SD-CG/HFTN-CG
REM
REM
REM
REM
REM
REM ./C.cell (11c1c37f851c82e70ff6c80c92926a4b)
REM
REM compiler GCC version 9.2.1 20190827 (Red Hat 9.2.1-1)
REM options -cpp -mtune=generic -march=x86-64 -g -O0 -fpre-include=/usr/include/finclude/math-vector-fortran.h
REM seed 1655752465 -698582947 2078656130 457510946 1471047965 -1709879093 -1550609838 1884008335 966407133 1940909770 -1572968851 954418310 -902307047 -2007090545 553169926 -753974607 1726871496 1354071790 -374607643 -1348076114 -1698947294 -72659564 1369163694 -850502137 -875785501 736197373 301834394 1478076848 1660484290 -225996343 -1841328611 -473983458 92802693
REM
CELL 1.54180   50.00000   50.00000   50.00000   90.00000   90.00000   90.00000
LATT -1
SFAC C  
C      1  0.4730010000000  0.5372260000000  0.4987640000000 1.0
C      1  0.5281690000000  0.4490930000000  0.5730630000000 1.0
C      1  0.4754160000000  0.4765660000000  0.4639270000000 1.0
C      1  0.4994240000000  0.4935880000000  0.5785890000000 1.0
C      1  0.4984560000000  0.5141930000000  0.5601340000000 1.0
C      1  0.4835820000000  0.5469230000000  0.4748910000000 1.0
C      1  0.5116660000000  0.4326580000000  0.5432480000000 1.0
C      1  0.5503430000000  0.5469370000000  0.4649700000000 1.0
C      1  0.4665440000000  0.5101590000000  0.5001820000000 1.0
C      1  0.5184560000000  0.4740230000000  0.5787900000000 1.0
C      1  0.4620500000000  0.4982550000000  0.4752620000000 1.0
C      1  0.4800950000000  0.4926980000000  0.5187700000000 1.0
C      1  0.4826660000000  0.4589220000000  0.4841080000000 1.0
C      1  0.4824530000000  0.5293770000000  0.4532180000000 1.0
C      1  0.4793770000000  0.4994320000000  0.5465040000000 1.0
C      1  0.5058560000000  0.5631420000000  0.4754370000000 1.0
C      1  0.4940860000000  0.4843340000000  0.4448380000000 1.0
C      1  0.4986960000000  0.5112540000000  0.4395870000000 1.0
C      1  0.5419500000000  0.5405100000000  0.4392830000000 1.0
C      1  0.5374700000000  0.4418930000000  0.5478860000000 1.0
C      1  0.4934180000000  0.4471090000000  0.5287770000000 1.0
C      1  0.5241690000000  0.5201820000000  0.4341080000000 1.0
C      1  0.5307880000000  0.5666580000000  0.4643700000000 1.0
C      1  0.4818700000000  0.4648700000000  0.5112940000000 1.0
END
