TITL C-950533-5798-634 -7.93405930822788e-07 125000 -199.37665442212 0 0 34 (C1) n - 1
REM
REM in /home/bkarasulu/work/CARBON/AIRSS/Generating-Clusters/EDIP-Nigel-Params/with-SteepDescent/Only-C1/SD-CG/HFTN-CG
REM
REM
REM
REM
REM
REM ./C.cell (11c1c37f851c82e70ff6c80c92926a4b)
REM
REM compiler GCC version 9.2.1 20190827 (Red Hat 9.2.1-1)
REM options -cpp -mtune=generic -march=x86-64 -g -O0 -fpre-include=/usr/include/finclude/math-vector-fortran.h
REM seed 895521570 944788736 -1632287896 -553605091 -1002888063 -541352908 -1936069113 -1552546152 -325686432 -1186939040 1784172532 63907521 -140424896 -129360092 1502372314 1402907147 2097361973 -1540511001 675829687 -918743419 -1383443456 1444996367 505655772 2013215671 -733065825 -1207806277 -1584825114 868457874 708044739 -193606341 447718807 -614433087 -238118826
REM
CELL 1.54180   50.00000   50.00000   50.00000   90.00000   90.00000   90.00000
LATT -1
SFAC C  
C      1  0.4724900000000  0.5015590000000  0.4348750000000 1.0
C      1  0.5640930000000  0.4738690000000  0.4976930000000 1.0
C      1  0.5187730000000  0.5329470000000  0.4475290000000 1.0
C      1  0.5135550000000  0.4660780000000  0.5504930000000 1.0
C      1  0.5594390000000  0.4984310000000  0.4531590000000 1.0
C      1  0.4991480000000  0.5460240000000  0.4902970000000 1.0
C      1  0.5138020000000  0.5356460000000  0.5362940000000 1.0
C      1  0.5253170000000  0.4891920000000  0.4704430000000 1.0
C      1  0.5319540000000  0.5083410000000  0.4473710000000 1.0
C      1  0.4887770000000  0.4688100000000  0.4874600000000 1.0
C      1  0.5034310000000  0.4706080000000  0.4624660000000 1.0
C      1  0.4663460000000  0.5239450000000  0.5519730000000 1.0
C      1  0.5331210000000  0.4563760000000  0.5305050000000 1.0
C      1  0.5381310000000  0.4978240000000  0.5313180000000 1.0
C      1  0.4543480000000  0.5090450000000  0.4794540000000 1.0
C      1  0.5284350000000  0.5150880000000  0.5556790000000 1.0
C      1  0.4926880000000  0.4927060000000  0.5074010000000 1.0
C      1  0.4765810000000  0.5408500000000  0.5089990000000 1.0
C      1  0.4022540000000  0.5000040000000  0.4767280000000 1.0
C      1  0.4997720000000  0.4534870000000  0.5102820000000 1.0
C      1  0.4584450000000  0.5046840000000  0.5330070000000 1.0
C      1  0.4882990000000  0.4602440000000  0.5369590000000 1.0
C      1  0.5147580000000  0.4915620000000  0.5637770000000 1.0
C      1  0.4716300000000  0.5180870000000  0.4576130000000 1.0
C      1  0.4677370000000  0.4792410000000  0.5392120000000 1.0
C      1  0.4879590000000  0.4801450000000  0.4411000000000 1.0
C      1  0.5534450000000  0.4765330000000  0.4722890000000 1.0
C      1  0.5223700000000  0.5384720000000  0.5066780000000 1.0
C      1  0.5553040000000  0.4736160000000  0.5239460000000 1.0
C      1  0.4975460000000  0.5296690000000  0.4657380000000 1.0
C      1  0.5206210000000  0.5078860000000  0.5088430000000 1.0
C      1  0.4839500000000  0.5408950000000  0.5378000000000 1.0
C      1  0.4683070000000  0.5123350000000  0.5059210000000 1.0
C      1  0.4271720000000  0.5057960000000  0.4766950000000 1.0
END
