TITL C-951339-9237-594 -5.52240097544521e-06 125000 -1097.0041004234 0 0 177 (C1) n - 1
REM
REM in /home/bkarasulu/work/CARBON/AIRSS/Generating-Clusters/EDIP-Nigel-Params/with-SteepDescent/Only-C1/SD-CG/HFTN-CG
REM
REM
REM
REM
REM
REM ./C.cell (11c1c37f851c82e70ff6c80c92926a4b)
REM
REM compiler GCC version 9.2.1 20190827 (Red Hat 9.2.1-1)
REM options -cpp -mtune=generic -march=x86-64 -g -O0 -fpre-include=/usr/include/finclude/math-vector-fortran.h
REM seed -2047692742 2092622969 984051027 27750329 378418468 1487324911 -427364722 832659492 -216741589 430823300 -517729969 1689144221 212650052 -675545816 1194265805 -349534141 1995371254 1741744254 1074440821 -735078972 -2098838464 -2112372651 -339481207 2051745978 -674048942 2123550591 1200645871 -2070377002 589612081 -1133350994 746638713 933992438 -1058695267
REM
CELL 1.54180   50.00000   50.00000   50.00000   90.00000   90.00000   90.00000
LATT -1
SFAC C  
C      1  0.4235630000000  0.4455870000000  0.4477390000000 1.0
C      1  0.5485390000000  0.5583960000000  0.4150530000000 1.0
C      1  0.5151490000000  0.5202810000000  0.5062400000000 1.0
C      1  0.5081260000000  0.5398720000000  0.4460470000000 1.0
C      1  0.6159960000000  0.4930140000000  0.4777960000000 1.0
C      1  0.5039030000000  0.5721620000000  0.5778160000000 1.0
C      1  0.5618750000000  0.5692630000000  0.5595260000000 1.0
C      1  0.5320990000000  0.4863680000000  0.4265470000000 1.0
C      1  0.4190510000000  0.4617940000000  0.5776480000000 1.0
C      1  0.5216460000000  0.5057420000000  0.3883290000000 1.0
C      1  0.4697960000000  0.6030060000000  0.5512400000000 1.0
C      1  0.4864210000000  0.5498870000000  0.5415380000000 1.0
C      1  0.4658890000000  0.5107610000000  0.3990200000000 1.0
C      1  0.5745400000000  0.5890030000000  0.5133280000000 1.0
C      1  0.4639530000000  0.4374590000000  0.4001240000000 1.0
C      1  0.5063610000000  0.4038020000000  0.4540560000000 1.0
C      1  0.5024090000000  0.5918190000000  0.5242570000000 1.0
C      1  0.4631220000000  0.4199470000000  0.4341620000000 1.0
C      1  0.4668490000000  0.4560960000000  0.4705420000000 1.0
C      1  0.4326360000000  0.4715460000000  0.5301510000000 1.0
C      1  0.5269280000000  0.4549230000000  0.3994930000000 1.0
C      1  0.5130290000000  0.3875670000000  0.4774650000000 1.0
C      1  0.5625870000000  0.5867470000000  0.4854090000000 1.0
C      1  0.5383190000000  0.5548760000000  0.5441290000000 1.0
C      1  0.4047020000000  0.4370940000000  0.5274740000000 1.0
C      1  0.4022900000000  0.5142150000000  0.4969050000000 1.0
C      1  0.4726990000000  0.5596070000000  0.4125610000000 1.0
C      1  0.4909670000000  0.5275150000000  0.4658220000000 1.0
C      1  0.4381080000000  0.5019760000000  0.5264720000000 1.0
C      1  0.5658750000000  0.4947390000000  0.5721940000000 1.0
C      1  0.6096200000000  0.5003880000000  0.5363800000000 1.0
C      1  0.4074060000000  0.5596810000000  0.4849530000000 1.0
C      1  0.5527780000000  0.5282810000000  0.5373240000000 1.0
C      1  0.4171910000000  0.5329200000000  0.4787630000000 1.0
C      1  0.5524790000000  0.4185300000000  0.4808600000000 1.0
C      1  0.4502800000000  0.5007140000000  0.4979190000000 1.0
C      1  0.4766070000000  0.4845090000000  0.3934770000000 1.0
C      1  0.5097900000000  0.5313560000000  0.3941870000000 1.0
C      1  0.5069950000000  0.4800340000000  0.3907760000000 1.0
C      1  0.4587470000000  0.5759900000000  0.5448450000000 1.0
C      1  0.4738960000000  0.4336850000000  0.5889000000000 1.0
C      1  0.4980860000000  0.4686960000000  0.4278160000000 1.0
C      1  0.4658980000000  0.5098620000000  0.5988650000000 1.0
C      1  0.5401840000000  0.5780480000000  0.4363210000000 1.0
C      1  0.5049430000000  0.4960990000000  0.4378040000000 1.0
C      1  0.4194090000000  0.4104450000000  0.4895710000000 1.0
C      1  0.5310490000000  0.5738310000000  0.5908880000000 1.0
C      1  0.5388490000000  0.3934470000000  0.4926180000000 1.0
C      1  0.5011850000000  0.4473280000000  0.4517670000000 1.0
C      1  0.4640150000000  0.3918690000000  0.4725290000000 1.0
C      1  0.4897570000000  0.5101100000000  0.5149410000000 1.0
C      1  0.4081380000000  0.5436610000000  0.5337700000000 1.0
C      1  0.4575910000000  0.4668720000000  0.5461690000000 1.0
C      1  0.5351560000000  0.4413190000000  0.4906660000000 1.0
C      1  0.5830210000000  0.5196930000000  0.4984550000000 1.0
C      1  0.4462960000000  0.4950820000000  0.4465060000000 1.0
C      1  0.4131400000000  0.4361980000000  0.4995470000000 1.0
C      1  0.5777890000000  0.4292700000000  0.4931350000000 1.0
C      1  0.4422230000000  0.4471460000000  0.5637450000000 1.0
C      1  0.4683560000000  0.5684680000000  0.4555750000000 1.0
C      1  0.4899160000000  0.4186590000000  0.5036530000000 1.0
C      1  0.4368730000000  0.4548320000000  0.5027150000000 1.0
C      1  0.4259070000000  0.4273500000000  0.5455830000000 1.0
C      1  0.4915420000000  0.5620390000000  0.5133590000000 1.0
C      1  0.6072540000000  0.4699710000000  0.4961910000000 1.0
C      1  0.4840520000000  0.5313290000000  0.6082080000000 1.0
C      1  0.5353640000000  0.4809700000000  0.5090040000000 1.0
C      1  0.4098060000000  0.5146850000000  0.5255020000000 1.0
C      1  0.4552290000000  0.5206860000000  0.4345470000000 1.0
C      1  0.4482320000000  0.5775430000000  0.5153850000000 1.0
C      1  0.5745970000000  0.4630780000000  0.5307540000000 1.0
C      1  0.5626270000000  0.5347730000000  0.4302640000000 1.0
C      1  0.4812700000000  0.5861120000000  0.4776430000000 1.0
C      1  0.6118340000000  0.5216780000000  0.4884730000000 1.0
C      1  0.5506920000000  0.4224570000000  0.4502310000000 1.0
C      1  0.5674780000000  0.5414450000000  0.5131860000000 1.0
C      1  0.4924460000000  0.5654580000000  0.4354950000000 1.0
C      1  0.5498810000000  0.5900160000000  0.5766570000000 1.0
C      1  0.5554610000000  0.4603650000000  0.4041750000000 1.0
C      1  0.4584820000000  0.5514260000000  0.5048700000000 1.0
C      1  0.5305800000000  0.4754550000000  0.6041340000000 1.0
C      1  0.6003840000000  0.5240180000000  0.5479000000000 1.0
C      1  0.4822920000000  0.4840390000000  0.5979550000000 1.0
C      1  0.4643670000000  0.5367190000000  0.4605720000000 1.0
C      1  0.4881010000000  0.4231610000000  0.4046790000000 1.0
C      1  0.4746950000000  0.4171080000000  0.5646260000000 1.0
C      1  0.4462470000000  0.4118500000000  0.5313200000000 1.0
C      1  0.4059690000000  0.4820130000000  0.5632280000000 1.0
C      1  0.4845890000000  0.5190680000000  0.5422750000000 1.0
C      1  0.5106200000000  0.5535840000000  0.5569570000000 1.0
C      1  0.5491480000000  0.5045590000000  0.3921680000000 1.0
C      1  0.5096000000000  0.4585840000000  0.5364600000000 1.0
C      1  0.4819940000000  0.5337950000000  0.4015440000000 1.0
C      1  0.5373790000000  0.5251140000000  0.4462810000000 1.0
C      1  0.5059210000000  0.4884280000000  0.6171860000000 1.0
C      1  0.4125640000000  0.5238350000000  0.4496250000000 1.0
C      1  0.4079180000000  0.4923140000000  0.4520330000000 1.0
C      1  0.3945640000000  0.4721040000000  0.5174500000000 1.0
C      1  0.5089220000000  0.5063870000000  0.5600260000000 1.0
C      1  0.4785000000000  0.3987150000000  0.4473880000000 1.0
C      1  0.5387610000000  0.5630770000000  0.5134240000000 1.0
C      1  0.5460070000000  0.4769630000000  0.4521470000000 1.0
C      1  0.5119900000000  0.5886500000000  0.4382380000000 1.0
C      1  0.4308660000000  0.5358570000000  0.4281070000000 1.0
C      1  0.5682360000000  0.5070870000000  0.4124460000000 1.0
C      1  0.5018710000000  0.4199250000000  0.5569830000000 1.0
C      1  0.4163980000000  0.5552410000000  0.5574520000000 1.0
C      1  0.5919020000000  0.4952570000000  0.4586150000000 1.0
C      1  0.5348730000000  0.3961160000000  0.5225740000000 1.0
C      1  0.5275320000000  0.5522660000000  0.3977240000000 1.0
C      1  0.5323000000000  0.5962380000000  0.4852890000000 1.0
C      1  0.4484430000000  0.5174180000000  0.5765200000000 1.0
C      1  0.5742490000000  0.4775930000000  0.4179910000000 1.0
C      1  0.4690610000000  0.4837200000000  0.4614450000000 1.0
C      1  0.4475650000000  0.5306380000000  0.4856510000000 1.0
C      1  0.5379220000000  0.5604430000000  0.4603080000000 1.0
C      1  0.4485210000000  0.4345780000000  0.4568730000000 1.0
C      1  0.4976030000000  0.4811790000000  0.5722860000000 1.0
C      1  0.5736410000000  0.4327730000000  0.5228940000000 1.0
C      1  0.5230010000000  0.4983590000000  0.4880280000000 1.0
C      1  0.4322320000000  0.4796000000000  0.4843740000000 1.0
C      1  0.5277750000000  0.4835850000000  0.5397670000000 1.0
C      1  0.5300240000000  0.4395530000000  0.5216420000000 1.0
C      1  0.5836240000000  0.5625450000000  0.5278950000000 1.0
C      1  0.4925430000000  0.4485730000000  0.4853330000000 1.0
C      1  0.5207260000000  0.4629190000000  0.5786570000000 1.0
C      1  0.5554970000000  0.4136780000000  0.5350600000000 1.0
C      1  0.5270200000000  0.6045800000000  0.5125530000000 1.0
C      1  0.4567980000000  0.5109450000000  0.5494320000000 1.0
C      1  0.4953250000000  0.4986730000000  0.4651540000000 1.0
C      1  0.5437850000000  0.5466920000000  0.5933630000000 1.0
C      1  0.4394610000000  0.5679910000000  0.5656170000000 1.0
C      1  0.5647180000000  0.5598780000000  0.4729940000000 1.0
C      1  0.4350680000000  0.4759430000000  0.4148340000000 1.0
C      1  0.5280430000000  0.5208450000000  0.5903940000000 1.0
C      1  0.4362890000000  0.4648760000000  0.5997530000000 1.0
C      1  0.4603200000000  0.4648910000000  0.4064570000000 1.0
C      1  0.4811180000000  0.4820380000000  0.5034080000000 1.0
C      1  0.4447250000000  0.4138490000000  0.4778500000000 1.0
C      1  0.5300170000000  0.4514650000000  0.4617650000000 1.0
C      1  0.4529290000000  0.5539630000000  0.5860770000000 1.0
C      1  0.4596110000000  0.3974910000000  0.5514430000000 1.0
C      1  0.5769310000000  0.4709320000000  0.4487640000000 1.0
C      1  0.5153430000000  0.5486990000000  0.5013430000000 1.0
C      1  0.5826190000000  0.5483440000000  0.4523920000000 1.0
C      1  0.4806250000000  0.5581570000000  0.5946000000000 1.0
C      1  0.5115810000000  0.4355230000000  0.5803420000000 1.0
C      1  0.6078240000000  0.5492430000000  0.5371760000000 1.0
C      1  0.4642940000000  0.4592420000000  0.6004960000000 1.0
C      1  0.5110420000000  0.4153520000000  0.5270600000000 1.0
C      1  0.5260730000000  0.4155170000000  0.4361730000000 1.0
C      1  0.5478070000000  0.4988740000000  0.5958410000000 1.0
C      1  0.5814790000000  0.4585150000000  0.4839190000000 1.0
C      1  0.5724710000000  0.5223130000000  0.5592760000000 1.0
C      1  0.5100740000000  0.5184750000000  0.6140740000000 1.0
C      1  0.4630940000000  0.4316030000000  0.5139230000000 1.0
C      1  0.5631990000000  0.4723710000000  0.5051800000000 1.0
C      1  0.6060910000000  0.5372470000000  0.4646520000000 1.0
C      1  0.5547180000000  0.4743580000000  0.5530490000000 1.0
C      1  0.4787260000000  0.6115200000000  0.5226170000000 1.0
C      1  0.4975760000000  0.5961330000000  0.5597880000000 1.0
C      1  0.4148000000000  0.4680900000000  0.4337480000000 1.0
C      1  0.5073450000000  0.5972410000000  0.4670040000000 1.0
C      1  0.6025380000000  0.4752800000000  0.5259080000000 1.0
C      1  0.4651620000000  0.5971940000000  0.5005820000000 1.0
C      1  0.4195050000000  0.5847190000000  0.5118670000000 1.0
C      1  0.4868280000000  0.3906050000000  0.4919100000000 1.0
C      1  0.5689620000000  0.5462410000000  0.5777570000000 1.0
C      1  0.5144360000000  0.4311770000000  0.4134110000000 1.0
C      1  0.4451520000000  0.5618300000000  0.4248250000000 1.0
C      1  0.3948260000000  0.4922250000000  0.5396680000000 1.0
C      1  0.4007100000000  0.5631940000000  0.5131040000000 1.0
C      1  0.5505070000000  0.5975890000000  0.5268860000000 1.0
C      1  0.5716700000000  0.5107660000000  0.4731400000000 1.0
C      1  0.4025160000000  0.4858250000000  0.4897360000000 1.0
C      1  0.4794080000000  0.4599680000000  0.5262270000000 1.0
C      1  0.5440780000000  0.5033600000000  0.4668880000000 1.0
END
