TITL C-951339-9237-417 -1.12547233267447e-08 125000 -1246.46766173191 0 0 196 (C1) n - 1
REM
REM in /home/bkarasulu/work/CARBON/AIRSS/Generating-Clusters/EDIP-Nigel-Params/with-SteepDescent/Only-C1/SD-CG/HFTN-CG
REM
REM
REM
REM
REM
REM ./C.cell (11c1c37f851c82e70ff6c80c92926a4b)
REM
REM compiler GCC version 9.2.1 20190827 (Red Hat 9.2.1-1)
REM options -cpp -mtune=generic -march=x86-64 -g -O0 -fpre-include=/usr/include/finclude/math-vector-fortran.h
REM seed -2130508509 1698678329 -1528654613 747043108 343346384 1278198171 -595882036 -1852121103 395292441 -1133593987 1271947142 392012665 503318534 1043644425 399885220 -418172670 2019631578 -1989626276 -72323281 -1324263628 -1576086999 -374460411 -59357778 -470901846 246635040 -792670831 1131851098 625607831 583290516 777759442 -1794943936 1635381348 281005274
REM
CELL 1.54180   50.00000   50.00000   50.00000   90.00000   90.00000   90.00000
LATT -1
SFAC C  
C      1  0.5288500000000  0.4121640000000  0.4351050000000 1.0
C      1  0.5725800000000  0.5003540000000  0.4687510000000 1.0
C      1  0.5271650000000  0.5472400000000  0.5404690000000 1.0
C      1  0.4759210000000  0.4840220000000  0.3790180000000 1.0
C      1  0.5768580000000  0.5359290000000  0.5768560000000 1.0
C      1  0.5073130000000  0.4805550000000  0.4100360000000 1.0
C      1  0.4789280000000  0.4833760000000  0.4510850000000 1.0
C      1  0.4382370000000  0.5443940000000  0.5541860000000 1.0
C      1  0.4411090000000  0.4712100000000  0.5222050000000 1.0
C      1  0.4884030000000  0.5252290000000  0.4046570000000 1.0
C      1  0.4978200000000  0.5456490000000  0.5586120000000 1.0
C      1  0.6160000000000  0.4731290000000  0.4856500000000 1.0
C      1  0.5074990000000  0.5167150000000  0.4490170000000 1.0
C      1  0.4276810000000  0.4037830000000  0.4663590000000 1.0
C      1  0.4683760000000  0.5306320000000  0.6140240000000 1.0
C      1  0.6137090000000  0.5053070000000  0.4460870000000 1.0
C      1  0.5797050000000  0.4874430000000  0.5690610000000 1.0
C      1  0.5371670000000  0.4924040000000  0.5785890000000 1.0
C      1  0.4484770000000  0.4845750000000  0.6010710000000 1.0
C      1  0.4469790000000  0.5981190000000  0.5232000000000 1.0
C      1  0.5146010000000  0.5083270000000  0.6182740000000 1.0
C      1  0.5076860000000  0.4607050000000  0.5962290000000 1.0
C      1  0.5876460000000  0.5304570000000  0.4711680000000 1.0
C      1  0.4992680000000  0.4109110000000  0.4731380000000 1.0
C      1  0.4985870000000  0.4972740000000  0.4689170000000 1.0
C      1  0.4418930000000  0.4798700000000  0.4133450000000 1.0
C      1  0.5561610000000  0.4169440000000  0.4285790000000 1.0
C      1  0.5660010000000  0.5510030000000  0.4754090000000 1.0
C      1  0.4788320000000  0.5815690000000  0.4315260000000 1.0
C      1  0.5368980000000  0.4650710000000  0.5918660000000 1.0
C      1  0.4973200000000  0.5282680000000  0.6037300000000 1.0
C      1  0.5281550000000  0.4644420000000  0.4220940000000 1.0
C      1  0.4715110000000  0.5320030000000  0.4288840000000 1.0
C      1  0.5785100000000  0.5584330000000  0.5573800000000 1.0
C      1  0.5058620000000  0.6059190000000  0.4871700000000 1.0
C      1  0.4619460000000  0.5507500000000  0.5132060000000 1.0
C      1  0.4502480000000  0.5824470000000  0.4407860000000 1.0
C      1  0.6155130000000  0.4772400000000  0.5158660000000 1.0
C      1  0.5806350000000  0.5956430000000  0.4655100000000 1.0
C      1  0.4703990000000  0.5377560000000  0.4877960000000 1.0
C      1  0.4516880000000  0.5141710000000  0.5967830000000 1.0
C      1  0.4158830000000  0.4607640000000  0.5395260000000 1.0
C      1  0.4075380000000  0.4181280000000  0.4826380000000 1.0
C      1  0.5040090000000  0.3733140000000  0.5227850000000 1.0
C      1  0.5817760000000  0.4303170000000  0.5013210000000 1.0
C      1  0.4457530000000  0.5358080000000  0.4699830000000 1.0
C      1  0.5739970000000  0.4572380000000  0.4961610000000 1.0
C      1  0.4200200000000  0.4691410000000  0.4295340000000 1.0
C      1  0.5499130000000  0.5331140000000  0.5888090000000 1.0
C      1  0.4948910000000  0.5647000000000  0.6054540000000 1.0
C      1  0.4576520000000  0.4661020000000  0.3933120000000 1.0
C      1  0.5419180000000  0.5144210000000  0.6096500000000 1.0
C      1  0.5518650000000  0.4693550000000  0.4022390000000 1.0
C      1  0.5273350000000  0.4087480000000  0.5507620000000 1.0
C      1  0.3958190000000  0.5852570000000  0.5096820000000 1.0
C      1  0.6153730000000  0.5471700000000  0.4915710000000 1.0
C      1  0.5232400000000  0.5571310000000  0.4387770000000 1.0
C      1  0.6220370000000  0.5195360000000  0.4954610000000 1.0
C      1  0.3937670000000  0.5073980000000  0.4588160000000 1.0
C      1  0.4230760000000  0.5781210000000  0.5231150000000 1.0
C      1  0.5754780000000  0.4542420000000  0.4058580000000 1.0
C      1  0.4292610000000  0.4140570000000  0.5348150000000 1.0
C      1  0.5102230000000  0.4971400000000  0.5652530000000 1.0
C      1  0.4244500000000  0.4480230000000  0.4516020000000 1.0
C      1  0.4912590000000  0.4449090000000  0.5281400000000 1.0
C      1  0.4531030000000  0.3969410000000  0.4802210000000 1.0
C      1  0.4650290000000  0.4173700000000  0.4408310000000 1.0
C      1  0.4724610000000  0.4566480000000  0.4599310000000 1.0
C      1  0.4166560000000  0.5041390000000  0.5708860000000 1.0
C      1  0.4347330000000  0.4801140000000  0.5734680000000 1.0
C      1  0.3824940000000  0.5407550000000  0.5029170000000 1.0
C      1  0.4580560000000  0.3841100000000  0.5067660000000 1.0
C      1  0.4686510000000  0.4300700000000  0.5141420000000 1.0
C      1  0.5989180000000  0.4597390000000  0.5329240000000 1.0
C      1  0.5120340000000  0.5632070000000  0.5204490000000 1.0
C      1  0.4497560000000  0.4550320000000  0.5991970000000 1.0
C      1  0.4274950000000  0.4360800000000  0.5552530000000 1.0
C      1  0.5112710000000  0.5928030000000  0.5616450000000 1.0
C      1  0.3957750000000  0.4650710000000  0.4902360000000 1.0
C      1  0.5938070000000  0.4902140000000  0.4311480000000 1.0
C      1  0.4780310000000  0.4603750000000  0.5533310000000 1.0
C      1  0.5380250000000  0.4795420000000  0.4459650000000 1.0
C      1  0.3881480000000  0.4940140000000  0.4848870000000 1.0
C      1  0.5491010000000  0.5674480000000  0.5558400000000 1.0
C      1  0.4989240000000  0.4399810000000  0.4628590000000 1.0
C      1  0.4730070000000  0.5111620000000  0.3846390000000 1.0
C      1  0.4818840000000  0.3696660000000  0.5080890000000 1.0
C      1  0.3959670000000  0.5789100000000  0.4809220000000 1.0
C      1  0.5036890000000  0.3913050000000  0.5439360000000 1.0
C      1  0.5178520000000  0.5608600000000  0.4909690000000 1.0
C      1  0.5165000000000  0.4412220000000  0.5493180000000 1.0
C      1  0.5838300000000  0.5076420000000  0.4107080000000 1.0
C      1  0.4342560000000  0.5560210000000  0.5077530000000 1.0
C      1  0.5870590000000  0.5345320000000  0.4187990000000 1.0
C      1  0.5782070000000  0.6008290000000  0.4930020000000 1.0
C      1  0.4996310000000  0.5889570000000  0.5334300000000 1.0
C      1  0.5536040000000  0.5051920000000  0.4421370000000 1.0
C      1  0.5772380000000  0.4385580000000  0.5703770000000 1.0
C      1  0.4677430000000  0.5555560000000  0.5435310000000 1.0
C      1  0.4917430000000  0.5576350000000  0.4447420000000 1.0
C      1  0.5513930000000  0.4220640000000  0.5325640000000 1.0
C      1  0.5087180000000  0.5668130000000  0.5785170000000 1.0
C      1  0.4371930000000  0.5597900000000  0.4276710000000 1.0
C      1  0.4697030000000  0.5856530000000  0.5395190000000 1.0
C      1  0.4439930000000  0.5850360000000  0.4701390000000 1.0
C      1  0.4579690000000  0.4058750000000  0.5282390000000 1.0
C      1  0.5512890000000  0.5945460000000  0.5023110000000 1.0
C      1  0.4553360000000  0.6043630000000  0.4946280000000 1.0
C      1  0.5392160000000  0.5394890000000  0.4824540000000 1.0
C      1  0.4773240000000  0.4214600000000  0.5734800000000 1.0
C      1  0.4367940000000  0.5090170000000  0.4572120000000 1.0
C      1  0.4775990000000  0.5691840000000  0.4037730000000 1.0
C      1  0.5156360000000  0.4549090000000  0.4821770000000 1.0
C      1  0.5879250000000  0.4696200000000  0.4749190000000 1.0
C      1  0.4000520000000  0.4441080000000  0.4690210000000 1.0
C      1  0.5385970000000  0.6098170000000  0.5243480000000 1.0
C      1  0.5531440000000  0.4893450000000  0.5525690000000 1.0
C      1  0.4453140000000  0.4585700000000  0.4724340000000 1.0
C      1  0.4806880000000  0.5894520000000  0.4827450000000 1.0
C      1  0.4588110000000  0.5027600000000  0.4377360000000 1.0
C      1  0.6066810000000  0.5635340000000  0.5134520000000 1.0
C      1  0.5093070000000  0.5088590000000  0.4187390000000 1.0
C      1  0.5948540000000  0.5488470000000  0.5351710000000 1.0
C      1  0.4521350000000  0.5535970000000  0.4041880000000 1.0
C      1  0.5106570000000  0.4360930000000  0.4330430000000 1.0
C      1  0.4365520000000  0.5201960000000  0.5317760000000 1.0
C      1  0.5375430000000  0.5587170000000  0.5821900000000 1.0
C      1  0.3811840000000  0.5120850000000  0.5067590000000 1.0
C      1  0.5375970000000  0.5809430000000  0.4525090000000 1.0
C      1  0.6226600000000  0.4993970000000  0.4740310000000 1.0
C      1  0.3901280000000  0.5576540000000  0.5497520000000 1.0
C      1  0.5572220000000  0.4138430000000  0.5028230000000 1.0
C      1  0.4706510000000  0.4424850000000  0.4005290000000 1.0
C      1  0.5986410000000  0.5896860000000  0.5082970000000 1.0
C      1  0.5575860000000  0.4996000000000  0.3995450000000 1.0
C      1  0.5011300000000  0.5510260000000  0.3955260000000 1.0
C      1  0.5135640000000  0.5002420000000  0.5349150000000 1.0
C      1  0.5090040000000  0.6125530000000  0.5162280000000 1.0
C      1  0.5021380000000  0.4296230000000  0.5892020000000 1.0
C      1  0.4962170000000  0.4731830000000  0.5721280000000 1.0
C      1  0.5656220000000  0.5736170000000  0.4566020000000 1.0
C      1  0.4126020000000  0.5045950000000  0.5421760000000 1.0
C      1  0.5396700000000  0.5972000000000  0.5523220000000 1.0
C      1  0.4753330000000  0.3988910000000  0.4614830000000 1.0
C      1  0.5048840000000  0.4812590000000  0.6178000000000 1.0
C      1  0.5290510000000  0.4186250000000  0.5803200000000 1.0
C      1  0.4192960000000  0.4285760000000  0.5090290000000 1.0
C      1  0.5374530000000  0.5187770000000  0.5317690000000 1.0
C      1  0.5486930000000  0.4418730000000  0.5792470000000 1.0
C      1  0.4484540000000  0.4969430000000  0.5027090000000 1.0
C      1  0.5262130000000  0.4024190000000  0.4632380000000 1.0
C      1  0.4452480000000  0.4458010000000  0.5031710000000 1.0
C      1  0.4383090000000  0.4877030000000  0.4775980000000 1.0
C      1  0.4070500000000  0.4935990000000  0.4375980000000 1.0
C      1  0.5251330000000  0.4806940000000  0.4724330000000 1.0
C      1  0.5294680000000  0.5875610000000  0.4819660000000 1.0
C      1  0.4962120000000  0.5212490000000  0.5749860000000 1.0
C      1  0.3981270000000  0.5363350000000  0.4568310000000 1.0
C      1  0.5942100000000  0.4626500000000  0.5618080000000 1.0
C      1  0.5776100000000  0.4197130000000  0.5474130000000 1.0
C      1  0.5484860000000  0.4178020000000  0.4748120000000 1.0
C      1  0.4123570000000  0.5489060000000  0.4359160000000 1.0
C      1  0.4776170000000  0.4016600000000  0.5516920000000 1.0
C      1  0.4554040000000  0.4796270000000  0.5482380000000 1.0
C      1  0.4285760000000  0.5595290000000  0.4790470000000 1.0
C      1  0.3859350000000  0.5040420000000  0.5327680000000 1.0
C      1  0.5853340000000  0.4493830000000  0.4526420000000 1.0
C      1  0.5937630000000  0.5134160000000  0.5668660000000 1.0
C      1  0.3857660000000  0.5524100000000  0.4769460000000 1.0
C      1  0.5260210000000  0.4769890000000  0.5193000000000 1.0
C      1  0.5486740000000  0.4915330000000  0.4909870000000 1.0
C      1  0.6026670000000  0.5217850000000  0.5403280000000 1.0
C      1  0.4641900000000  0.5076890000000  0.5423890000000 1.0
C      1  0.3812060000000  0.5622330000000  0.5232110000000 1.0
C      1  0.4899780000000  0.5593280000000  0.4758930000000 1.0
C      1  0.5957930000000  0.4313540000000  0.5270260000000 1.0
C      1  0.6019640000000  0.5325200000000  0.4430530000000 1.0
C      1  0.4350070000000  0.4203990000000  0.4423680000000 1.0
C      1  0.5023660000000  0.4753300000000  0.3826660000000 1.0
C      1  0.4783450000000  0.5090790000000  0.4958170000000 1.0
C      1  0.5921370000000  0.4615230000000  0.4273240000000 1.0
C      1  0.5668960000000  0.4259040000000  0.4530890000000 1.0
C      1  0.6158870000000  0.5062360000000  0.5200670000000 1.0
C      1  0.5282980000000  0.5516250000000  0.4092980000000 1.0
C      1  0.4171240000000  0.5652900000000  0.5491820000000 1.0
C      1  0.5041760000000  0.4619020000000  0.5077770000000 1.0
C      1  0.4525930000000  0.4393740000000  0.5742010000000 1.0
C      1  0.5363830000000  0.5204440000000  0.4105960000000 1.0
C      1  0.4836450000000  0.4276160000000  0.4200130000000 1.0
C      1  0.5414260000000  0.4595990000000  0.5392680000000 1.0
C      1  0.3992320000000  0.4505200000000  0.5165470000000 1.0
C      1  0.5328510000000  0.5303060000000  0.4536960000000 1.0
C      1  0.4671420000000  0.5592900000000  0.6105860000000 1.0
C      1  0.4875820000000  0.5103860000000  0.5241630000000 1.0
C      1  0.4321970000000  0.5278430000000  0.5797340000000 1.0
C      1  0.5428590000000  0.5177440000000  0.5025300000000 1.0
END
