TITL C-950525-1983-245 -1.38585248239491e-06 125000 -962.293910399483 0 0 153 (C1) n - 1
REM
REM in /home/bkarasulu/work/CARBON/AIRSS/Generating-Clusters/EDIP-Nigel-Params/with-SteepDescent/Only-C1/SD-CG/HFTN-CG
REM
REM
REM
REM
REM
REM ./C.cell (11c1c37f851c82e70ff6c80c92926a4b)
REM
REM compiler GCC version 9.2.1 20190827 (Red Hat 9.2.1-1)
REM options -cpp -mtune=generic -march=x86-64 -g -O0 -fpre-include=/usr/include/finclude/math-vector-fortran.h
REM seed 1748707501 -1976866098 804143937 -415581670 959443209 -426357638 267428873 1787866707 -1260852623 -265057010 1800979336 1818252330 1208191613 67311180 611907182 -1594683237 1226813372 -2036551929 -272303917 -1915697726 -1439829776 -1587191310 249281787 -1818038982 322424751 859258860 -1188564204 -1194336836 -2021721342 -1369923117 -1431105136 -681699804 1451769177
REM
CELL 1.54180   50.00000   50.00000   50.00000   90.00000   90.00000   90.00000
LATT -1
SFAC C  
C      1  0.4732920000000  0.5662900000000  0.5509170000000 1.0
C      1  0.5062600000000  0.4153920000000  0.5517630000000 1.0
C      1  0.4842860000000  0.4131610000000  0.4472680000000 1.0
C      1  0.4550280000000  0.5499390000000  0.4625950000000 1.0
C      1  0.4083630000000  0.4930950000000  0.5516370000000 1.0
C      1  0.6004910000000  0.5208520000000  0.4965880000000 1.0
C      1  0.5027430000000  0.4029900000000  0.4710820000000 1.0
C      1  0.4035710000000  0.5705030000000  0.4923830000000 1.0
C      1  0.4923460000000  0.5284480000000  0.5065260000000 1.0
C      1  0.4726480000000  0.5134010000000  0.3887880000000 1.0
C      1  0.5564070000000  0.5680940000000  0.4618250000000 1.0
C      1  0.4850870000000  0.3922850000000  0.4937710000000 1.0
C      1  0.5578780000000  0.4670950000000  0.5793210000000 1.0
C      1  0.5421630000000  0.4486990000000  0.5201570000000 1.0
C      1  0.5218060000000  0.5280610000000  0.4924290000000 1.0
C      1  0.5843780000000  0.4719870000000  0.5709590000000 1.0
C      1  0.5041900000000  0.4252820000000  0.4283870000000 1.0
C      1  0.4313110000000  0.5095680000000  0.5174400000000 1.0
C      1  0.5882560000000  0.4228350000000  0.5045340000000 1.0
C      1  0.4926880000000  0.6108480000000  0.5200440000000 1.0
C      1  0.4265340000000  0.5035540000000  0.4159790000000 1.0
C      1  0.5187190000000  0.5769060000000  0.5586120000000 1.0
C      1  0.5384100000000  0.5101470000000  0.5488400000000 1.0
C      1  0.5726030000000  0.4531850000000  0.4692860000000 1.0
C      1  0.5350150000000  0.5440460000000  0.4224220000000 1.0
C      1  0.5409360000000  0.4942560000000  0.5232210000000 1.0
C      1  0.4846130000000  0.5180170000000  0.5342110000000 1.0
C      1  0.4421100000000  0.5043260000000  0.5911470000000 1.0
C      1  0.4861990000000  0.5539300000000  0.4108420000000 1.0
C      1  0.4755100000000  0.4557250000000  0.5879370000000 1.0
C      1  0.4387060000000  0.5305660000000  0.4201510000000 1.0
C      1  0.3986330000000  0.5204400000000  0.4824360000000 1.0
C      1  0.4725360000000  0.5950940000000  0.4703650000000 1.0
C      1  0.5021220000000  0.5878430000000  0.5803390000000 1.0
C      1  0.5925250000000  0.4684700000000  0.4853230000000 1.0
C      1  0.5759120000000  0.4533850000000  0.4397120000000 1.0
C      1  0.5948760000000  0.4972720000000  0.4785300000000 1.0
C      1  0.5337120000000  0.3995920000000  0.4570500000000 1.0
C      1  0.4292250000000  0.5795680000000  0.5347530000000 1.0
C      1  0.4967510000000  0.4721050000000  0.5103450000000 1.0
C      1  0.5010910000000  0.5599940000000  0.5391660000000 1.0
C      1  0.5081220000000  0.5291210000000  0.5505790000000 1.0
C      1  0.5736300000000  0.4239040000000  0.4791560000000 1.0
C      1  0.5132740000000  0.4820730000000  0.5863130000000 1.0
C      1  0.5183420000000  0.5360870000000  0.4626860000000 1.0
C      1  0.4965950000000  0.4897280000000  0.4849500000000 1.0
C      1  0.5050520000000  0.4896910000000  0.4559490000000 1.0
C      1  0.5122600000000  0.5457680000000  0.3990780000000 1.0
C      1  0.5547820000000  0.5893820000000  0.4829290000000 1.0
C      1  0.5261730000000  0.4254200000000  0.5136870000000 1.0
C      1  0.5310320000000  0.4268720000000  0.4433210000000 1.0
C      1  0.5479710000000  0.5146060000000  0.5936200000000 1.0
C      1  0.4774810000000  0.4209260000000  0.5500740000000 1.0
C      1  0.4997270000000  0.5282480000000  0.5809910000000 1.0
C      1  0.4301290000000  0.5391720000000  0.5131510000000 1.0
C      1  0.4641690000000  0.5762270000000  0.4496470000000 1.0
C      1  0.5182630000000  0.3930590000000  0.5346850000000 1.0
C      1  0.4766080000000  0.5110390000000  0.4878570000000 1.0
C      1  0.4673490000000  0.4168450000000  0.4984380000000 1.0
C      1  0.4977320000000  0.4527250000000  0.4198430000000 1.0
C      1  0.4805770000000  0.4873140000000  0.5332150000000 1.0
C      1  0.5883890000000  0.5174780000000  0.5390960000000 1.0
C      1  0.4268690000000  0.5472710000000  0.5723370000000 1.0
C      1  0.4729330000000  0.5247010000000  0.4612710000000 1.0
C      1  0.5382070000000  0.4995060000000  0.4930010000000 1.0
C      1  0.5044540000000  0.4550910000000  0.5839750000000 1.0
C      1  0.5882150000000  0.5018430000000  0.4508390000000 1.0
C      1  0.4549970000000  0.5575460000000  0.4947880000000 1.0
C      1  0.4864460000000  0.5739100000000  0.4314710000000 1.0
C      1  0.5306050000000  0.5602960000000  0.4477380000000 1.0
C      1  0.4073870000000  0.4686400000000  0.4754200000000 1.0
C      1  0.5420370000000  0.5475020000000  0.5043420000000 1.0
C      1  0.5443290000000  0.4663070000000  0.4749300000000 1.0
C      1  0.3988200000000  0.4929930000000  0.4942140000000 1.0
C      1  0.4984320000000  0.3829750000000  0.5165420000000 1.0
C      1  0.5283470000000  0.5368600000000  0.5895610000000 1.0
C      1  0.4364180000000  0.5029710000000  0.5472130000000 1.0
C      1  0.4313560000000  0.5502350000000  0.5427600000000 1.0
C      1  0.5622090000000  0.5453650000000  0.4808380000000 1.0
C      1  0.5889800000000  0.5482880000000  0.4930860000000 1.0
C      1  0.6016140000000  0.4497080000000  0.5062560000000 1.0
C      1  0.4782250000000  0.5727000000000  0.5792410000000 1.0
C      1  0.4230520000000  0.5862700000000  0.5057550000000 1.0
C      1  0.5730880000000  0.5224280000000  0.5833340000000 1.0
C      1  0.5247970000000  0.4706660000000  0.5238050000000 1.0
C      1  0.4624140000000  0.4363070000000  0.5706280000000 1.0
C      1  0.5486310000000  0.4409370000000  0.5676820000000 1.0
C      1  0.5111510000000  0.5831070000000  0.4439640000000 1.0
C      1  0.3970690000000  0.4924250000000  0.5237780000000 1.0
C      1  0.4140980000000  0.5195120000000  0.4579260000000 1.0
C      1  0.4758570000000  0.5455850000000  0.5903230000000 1.0
C      1  0.4921540000000  0.5003870000000  0.5867660000000 1.0
C      1  0.4659790000000  0.4858670000000  0.5823630000000 1.0
C      1  0.5108730000000  0.4285830000000  0.4871130000000 1.0
C      1  0.4656820000000  0.5333260000000  0.4086660000000 1.0
C      1  0.5508540000000  0.5214630000000  0.4361330000000 1.0
C      1  0.4591540000000  0.4177510000000  0.5272430000000 1.0
C      1  0.4527930000000  0.5898230000000  0.4948110000000 1.0
C      1  0.4106850000000  0.4704820000000  0.4457550000000 1.0
C      1  0.5449210000000  0.4008500000000  0.5178350000000 1.0
C      1  0.4575560000000  0.4294740000000  0.4514970000000 1.0
C      1  0.5199210000000  0.4347710000000  0.5694880000000 1.0
C      1  0.5582120000000  0.5181660000000  0.4673850000000 1.0
C      1  0.5190420000000  0.6042900000000  0.5152440000000 1.0
C      1  0.5313550000000  0.4888950000000  0.4059250000000 1.0
C      1  0.5862110000000  0.4584310000000  0.5466230000000 1.0
C      1  0.4504220000000  0.4697330000000  0.4989310000000 1.0
C      1  0.4442080000000  0.4187460000000  0.4775160000000 1.0
C      1  0.4609080000000  0.5391900000000  0.5451680000000 1.0
C      1  0.5526020000000  0.5683720000000  0.5252320000000 1.0
C      1  0.5391910000000  0.4909670000000  0.5771210000000 1.0
C      1  0.4559500000000  0.5891550000000  0.5410050000000 1.0
C      1  0.5603690000000  0.5545450000000  0.5515760000000 1.0
C      1  0.4465360000000  0.4672270000000  0.4701820000000 1.0
C      1  0.5708680000000  0.4130660000000  0.5284310000000 1.0
C      1  0.5387930000000  0.5591070000000  0.5714410000000 1.0
C      1  0.5034880000000  0.5956130000000  0.4690410000000 1.0
C      1  0.5334800000000  0.5900000000000  0.5356380000000 1.0
C      1  0.6091900000000  0.5151470000000  0.5224100000000 1.0
C      1  0.5732550000000  0.5801050000000  0.5061610000000 1.0
C      1  0.4523380000000  0.4983410000000  0.5008800000000 1.0
C      1  0.4436930000000  0.4798740000000  0.4124520000000 1.0
C      1  0.4362820000000  0.4356490000000  0.5330900000000 1.0
C      1  0.6097820000000  0.4580070000000  0.5317250000000 1.0
C      1  0.4661630000000  0.6031130000000  0.5182730000000 1.0
C      1  0.5257140000000  0.5956640000000  0.4888490000000 1.0
C      1  0.4365960000000  0.4581990000000  0.4335720000000 1.0
C      1  0.5489730000000  0.4929040000000  0.4290900000000 1.0
C      1  0.4040460000000  0.5438060000000  0.5007750000000 1.0
C      1  0.5012540000000  0.5183240000000  0.3841090000000 1.0
C      1  0.5772100000000  0.4819820000000  0.4308970000000 1.0
C      1  0.4155910000000  0.4973600000000  0.5801780000000 1.0
C      1  0.5182950000000  0.4646780000000  0.4049080000000 1.0
C      1  0.4854150000000  0.4434420000000  0.4923500000000 1.0
C      1  0.4880570000000  0.4684740000000  0.4432820000000 1.0
C      1  0.4722250000000  0.4530220000000  0.4637720000000 1.0
C      1  0.4826640000000  0.5554310000000  0.5065550000000 1.0
C      1  0.4992490000000  0.5186800000000  0.4466280000000 1.0
C      1  0.5341070000000  0.4840300000000  0.4528490000000 1.0
C      1  0.5108130000000  0.5092380000000  0.4112630000000 1.0
C      1  0.5572490000000  0.4021400000000  0.4717860000000 1.0
C      1  0.4300200000000  0.5413950000000  0.4469870000000 1.0
C      1  0.5547750000000  0.4373560000000  0.4290370000000 1.0
C      1  0.4642020000000  0.4867760000000  0.3941800000000 1.0
C      1  0.4082810000000  0.4989010000000  0.4379810000000 1.0
C      1  0.4431830000000  0.4525240000000  0.5562530000000 1.0
C      1  0.4288350000000  0.4527550000000  0.5102280000000 1.0
C      1  0.5261980000000  0.4434290000000  0.4679850000000 1.0
C      1  0.5627210000000  0.4402120000000  0.5407220000000 1.0
C      1  0.4475920000000  0.5334310000000  0.5868240000000 1.0
C      1  0.4572050000000  0.4811200000000  0.5523210000000 1.0
C      1  0.5662070000000  0.5259230000000  0.5547830000000 1.0
C      1  0.4217900000000  0.4354110000000  0.4873540000000 1.0
END
