TITL C-951340-9809-423 2.97837291699772e-06 125000 -1135.01611199001 0 0 180 (C1) n - 1
REM
REM in /home/bkarasulu/work/CARBON/AIRSS/Generating-Clusters/EDIP-Nigel-Params/with-SteepDescent/Only-C1/SD-CG/HFTN-CG
REM
REM
REM
REM
REM
REM ./C.cell (11c1c37f851c82e70ff6c80c92926a4b)
REM
REM compiler GCC version 9.2.1 20190827 (Red Hat 9.2.1-1)
REM options -cpp -mtune=generic -march=x86-64 -g -O0 -fpre-include=/usr/include/finclude/math-vector-fortran.h
REM seed 611491676 286691318 1943319107 28717939 -1373849688 1358326743 308936507 -682711279 -361682474 1345063459 692883512 716700311 249084279 -465774297 167886480 -1122706182 105751853 814473377 -2086433030 -636885665 -1882614020 -1682875333 -641294784 -487071598 1662454958 1492023877 1986699217 -1176220313 -2051936142 1720069010 -1538478323 -1468880109 516142927
REM
CELL 1.54180   50.00000   50.00000   50.00000   90.00000   90.00000   90.00000
LATT -1
SFAC C  
C      1  0.5332270000000  0.4890250000000  0.3874530000000 1.0
C      1  0.5625990000000  0.4625280000000  0.4738280000000 1.0
C      1  0.4712620000000  0.4488410000000  0.5921640000000 1.0
C      1  0.4367640000000  0.5551790000000  0.4354990000000 1.0
C      1  0.5381580000000  0.5710630000000  0.5532300000000 1.0
C      1  0.5254560000000  0.6094910000000  0.5271250000000 1.0
C      1  0.5058280000000  0.6008060000000  0.4613640000000 1.0
C      1  0.5061460000000  0.4330270000000  0.4289930000000 1.0
C      1  0.4211260000000  0.4849590000000  0.4762350000000 1.0
C      1  0.4905560000000  0.5106590000000  0.4169970000000 1.0
C      1  0.5670000000000  0.4104490000000  0.4702150000000 1.0
C      1  0.4697540000000  0.5609760000000  0.5104470000000 1.0
C      1  0.6077180000000  0.4482950000000  0.4710920000000 1.0
C      1  0.4892210000000  0.4591690000000  0.5333500000000 1.0
C      1  0.5810340000000  0.4529440000000  0.5531410000000 1.0
C      1  0.5150040000000  0.4052730000000  0.5403670000000 1.0
C      1  0.5598410000000  0.4421800000000  0.5716210000000 1.0
C      1  0.5436900000000  0.4605720000000  0.4237900000000 1.0
C      1  0.3889570000000  0.5114330000000  0.5233910000000 1.0
C      1  0.3852500000000  0.4723950000000  0.4978900000000 1.0
C      1  0.5307360000000  0.5750270000000  0.4926290000000 1.0
C      1  0.4152460000000  0.4953800000000  0.4287800000000 1.0
C      1  0.3876920000000  0.4877660000000  0.5411470000000 1.0
C      1  0.5725800000000  0.4803620000000  0.5417800000000 1.0
C      1  0.5644180000000  0.5047340000000  0.4246090000000 1.0
C      1  0.4228690000000  0.4264780000000  0.4797290000000 1.0
C      1  0.4122610000000  0.4688020000000  0.4421990000000 1.0
C      1  0.5160490000000  0.5544060000000  0.5379990000000 1.0
C      1  0.4424520000000  0.5976030000000  0.5100650000000 1.0
C      1  0.5634130000000  0.5520290000000  0.5621680000000 1.0
C      1  0.3972700000000  0.5599590000000  0.4667330000000 1.0
C      1  0.5487270000000  0.5924990000000  0.5339380000000 1.0
C      1  0.4441620000000  0.5536000000000  0.5908540000000 1.0
C      1  0.4734750000000  0.4109520000000  0.5613960000000 1.0
C      1  0.5752140000000  0.4594250000000  0.4986900000000 1.0
C      1  0.5122300000000  0.5520000000000  0.4198020000000 1.0
C      1  0.5563230000000  0.5796090000000  0.5074310000000 1.0
C      1  0.4722050000000  0.5554200000000  0.5895580000000 1.0
C      1  0.4585670000000  0.4533300000000  0.4217320000000 1.0
C      1  0.5821820000000  0.5063580000000  0.5564720000000 1.0
C      1  0.4595340000000  0.4253850000000  0.5394670000000 1.0
C      1  0.5423490000000  0.3931070000000  0.5402900000000 1.0
C      1  0.4943450000000  0.6055970000000  0.4880470000000 1.0
C      1  0.4619880000000  0.5857540000000  0.5509190000000 1.0
C      1  0.4448370000000  0.5009000000000  0.4188030000000 1.0
C      1  0.5191690000000  0.3953860000000  0.4961050000000 1.0
C      1  0.4609370000000  0.4555030000000  0.5417270000000 1.0
C      1  0.5304270000000  0.4921250000000  0.5029080000000 1.0
C      1  0.4496500000000  0.4839550000000  0.4679430000000 1.0
C      1  0.5708820000000  0.5079890000000  0.5012660000000 1.0
C      1  0.5233560000000  0.5284380000000  0.5262720000000 1.0
C      1  0.5423800000000  0.4773700000000  0.5342820000000 1.0
C      1  0.5830750000000  0.4829020000000  0.5143180000000 1.0
C      1  0.5256960000000  0.5786870000000  0.4630690000000 1.0
C      1  0.5214370000000  0.4504250000000  0.6011830000000 1.0
C      1  0.4451050000000  0.5226640000000  0.5007100000000 1.0
C      1  0.6149650000000  0.5140960000000  0.5150960000000 1.0
C      1  0.4826240000000  0.5717050000000  0.5670780000000 1.0
C      1  0.5708450000000  0.5528060000000  0.5147000000000 1.0
C      1  0.4951040000000  0.4400560000000  0.5085730000000 1.0
C      1  0.5824220000000  0.4915680000000  0.4463700000000 1.0
C      1  0.5289800000000  0.4472720000000  0.4703700000000 1.0
C      1  0.4833800000000  0.4502630000000  0.4402850000000 1.0
C      1  0.4903390000000  0.4310750000000  0.5758870000000 1.0
C      1  0.5049180000000  0.6093200000000  0.5486860000000 1.0
C      1  0.4850580000000  0.5304530000000  0.5958360000000 1.0
C      1  0.4460620000000  0.5731930000000  0.5269510000000 1.0
C      1  0.4764020000000  0.5253640000000  0.5416360000000 1.0
C      1  0.5253270000000  0.4732490000000  0.4514100000000 1.0
C      1  0.4631100000000  0.5012920000000  0.5832130000000 1.0
C      1  0.5252950000000  0.4337990000000  0.5451250000000 1.0
C      1  0.5267330000000  0.4759470000000  0.5618510000000 1.0
C      1  0.5923310000000  0.4353570000000  0.5318320000000 1.0
C      1  0.4875110000000  0.4833500000000  0.4059650000000 1.0
C      1  0.4944870000000  0.5733060000000  0.5246610000000 1.0
C      1  0.4669860000000  0.6134760000000  0.4989690000000 1.0
C      1  0.6260710000000  0.4662860000000  0.4988350000000 1.0
C      1  0.5102840000000  0.4693020000000  0.3921660000000 1.0
C      1  0.4931840000000  0.5233840000000  0.4943450000000 1.0
C      1  0.5538310000000  0.4187480000000  0.4470830000000 1.0
C      1  0.5836760000000  0.4606480000000  0.4533660000000 1.0
C      1  0.6140200000000  0.4395000000000  0.5003240000000 1.0
C      1  0.4672430000000  0.4757480000000  0.4915310000000 1.0
C      1  0.5209460000000  0.4492940000000  0.4994320000000 1.0
C      1  0.5112410000000  0.5018900000000  0.5694750000000 1.0
C      1  0.3903650000000  0.5130880000000  0.4705130000000 1.0
C      1  0.4144320000000  0.5612700000000  0.4916020000000 1.0
C      1  0.5718060000000  0.5964630000000  0.4892330000000 1.0
C      1  0.5427840000000  0.4639450000000  0.5844920000000 1.0
C      1  0.5323900000000  0.5253370000000  0.6076610000000 1.0
C      1  0.4055440000000  0.5326310000000  0.5354410000000 1.0
C      1  0.4385340000000  0.5437470000000  0.4808990000000 1.0
C      1  0.4230540000000  0.4629740000000  0.5638980000000 1.0
C      1  0.4552830000000  0.5058850000000  0.4481950000000 1.0
C      1  0.4347360000000  0.4119310000000  0.5018850000000 1.0
C      1  0.5684060000000  0.4356040000000  0.5140410000000 1.0
C      1  0.4898790000000  0.5359650000000  0.4663550000000 1.0
C      1  0.4983750000000  0.4940620000000  0.4977140000000 1.0
C      1  0.5396490000000  0.4481440000000  0.5227830000000 1.0
C      1  0.5180010000000  0.5223560000000  0.4128070000000 1.0
C      1  0.4101130000000  0.4909840000000  0.5604190000000 1.0
C      1  0.4290170000000  0.5953990000000  0.4642070000000 1.0
C      1  0.5531220000000  0.5269350000000  0.5187230000000 1.0
C      1  0.5184980000000  0.4220050000000  0.5898500000000 1.0
C      1  0.5501480000000  0.5598740000000  0.4253740000000 1.0
C      1  0.5019060000000  0.5106570000000  0.5415760000000 1.0
C      1  0.4478600000000  0.4738060000000  0.5166870000000 1.0
C      1  0.5409350000000  0.5194400000000  0.4774950000000 1.0
C      1  0.5541290000000  0.5127280000000  0.5956450000000 1.0
C      1  0.4161990000000  0.5733840000000  0.4486950000000 1.0
C      1  0.4954200000000  0.4783060000000  0.4520240000000 1.0
C      1  0.4640970000000  0.5662540000000  0.4321950000000 1.0
C      1  0.4534840000000  0.4652860000000  0.5714860000000 1.0
C      1  0.5962650000000  0.5206590000000  0.4912380000000 1.0
C      1  0.4943860000000  0.4662030000000  0.6025550000000 1.0
C      1  0.5720530000000  0.5371250000000  0.4238920000000 1.0
C      1  0.4893760000000  0.4881490000000  0.5829290000000 1.0
C      1  0.4646860000000  0.5613620000000  0.4783940000000 1.0
C      1  0.4583510000000  0.5914760000000  0.4682450000000 1.0
C      1  0.4103490000000  0.5296830000000  0.5635170000000 1.0
C      1  0.4279620000000  0.4989010000000  0.5072670000000 1.0
C      1  0.5092660000000  0.5863750000000  0.5674260000000 1.0
C      1  0.5271180000000  0.5167270000000  0.3859220000000 1.0
C      1  0.4926020000000  0.6059800000000  0.4374080000000 1.0
C      1  0.4709070000000  0.5313310000000  0.5130440000000 1.0
C      1  0.5549770000000  0.4823230000000  0.4063310000000 1.0
C      1  0.4791780000000  0.4055650000000  0.4703550000000 1.0
C      1  0.3954100000000  0.4301110000000  0.4771720000000 1.0
C      1  0.5093150000000  0.4011990000000  0.4687040000000 1.0
C      1  0.3920960000000  0.4627320000000  0.5255380000000 1.0
C      1  0.5909930000000  0.5387250000000  0.4466380000000 1.0
C      1  0.4750680000000  0.4479620000000  0.4882820000000 1.0
C      1  0.4932100000000  0.4874960000000  0.5256770000000 1.0
C      1  0.4589910000000  0.4771800000000  0.4059480000000 1.0
C      1  0.5907170000000  0.5489630000000  0.4930930000000 1.0
C      1  0.4317550000000  0.4236340000000  0.5299630000000 1.0
C      1  0.5744770000000  0.5838210000000  0.4637710000000 1.0
C      1  0.4407120000000  0.4307810000000  0.4576000000000 1.0
C      1  0.5387750000000  0.5338500000000  0.4526290000000 1.0
C      1  0.5227050000000  0.4460850000000  0.4079920000000 1.0
C      1  0.5056830000000  0.4519810000000  0.5563860000000 1.0
C      1  0.6128790000000  0.4847770000000  0.5166320000000 1.0
C      1  0.4539090000000  0.5164360000000  0.5587090000000 1.0
C      1  0.4208000000000  0.5910790000000  0.4914650000000 1.0
C      1  0.5111490000000  0.5914210000000  0.5072640000000 1.0
C      1  0.4851720000000  0.5077600000000  0.4469530000000 1.0
C      1  0.5124220000000  0.5257490000000  0.5881910000000 1.0
C      1  0.4614820000000  0.3977010000000  0.4953230000000 1.0
C      1  0.5444810000000  0.4152660000000  0.5723080000000 1.0
C      1  0.5238860000000  0.4226040000000  0.4522330000000 1.0
C      1  0.4369180000000  0.5386350000000  0.5684140000000 1.0
C      1  0.4767000000000  0.3901560000000  0.5188710000000 1.0
C      1  0.5141480000000  0.5515780000000  0.4518810000000 1.0
C      1  0.4083740000000  0.5169140000000  0.4486640000000 1.0
C      1  0.4700370000000  0.4331560000000  0.4632980000000 1.0
C      1  0.5619520000000  0.5228950000000  0.5698390000000 1.0
C      1  0.5563790000000  0.4850900000000  0.5984040000000 1.0
C      1  0.4775550000000  0.6062840000000  0.5359100000000 1.0
C      1  0.6005150000000  0.5256160000000  0.5414320000000 1.0
C      1  0.4167260000000  0.5566370000000  0.5224110000000 1.0
C      1  0.4815550000000  0.5540920000000  0.4126980000000 1.0
C      1  0.4691910000000  0.5281790000000  0.4065160000000 1.0
C      1  0.5663570000000  0.4097670000000  0.4981960000000 1.0
C      1  0.4346390000000  0.5309430000000  0.4533280000000 1.0
C      1  0.5818520000000  0.5565060000000  0.4673680000000 1.0
C      1  0.3926020000000  0.4579860000000  0.4732180000000 1.0
C      1  0.4921000000000  0.3903570000000  0.5544680000000 1.0
C      1  0.4339550000000  0.4994460000000  0.5425090000000 1.0
C      1  0.4170070000000  0.4497160000000  0.5371600000000 1.0
C      1  0.5507340000000  0.5831180000000  0.4458020000000 1.0
C      1  0.4677010000000  0.5938390000000  0.4400390000000 1.0
C      1  0.5660510000000  0.4427970000000  0.4344170000000 1.0
C      1  0.5458120000000  0.3923700000000  0.5103830000000 1.0
C      1  0.5851500000000  0.5527520000000  0.5411000000000 1.0
C      1  0.3854460000000  0.5013620000000  0.4960030000000 1.0
C      1  0.5454550000000  0.4888330000000  0.4707530000000 1.0
C      1  0.5368960000000  0.5121460000000  0.4338690000000 1.0
C      1  0.5980550000000  0.5128430000000  0.4599710000000 1.0
C      1  0.5003620000000  0.4076230000000  0.5144370000000 1.0
C      1  0.4328340000000  0.4477940000000  0.4354870000000 1.0
END
