TITL C-950533-5798-1 -2.57708839267304e-06 125000 -647.427415095807 0 0 105 (C1) n - 1
REM
REM in /home/bkarasulu/work/CARBON/AIRSS/Generating-Clusters/EDIP-Nigel-Params/with-SteepDescent/Only-C1/SD-CG/HFTN-CG
REM
REM
REM
REM
REM
REM ./C.cell (11c1c37f851c82e70ff6c80c92926a4b)
REM
REM compiler GCC version 9.2.1 20190827 (Red Hat 9.2.1-1)
REM options -cpp -mtune=generic -march=x86-64 -g -O0 -fpre-include=/usr/include/finclude/math-vector-fortran.h
REM seed 938212339 1984155410 -315811639 412347565 -635427161 -1368191191 653712354 -411369004 1959822519 1602157017 577752920 -145208198 -1018692832 -1435223762 -679324790 -1951889638 772885174 -470627793 979206626 -1447740885 -2081059895 290174708 55590162 972050236 829781483 -1602096962 70896984 -620149606 233383039 1797423115 1657135514 -363529014 1268073207
REM
CELL 1.54180   50.00000   50.00000   50.00000   90.00000   90.00000   90.00000
LATT -1
SFAC C  
C      1  0.4865930000000  0.4446270000000  0.4375180000000 1.0
C      1  0.5440940000000  0.4751890000000  0.4830020000000 1.0
C      1  0.4922590000000  0.4925910000000  0.5657710000000 1.0
C      1  0.4989920000000  0.4794390000000  0.4617770000000 1.0
C      1  0.4457680000000  0.5811600000000  0.5217470000000 1.0
C      1  0.4578150000000  0.4206380000000  0.4722100000000 1.0
C      1  0.5610680000000  0.4728230000000  0.5508780000000 1.0
C      1  0.5766840000000  0.5257740000000  0.4653360000000 1.0
C      1  0.5658330000000  0.4180370000000  0.5019910000000 1.0
C      1  0.5398630000000  0.4653880000000  0.5132200000000 1.0
C      1  0.5351030000000  0.4354350000000  0.4523070000000 1.0
C      1  0.4742080000000  0.5276010000000  0.4067500000000 1.0
C      1  0.4139340000000  0.5286600000000  0.4918520000000 1.0
C      1  0.4900940000000  0.5838130000000  0.5248620000000 1.0
C      1  0.4267530000000  0.5508200000000  0.4825040000000 1.0
C      1  0.4241950000000  0.5026660000000  0.5004360000000 1.0
C      1  0.5216920000000  0.4581270000000  0.5791550000000 1.0
C      1  0.5076880000000  0.4115820000000  0.4850210000000 1.0
C      1  0.4713610000000  0.5111740000000  0.5771590000000 1.0
C      1  0.4141020000000  0.4736390000000  0.4965240000000 1.0
C      1  0.4885250000000  0.5543850000000  0.5170400000000 1.0
C      1  0.4436940000000  0.4626350000000  0.4267340000000 1.0
C      1  0.5219060000000  0.5094090000000  0.5014780000000 1.0
C      1  0.5022430000000  0.4923570000000  0.5366070000000 1.0
C      1  0.4685560000000  0.5218030000000  0.4945000000000 1.0
C      1  0.4499710000000  0.5856470000000  0.5496630000000 1.0
C      1  0.5027900000000  0.5497110000000  0.4890930000000 1.0
C      1  0.4923440000000  0.4219620000000  0.5257010000000 1.0
C      1  0.5196990000000  0.5866420000000  0.5228650000000 1.0
C      1  0.4371550000000  0.5029730000000  0.5284500000000 1.0
C      1  0.5508780000000  0.5767990000000  0.4840480000000 1.0
C      1  0.4782100000000  0.5827190000000  0.5522520000000 1.0
C      1  0.5790100000000  0.4632960000000  0.5318810000000 1.0
C      1  0.4336760000000  0.4347770000000  0.4715330000000 1.0
C      1  0.5835560000000  0.4902190000000  0.4948020000000 1.0
C      1  0.5154270000000  0.4491160000000  0.4356870000000 1.0
C      1  0.5578750000000  0.5009180000000  0.5579980000000 1.0
C      1  0.5216180000000  0.5338540000000  0.4170690000000 1.0
C      1  0.4727240000000  0.5404660000000  0.5815980000000 1.0
C      1  0.4499530000000  0.5018790000000  0.4559740000000 1.0
C      1  0.5454960000000  0.4520750000000  0.5632300000000 1.0
C      1  0.4747840000000  0.4211520000000  0.4485120000000 1.0
C      1  0.5287470000000  0.5364410000000  0.4935000000000 1.0
C      1  0.5096430000000  0.4671300000000  0.5203860000000 1.0
C      1  0.5153760000000  0.4866320000000  0.5844880000000 1.0
C      1  0.4515680000000  0.5583410000000  0.4707550000000 1.0
C      1  0.5837700000000  0.5146980000000  0.5118830000000 1.0
C      1  0.4281810000000  0.4489170000000  0.5446750000000 1.0
C      1  0.5448130000000  0.4911950000000  0.4313720000000 1.0
C      1  0.4645210000000  0.4766180000000  0.4998860000000 1.0
C      1  0.4762110000000  0.5469100000000  0.4271810000000 1.0
C      1  0.4729580000000  0.4212380000000  0.5505270000000 1.0
C      1  0.4410760000000  0.5385050000000  0.5603270000000 1.0
C      1  0.5202140000000  0.4764690000000  0.4293890000000 1.0
C      1  0.4900290000000  0.4637500000000  0.4908470000000 1.0
C      1  0.4907800000000  0.4421970000000  0.5649570000000 1.0
C      1  0.4854230000000  0.5299120000000  0.4707360000000 1.0
C      1  0.5549500000000  0.5374720000000  0.4501420000000 1.0
C      1  0.5831670000000  0.4633040000000  0.5044790000000 1.0
C      1  0.4807460000000  0.5023520000000  0.4493320000000 1.0
C      1  0.5794470000000  0.4966760000000  0.4672880000000 1.0
C      1  0.4169860000000  0.4573170000000  0.5198810000000 1.0
C      1  0.4676840000000  0.5940560000000  0.5049170000000 1.0
C      1  0.5272480000000  0.4123380000000  0.4652310000000 1.0
C      1  0.4847880000000  0.4317830000000  0.4845280000000 1.0
C      1  0.5442600000000  0.4282570000000  0.5469540000000 1.0
C      1  0.5558870000000  0.5519080000000  0.5306990000000 1.0
C      1  0.5427100000000  0.4263770000000  0.5171710000000 1.0
C      1  0.4248540000000  0.4613380000000  0.4714940000000 1.0
C      1  0.5372840000000  0.5073380000000  0.5777850000000 1.0
C      1  0.5036290000000  0.5768380000000  0.4755700000000 1.0
C      1  0.5256260000000  0.5903700000000  0.4933080000000 1.0
C      1  0.4340810000000  0.4774090000000  0.4483970000000 1.0
C      1  0.5452900000000  0.5657240000000  0.4556170000000 1.0
C      1  0.5609960000000  0.4483590000000  0.4598830000000 1.0
C      1  0.5465100000000  0.4974540000000  0.5170100000000 1.0
C      1  0.5436130000000  0.5210830000000  0.4290540000000 1.0
C      1  0.4383930000000  0.4936370000000  0.5740310000000 1.0
C      1  0.4896830000000  0.5591040000000  0.5662320000000 1.0
C      1  0.5654380000000  0.4781460000000  0.4489820000000 1.0
C      1  0.4600190000000  0.4842410000000  0.5278670000000 1.0
C      1  0.5184590000000  0.5552240000000  0.5642070000000 1.0
C      1  0.5295210000000  0.5341530000000  0.5783150000000 1.0
C      1  0.5169450000000  0.4105530000000  0.5119550000000 1.0
C      1  0.4281840000000  0.5131100000000  0.5553050000000 1.0
C      1  0.5793940000000  0.5367180000000  0.4922870000000 1.0
C      1  0.5314940000000  0.5645680000000  0.5397990000000 1.0
C      1  0.5723440000000  0.4416430000000  0.4879460000000 1.0
C      1  0.5672920000000  0.5233110000000  0.5377500000000 1.0
C      1  0.4712380000000  0.5810530000000  0.4782740000000 1.0
C      1  0.4556690000000  0.5525420000000  0.5143560000000 1.0
C      1  0.4697910000000  0.4581990000000  0.4184710000000 1.0
C      1  0.4562010000000  0.5399740000000  0.4478310000000 1.0
C      1  0.5043390000000  0.5476130000000  0.4346970000000 1.0
C      1  0.4327940000000  0.4678930000000  0.5647670000000 1.0
C      1  0.4614780000000  0.5379030000000  0.5396540000000 1.0
C      1  0.4841130000000  0.5041870000000  0.4191590000000 1.0
C      1  0.4813440000000  0.4800050000000  0.4056750000000 1.0
C      1  0.4461750000000  0.4276710000000  0.5459090000000 1.0
C      1  0.5161090000000  0.5699230000000  0.4492100000000 1.0
C      1  0.5090510000000  0.4435780000000  0.5399660000000 1.0
C      1  0.4509890000000  0.4999860000000  0.4858820000000 1.0
C      1  0.5210610000000  0.4923940000000  0.4768770000000 1.0
C      1  0.4866980000000  0.5105940000000  0.5177050000000 1.0
C      1  0.5545290000000  0.5513980000000  0.5005050000000 1.0
END
