TITL C-950532-2784-715 -3.13162686729089e-06 125000 -1167.84224536737 0 0 188 (C1) n - 1
REM
REM in /home/bkarasulu/work/CARBON/AIRSS/Generating-Clusters/EDIP-Nigel-Params/with-SteepDescent/Only-C1/SD-CG/HFTN-CG
REM
REM
REM
REM
REM
REM ./C.cell (11c1c37f851c82e70ff6c80c92926a4b)
REM
REM compiler GCC version 9.2.1 20190827 (Red Hat 9.2.1-1)
REM options -cpp -mtune=generic -march=x86-64 -g -O0 -fpre-include=/usr/include/finclude/math-vector-fortran.h
REM seed 1247966287 -1846285926 -759860644 -193288718 -267576901 2015682937 -1124053185 -1408645029 -185340066 -645674003 121805286 -1267051975 754133199 126945946 1548316070 95294933 -1360939554 1756841438 831384231 829830068 1824836673 -1104657515 -1623720962 -1097603579 -39156337 -769607023 -1044903403 850521372 -681596297 2102075019 -311483985 1653076715 -85903051
REM
CELL 1.54180   50.00000   50.00000   50.00000   90.00000   90.00000   90.00000
LATT -1
SFAC C  
C      1  0.5788290000000  0.5715570000000  0.5033140000000 1.0
C      1  0.4918800000000  0.5496510000000  0.5354860000000 1.0
C      1  0.5288690000000  0.4870980000000  0.5950130000000 1.0
C      1  0.4506020000000  0.5715920000000  0.4412840000000 1.0
C      1  0.5800270000000  0.4468740000000  0.5578280000000 1.0
C      1  0.4738690000000  0.5767300000000  0.5841000000000 1.0
C      1  0.5260010000000  0.3872520000000  0.5097720000000 1.0
C      1  0.4313600000000  0.4383400000000  0.5165460000000 1.0
C      1  0.5502020000000  0.5713590000000  0.4267710000000 1.0
C      1  0.5021990000000  0.4915080000000  0.6109850000000 1.0
C      1  0.3830170000000  0.4799260000000  0.4620840000000 1.0
C      1  0.5048700000000  0.5806350000000  0.5857930000000 1.0
C      1  0.5148270000000  0.5927030000000  0.4863860000000 1.0
C      1  0.4961220000000  0.4858900000000  0.4767650000000 1.0
C      1  0.5125480000000  0.3978670000000  0.4851080000000 1.0
C      1  0.5296890000000  0.6010230000000  0.4606440000000 1.0
C      1  0.4419990000000  0.3911540000000  0.5034010000000 1.0
C      1  0.5111450000000  0.4040140000000  0.4347880000000 1.0
C      1  0.4583580000000  0.4497940000000  0.5040500000000 1.0
C      1  0.4832780000000  0.4049020000000  0.4909770000000 1.0
C      1  0.5064650000000  0.4814630000000  0.4036840000000 1.0
C      1  0.5498900000000  0.4321510000000  0.4597370000000 1.0
C      1  0.4682040000000  0.5999030000000  0.5068420000000 1.0
C      1  0.4362250000000  0.5487510000000  0.4490030000000 1.0
C      1  0.5732730000000  0.5108240000000  0.5249770000000 1.0
C      1  0.5038410000000  0.3842470000000  0.5299900000000 1.0
C      1  0.5452630000000  0.5632060000000  0.4760930000000 1.0
C      1  0.4828050000000  0.6044960000000  0.4584990000000 1.0
C      1  0.5032450000000  0.4900040000000  0.4333330000000 1.0
C      1  0.5560590000000  0.4515350000000  0.4179750000000 1.0
C      1  0.4332700000000  0.5246990000000  0.4301650000000 1.0
C      1  0.5577560000000  0.4327050000000  0.5698510000000 1.0
C      1  0.6052400000000  0.4805720000000  0.5144460000000 1.0
C      1  0.5089820000000  0.5589480000000  0.4018030000000 1.0
C      1  0.5194650000000  0.4358660000000  0.5462200000000 1.0
C      1  0.4411190000000  0.4199130000000  0.5457600000000 1.0
C      1  0.5926770000000  0.4416890000000  0.4839930000000 1.0
C      1  0.4925960000000  0.4987440000000  0.5283960000000 1.0
C      1  0.4578880000000  0.3899130000000  0.4518340000000 1.0
C      1  0.5487190000000  0.4426800000000  0.4896640000000 1.0
C      1  0.4273660000000  0.4756520000000  0.5936750000000 1.0
C      1  0.4737840000000  0.4357020000000  0.4806220000000 1.0
C      1  0.4585180000000  0.5242700000000  0.4857890000000 1.0
C      1  0.3881610000000  0.4689300000000  0.5070030000000 1.0
C      1  0.5503340000000  0.5042790000000  0.5413800000000 1.0
C      1  0.5901720000000  0.5536580000000  0.5465280000000 1.0
C      1  0.6054150000000  0.5287870000000  0.4962110000000 1.0
C      1  0.4533150000000  0.4297170000000  0.5721820000000 1.0
C      1  0.4684020000000  0.5344860000000  0.5728920000000 1.0
C      1  0.4525190000000  0.4769220000000  0.4961620000000 1.0
C      1  0.4185740000000  0.4158100000000  0.4679570000000 1.0
C      1  0.4898200000000  0.6102300000000  0.4880850000000 1.0
C      1  0.5608130000000  0.5430800000000  0.4266600000000 1.0
C      1  0.5778390000000  0.4446700000000  0.4365590000000 1.0
C      1  0.4603240000000  0.4789540000000  0.3893300000000 1.0
C      1  0.4522570000000  0.4990070000000  0.4418720000000 1.0
C      1  0.4186990000000  0.5538020000000  0.4714640000000 1.0
C      1  0.4779800000000  0.5189420000000  0.3998800000000 1.0
C      1  0.4136560000000  0.5146080000000  0.5347540000000 1.0
C      1  0.4958840000000  0.5586080000000  0.4888090000000 1.0
C      1  0.5002220000000  0.4515100000000  0.4738260000000 1.0
C      1  0.5975330000000  0.4849800000000  0.4616520000000 1.0
C      1  0.4272350000000  0.5309120000000  0.5559910000000 1.0
C      1  0.5973570000000  0.5437020000000  0.4720550000000 1.0
C      1  0.5286480000000  0.5231330000000  0.4753550000000 1.0
C      1  0.4385510000000  0.5045740000000  0.5996340000000 1.0
C      1  0.5363340000000  0.4535320000000  0.5617040000000 1.0
C      1  0.3955720000000  0.5276090000000  0.5171950000000 1.0
C      1  0.5214810000000  0.4607800000000  0.5856250000000 1.0
C      1  0.4598280000000  0.4388170000000  0.4526350000000 1.0
C      1  0.5141630000000  0.6057520000000  0.5780690000000 1.0
C      1  0.4525980000000  0.5451730000000  0.5067220000000 1.0
C      1  0.4614000000000  0.5847530000000  0.4643970000000 1.0
C      1  0.5857240000000  0.5815800000000  0.5457940000000 1.0
C      1  0.4080470000000  0.4872800000000  0.5730310000000 1.0
C      1  0.4952620000000  0.4477320000000  0.5904650000000 1.0
C      1  0.4070650000000  0.4643800000000  0.4735310000000 1.0
C      1  0.5211260000000  0.6160690000000  0.5534060000000 1.0
C      1  0.5319700000000  0.5311270000000  0.4265520000000 1.0
C      1  0.5177220000000  0.4401870000000  0.4960560000000 1.0
C      1  0.5249230000000  0.3956880000000  0.4588470000000 1.0
C      1  0.4772820000000  0.4512430000000  0.5260490000000 1.0
C      1  0.4493160000000  0.4572870000000  0.5849510000000 1.0
C      1  0.4611630000000  0.5591730000000  0.3977520000000 1.0
C      1  0.4819430000000  0.4021500000000  0.5211660000000 1.0
C      1  0.5154520000000  0.4782150000000  0.5221970000000 1.0
C      1  0.4890870000000  0.5375710000000  0.4456030000000 1.0
C      1  0.5397100000000  0.4772090000000  0.5395540000000 1.0
C      1  0.5782410000000  0.4767730000000  0.5616590000000 1.0
C      1  0.5142240000000  0.5194920000000  0.5684780000000 1.0
C      1  0.4764070000000  0.5624380000000  0.5119960000000 1.0
C      1  0.5538390000000  0.5586810000000  0.5851760000000 1.0
C      1  0.4732870000000  0.4944810000000  0.5857240000000 1.0
C      1  0.5957950000000  0.4537600000000  0.5101470000000 1.0
C      1  0.5554240000000  0.4801630000000  0.4113490000000 1.0
C      1  0.5067700000000  0.4496190000000  0.5224910000000 1.0
C      1  0.4249980000000  0.4143680000000  0.4969880000000 1.0
C      1  0.5692450000000  0.4999940000000  0.4951530000000 1.0
C      1  0.5620980000000  0.5947930000000  0.5094490000000 1.0
C      1  0.3942090000000  0.5551850000000  0.5211560000000 1.0
C      1  0.5208030000000  0.5740020000000  0.4226660000000 1.0
C      1  0.5419820000000  0.4751490000000  0.4530440000000 1.0
C      1  0.5163200000000  0.5349080000000  0.6041240000000 1.0
C      1  0.4608220000000  0.5788150000000  0.5558940000000 1.0
C      1  0.5057890000000  0.4511810000000  0.4022940000000 1.0
C      1  0.4171430000000  0.5706100000000  0.5241840000000 1.0
C      1  0.5659380000000  0.5219900000000  0.5872020000000 1.0
C      1  0.5627070000000  0.5465100000000  0.5121540000000 1.0
C      1  0.4822840000000  0.5064460000000  0.4468840000000 1.0
C      1  0.5410970000000  0.5182640000000  0.3913730000000 1.0
C      1  0.5862880000000  0.4579980000000  0.4609280000000 1.0
C      1  0.5546620000000  0.5843440000000  0.4535340000000 1.0
C      1  0.5253700000000  0.5596740000000  0.5933390000000 1.0
C      1  0.5486750000000  0.6157150000000  0.5491740000000 1.0
C      1  0.5355640000000  0.5804140000000  0.5074310000000 1.0
C      1  0.5066960000000  0.5256080000000  0.5232570000000 1.0
C      1  0.5998500000000  0.4980750000000  0.4898930000000 1.0
C      1  0.5978140000000  0.5304500000000  0.4474690000000 1.0
C      1  0.4825160000000  0.3941570000000  0.4349950000000 1.0
C      1  0.5357140000000  0.4102090000000  0.5510450000000 1.0
C      1  0.5513420000000  0.4028660000000  0.4575060000000 1.0
C      1  0.5260860000000  0.4368270000000  0.4196640000000 1.0
C      1  0.3778450000000  0.4917670000000  0.4896770000000 1.0
C      1  0.5413670000000  0.5544190000000  0.5360980000000 1.0
C      1  0.4489860000000  0.4889810000000  0.5491830000000 1.0
C      1  0.4538630000000  0.5180320000000  0.5531070000000 1.0
C      1  0.4929660000000  0.4993480000000  0.5611890000000 1.0
C      1  0.5708750000000  0.4157900000000  0.5164180000000 1.0
C      1  0.4940360000000  0.3997370000000  0.5740730000000 1.0
C      1  0.4669660000000  0.4676780000000  0.5457830000000 1.0
C      1  0.4544430000000  0.3971620000000  0.5305990000000 1.0
C      1  0.4193760000000  0.4858880000000  0.5440560000000 1.0
C      1  0.5705460000000  0.5424060000000  0.5667930000000 1.0
C      1  0.5245760000000  0.4483800000000  0.4491290000000 1.0
C      1  0.5142820000000  0.5699050000000  0.5437920000000 1.0
C      1  0.4413930000000  0.4147600000000  0.4492780000000 1.0
C      1  0.4316480000000  0.5113160000000  0.4723660000000 1.0
C      1  0.5191470000000  0.5414620000000  0.4523330000000 1.0
C      1  0.5782800000000  0.4174690000000  0.4893680000000 1.0
C      1  0.5079530000000  0.5942320000000  0.4424040000000 1.0
C      1  0.4114480000000  0.4628750000000  0.5238030000000 1.0
C      1  0.4753320000000  0.5982150000000  0.5370220000000 1.0
C      1  0.4333910000000  0.5651220000000  0.5492710000000 1.0
C      1  0.4752570000000  0.5483880000000  0.4691470000000 1.0
C      1  0.4328330000000  0.4808850000000  0.4757490000000 1.0
C      1  0.4946230000000  0.5197700000000  0.6148620000000 1.0
C      1  0.4457050000000  0.5895460000000  0.4895300000000 1.0
C      1  0.4662890000000  0.5289110000000  0.6115170000000 1.0
C      1  0.4880050000000  0.5453750000000  0.3884700000000 1.0
C      1  0.4821860000000  0.4248250000000  0.5767430000000 1.0
C      1  0.4837440000000  0.4937670000000  0.3880620000000 1.0
C      1  0.5574580000000  0.4941950000000  0.5837030000000 1.0
C      1  0.4717390000000  0.5643380000000  0.4245200000000 1.0
C      1  0.4851600000000  0.4320810000000  0.4368660000000 1.0
C      1  0.5342020000000  0.4905590000000  0.3946190000000 1.0
C      1  0.5305690000000  0.5255140000000  0.5423930000000 1.0
C      1  0.4635700000000  0.3845590000000  0.4814680000000 1.0
C      1  0.5113760000000  0.5347090000000  0.4957740000000 1.0
C      1  0.5933600000000  0.4930190000000  0.5395250000000 1.0
C      1  0.4619450000000  0.5575090000000  0.6035570000000 1.0
C      1  0.5062600000000  0.5978690000000  0.5350750000000 1.0
C      1  0.4486860000000  0.5302750000000  0.4021710000000 1.0
C      1  0.4952560000000  0.5431990000000  0.5658560000000 1.0
C      1  0.3968130000000  0.5151010000000  0.4906190000000 1.0
C      1  0.6038910000000  0.5407540000000  0.5235110000000 1.0
C      1  0.5696430000000  0.6027740000000  0.5360450000000 1.0
C      1  0.5679160000000  0.5252010000000  0.4025890000000 1.0
C      1  0.3890990000000  0.4969230000000  0.4409030000000 1.0
C      1  0.4056060000000  0.4388950000000  0.4621550000000 1.0
C      1  0.5837600000000  0.5693560000000  0.4746790000000 1.0
C      1  0.4167610000000  0.5169790000000  0.5816120000000 1.0
C      1  0.4029890000000  0.5207060000000  0.4402310000000 1.0
C      1  0.4573880000000  0.4599350000000  0.4096370000000 1.0
C      1  0.5465700000000  0.4026830000000  0.5249580000000 1.0
C      1  0.3975530000000  0.5341380000000  0.4668770000000 1.0
C      1  0.4797330000000  0.4408350000000  0.4097600000000 1.0
C      1  0.4318460000000  0.5647540000000  0.4982710000000 1.0
C      1  0.5583590000000  0.5270640000000  0.4852000000000 1.0
C      1  0.4498260000000  0.4672070000000  0.4374800000000 1.0
C      1  0.4744860000000  0.4660460000000  0.5999060000000 1.0
C      1  0.5905080000000  0.5043370000000  0.4410880000000 1.0
C      1  0.5141280000000  0.3897300000000  0.5575180000000 1.0
C      1  0.5779100000000  0.4993170000000  0.4145430000000 1.0
C      1  0.5284500000000  0.5002630000000  0.4436720000000 1.0
C      1  0.5217140000000  0.4843640000000  0.4942410000000 1.0
C      1  0.5477480000000  0.4747430000000  0.4832420000000 1.0
C      1  0.4743000000000  0.4970570000000  0.4969860000000 1.0
C      1  0.5828410000000  0.4382250000000  0.5301220000000 1.0
END
