TITL C-950526-5686-151 -1.06903871349513e-06 125000 -128.556124275253 0 0 23 (C1) n - 1
REM
REM in /home/bkarasulu/work/CARBON/AIRSS/Generating-Clusters/EDIP-Nigel-Params/with-SteepDescent/Only-C1/SD-CG/HFTN-CG
REM
REM
REM
REM
REM
REM ./C.cell (11c1c37f851c82e70ff6c80c92926a4b)
REM
REM compiler GCC version 9.2.1 20190827 (Red Hat 9.2.1-1)
REM options -cpp -mtune=generic -march=x86-64 -g -O0 -fpre-include=/usr/include/finclude/math-vector-fortran.h
REM seed -1541410732 -1258951239 897612334 809771001 -2083578017 1087328160 -194769583 -1958239343 1027568009 1856475897 1568563363 202094316 -402221065 -792828205 -826092279 84794416 792154943 1938138889 1968474608 1755939566 1642654612 1287397207 748257427 884787810 406209331 877167791 -529208041 170326968 -1891806763 275389875 1568790222 1171421103 920699490
REM
CELL 1.54180   50.00000   50.00000   50.00000   90.00000   90.00000   90.00000
LATT -1
SFAC C  
C      1  0.5544440000000  0.5137330000000  0.5223660000000 1.0
C      1  0.4797730000000  0.5127150000000  0.4623130000000 1.0
C      1  0.5267380000000  0.4672750000000  0.5195630000000 1.0
C      1  0.4538700000000  0.5650080000000  0.5003580000000 1.0
C      1  0.4718450000000  0.4671480000000  0.4852760000000 1.0
C      1  0.4999020000000  0.4597680000000  0.5266480000000 1.0
C      1  0.5146090000000  0.4770510000000  0.4695830000000 1.0
C      1  0.4946290000000  0.4785520000000  0.5480950000000 1.0
C      1  0.4957450000000  0.5493500000000  0.4812890000000 1.0
C      1  0.4728270000000  0.4873880000000  0.5310710000000 1.0
C      1  0.4890140000000  0.4890350000000  0.4764180000000 1.0
C      1  0.5357740000000  0.4773440000000  0.4924770000000 1.0
C      1  0.5158280000000  0.5497270000000  0.5007810000000 1.0
C      1  0.5002470000000  0.5321250000000  0.4589860000000 1.0
C      1  0.4566280000000  0.5256770000000  0.4728570000000 1.0
C      1  0.5289240000000  0.5169260000000  0.5372010000000 1.0
C      1  0.4610000000000  0.4727160000000  0.5105410000000 1.0
C      1  0.5124430000000  0.4497340000000  0.4773680000000 1.0
C      1  0.4681700000000  0.5453500000000  0.4897770000000 1.0
C      1  0.5424000000000  0.5069500000000  0.4961710000000 1.0
C      1  0.5178690000000  0.5221180000000  0.5084550000000 1.0
C      1  0.5211330000000  0.4915870000000  0.5487630000000 1.0
C      1  0.4861900000000  0.4427250000000  0.4836420000000 1.0
END
