TITL C-950531-5884-271 -3.46648562066609e-06 125000 -868.713453068067 0 0 140 (C1) n - 1
REM
REM in /home/bkarasulu/work/CARBON/AIRSS/Generating-Clusters/EDIP-Nigel-Params/with-SteepDescent/Only-C1/SD-CG/HFTN-CG
REM
REM
REM
REM
REM
REM ./C.cell (11c1c37f851c82e70ff6c80c92926a4b)
REM
REM compiler GCC version 9.2.1 20190827 (Red Hat 9.2.1-1)
REM options -cpp -mtune=generic -march=x86-64 -g -O0 -fpre-include=/usr/include/finclude/math-vector-fortran.h
REM seed 1612550331 1185894172 -217525813 2007524261 -166902621 466838246 1586838636 1177941284 1679718433 -52366098 730882586 459090594 -1723231028 -204511843 -1860799673 3100791 -940557907 1795314062 1219676143 -1469501038 1813372907 828497239 617908307 -1566066423 639752667 1273574984 767502413 1884583053 -1649131396 -1908574011 -904196694 1487376632 702616028
REM
CELL 1.54180   50.00000   50.00000   50.00000   90.00000   90.00000   90.00000
LATT -1
SFAC C  
C      1  0.4565680000000  0.5305700000000  0.5320590000000 1.0
C      1  0.4602780000000  0.5279850000000  0.4156230000000 1.0
C      1  0.4876780000000  0.5841030000000  0.4686520000000 1.0
C      1  0.5084030000000  0.6023740000000  0.5034840000000 1.0
C      1  0.5267730000000  0.4480690000000  0.5638730000000 1.0
C      1  0.5309990000000  0.5444210000000  0.4153990000000 1.0
C      1  0.4053630000000  0.5278070000000  0.5269190000000 1.0
C      1  0.5223220000000  0.4695010000000  0.4612080000000 1.0
C      1  0.4310520000000  0.4896730000000  0.5531200000000 1.0
C      1  0.4454720000000  0.5331020000000  0.5021550000000 1.0
C      1  0.5094690000000  0.4756580000000  0.4871560000000 1.0
C      1  0.3991170000000  0.4662500000000  0.5221030000000 1.0
C      1  0.4264260000000  0.5555660000000  0.4598630000000 1.0
C      1  0.4480730000000  0.5354500000000  0.4627500000000 1.0
C      1  0.5664730000000  0.5052470000000  0.4875600000000 1.0
C      1  0.5752670000000  0.5492980000000  0.4356820000000 1.0
C      1  0.5226630000000  0.4211120000000  0.4938230000000 1.0
C      1  0.4139990000000  0.4733680000000  0.4663060000000 1.0
C      1  0.5229200000000  0.4184440000000  0.5597750000000 1.0
C      1  0.4815380000000  0.5160400000000  0.5416680000000 1.0
C      1  0.4461180000000  0.4933330000000  0.5268360000000 1.0
C      1  0.5019290000000  0.4495720000000  0.4510940000000 1.0
C      1  0.4198790000000  0.5195930000000  0.5529370000000 1.0
C      1  0.4464610000000  0.5033760000000  0.4224570000000 1.0
C      1  0.4062250000000  0.5479420000000  0.4810680000000 1.0
C      1  0.5180670000000  0.4032070000000  0.5185200000000 1.0
C      1  0.5574780000000  0.5523870000000  0.5663370000000 1.0
C      1  0.4553410000000  0.4846440000000  0.5730130000000 1.0
C      1  0.5326670000000  0.5878060000000  0.5034120000000 1.0
C      1  0.5458610000000  0.5421190000000  0.4765430000000 1.0
C      1  0.4774250000000  0.4704600000000  0.4509990000000 1.0
C      1  0.4793020000000  0.5017570000000  0.4914420000000 1.0
C      1  0.5644940000000  0.4316940000000  0.5012790000000 1.0
C      1  0.4983150000000  0.5371750000000  0.4589080000000 1.0
C      1  0.5485020000000  0.5372320000000  0.5256900000000 1.0
C      1  0.4992330000000  0.4199520000000  0.5389590000000 1.0
C      1  0.5004510000000  0.4479880000000  0.5250620000000 1.0
C      1  0.4820310000000  0.5707980000000  0.5676420000000 1.0
C      1  0.4820790000000  0.5262970000000  0.5905340000000 1.0
C      1  0.5548600000000  0.4588990000000  0.5696280000000 1.0
C      1  0.4721250000000  0.4062420000000  0.4867050000000 1.0
C      1  0.5020820000000  0.4456530000000  0.4956780000000 1.0
C      1  0.5664400000000  0.4813760000000  0.4462780000000 1.0
C      1  0.4860420000000  0.5257930000000  0.4016740000000 1.0
C      1  0.5237630000000  0.5031670000000  0.4954530000000 1.0
C      1  0.5173790000000  0.5021130000000  0.6018760000000 1.0
C      1  0.5157250000000  0.4101590000000  0.4650020000000 1.0
C      1  0.5112570000000  0.4451340000000  0.4227930000000 1.0
C      1  0.5446280000000  0.4755370000000  0.5128090000000 1.0
C      1  0.4659140000000  0.5882970000000  0.4474910000000 1.0
C      1  0.5525560000000  0.4746420000000  0.4191810000000 1.0
C      1  0.5959300000000  0.5272170000000  0.5175720000000 1.0
C      1  0.5678620000000  0.5709480000000  0.5239950000000 1.0
C      1  0.4660500000000  0.5682310000000  0.4869960000000 1.0
C      1  0.5678340000000  0.5077080000000  0.4598140000000 1.0
C      1  0.4332580000000  0.4242110000000  0.5159920000000 1.0
C      1  0.5894280000000  0.4724160000000  0.5357350000000 1.0
C      1  0.5733000000000  0.5722500000000  0.4949740000000 1.0
C      1  0.4433780000000  0.5791400000000  0.4671630000000 1.0
C      1  0.4738460000000  0.4139140000000  0.5518580000000 1.0
C      1  0.5192310000000  0.4950410000000  0.4449700000000 1.0
C      1  0.5517200000000  0.4606180000000  0.4627010000000 1.0
C      1  0.4991210000000  0.5881020000000  0.5498950000000 1.0
C      1  0.4905880000000  0.4073250000000  0.4465970000000 1.0
C      1  0.5385210000000  0.5665990000000  0.4597150000000 1.0
C      1  0.5097000000000  0.5304710000000  0.5044510000000 1.0
C      1  0.4573850000000  0.4354670000000  0.5590950000000 1.0
C      1  0.5649080000000  0.4890700000000  0.5315300000000 1.0
C      1  0.5580570000000  0.4090170000000  0.4840920000000 1.0
C      1  0.4476880000000  0.5723360000000  0.5324300000000 1.0
C      1  0.5996670000000  0.5192670000000  0.5462180000000 1.0
C      1  0.4591320000000  0.4581640000000  0.4303540000000 1.0
C      1  0.3968380000000  0.5183100000000  0.4792250000000 1.0
C      1  0.4764250000000  0.4341840000000  0.4769750000000 1.0
C      1  0.4469450000000  0.4445460000000  0.4734380000000 1.0
C      1  0.5496650000000  0.5602280000000  0.4324820000000 1.0
C      1  0.5335880000000  0.5440380000000  0.5825180000000 1.0
C      1  0.5745500000000  0.4485310000000  0.5493170000000 1.0
C      1  0.5530590000000  0.4876150000000  0.5606230000000 1.0
C      1  0.4976020000000  0.6093350000000  0.4787360000000 1.0
C      1  0.4905720000000  0.4962760000000  0.4102040000000 1.0
C      1  0.4909270000000  0.4951730000000  0.4398990000000 1.0
C      1  0.4705500000000  0.3926700000000  0.4621170000000 1.0
C      1  0.5416240000000  0.5191020000000  0.5968800000000 1.0
C      1  0.4399380000000  0.5071180000000  0.4533980000000 1.0
C      1  0.4562060000000  0.4659210000000  0.5216500000000 1.0
C      1  0.5300990000000  0.4944120000000  0.4159160000000 1.0
C      1  0.5449150000000  0.4104540000000  0.4576970000000 1.0
C      1  0.5016750000000  0.4605810000000  0.5785590000000 1.0
C      1  0.4527580000000  0.5648560000000  0.5588610000000 1.0
C      1  0.4945800000000  0.4246730000000  0.4123220000000 1.0
C      1  0.4250870000000  0.4389080000000  0.4920790000000 1.0
C      1  0.4643620000000  0.5825930000000  0.5128720000000 1.0
C      1  0.5837910000000  0.5450240000000  0.4853580000000 1.0
C      1  0.4790530000000  0.5039150000000  0.5705250000000 1.0
C      1  0.5402920000000  0.5195230000000  0.4074020000000 1.0
C      1  0.5641520000000  0.5074340000000  0.5801270000000 1.0
C      1  0.5015830000000  0.5366040000000  0.5469930000000 1.0
C      1  0.4397370000000  0.4459030000000  0.5364990000000 1.0
C      1  0.4693590000000  0.4302740000000  0.4237900000000 1.0
C      1  0.5585140000000  0.4312340000000  0.5300630000000 1.0
C      1  0.4349740000000  0.4572440000000  0.4498870000000 1.0
C      1  0.5418890000000  0.4080690000000  0.5385290000000 1.0
C      1  0.4055150000000  0.5059190000000  0.5051930000000 1.0
C      1  0.4358680000000  0.5038450000000  0.5007080000000 1.0
C      1  0.5257480000000  0.4603840000000  0.5345740000000 1.0
C      1  0.5685470000000  0.5154520000000  0.5148770000000 1.0
C      1  0.4695220000000  0.5417010000000  0.4410230000000 1.0
C      1  0.4983810000000  0.5464850000000  0.5748380000000 1.0
C      1  0.5524220000000  0.5744470000000  0.5484510000000 1.0
C      1  0.4082680000000  0.4628160000000  0.4951420000000 1.0
C      1  0.4734630000000  0.5683170000000  0.4279830000000 1.0
C      1  0.5324460000000  0.5495280000000  0.5030250000000 1.0
C      1  0.5282690000000  0.5257660000000  0.5484560000000 1.0
C      1  0.5022500000000  0.5488990000000  0.4117440000000 1.0
C      1  0.4962860000000  0.5173130000000  0.6130730000000 1.0
C      1  0.4526320000000  0.4056410000000  0.5070160000000 1.0
C      1  0.5274910000000  0.5876610000000  0.5524290000000 1.0
C      1  0.5250230000000  0.4948800000000  0.5532030000000 1.0
C      1  0.5062360000000  0.4898020000000  0.5765460000000 1.0
C      1  0.5415050000000  0.4454550000000  0.4198280000000 1.0
C      1  0.5251810000000  0.5190380000000  0.4642300000000 1.0
C      1  0.4617730000000  0.4807370000000  0.4100200000000 1.0
C      1  0.4100820000000  0.5017720000000  0.4576640000000 1.0
C      1  0.4196990000000  0.5479920000000  0.5084900000000 1.0
C      1  0.5756610000000  0.5284200000000  0.5626930000000 1.0
C      1  0.5547880000000  0.4359260000000  0.4454830000000 1.0
C      1  0.4895420000000  0.4951800000000  0.5214740000000 1.0
C      1  0.6059950000000  0.4913570000000  0.5492000000000 1.0
C      1  0.5590600000000  0.4583310000000  0.4917250000000 1.0
C      1  0.4709270000000  0.4583820000000  0.5729040000000 1.0
C      1  0.5504830000000  0.5858560000000  0.4806530000000 1.0
C      1  0.4854610000000  0.5336220000000  0.4862500000000 1.0
C      1  0.4822600000000  0.4686920000000  0.5314210000000 1.0
C      1  0.4899840000000  0.5912690000000  0.5225850000000 1.0
C      1  0.5834260000000  0.5325150000000  0.4566630000000 1.0
C      1  0.4386210000000  0.5396270000000  0.5651210000000 1.0
C      1  0.5085490000000  0.5650980000000  0.4585260000000 1.0
C      1  0.4157710000000  0.4636380000000  0.5449880000000 1.0
C      1  0.4554740000000  0.4875940000000  0.4742350000000 1.0
END
