TITL C-951334-9093-23 4.37760955097925e-08 125000 -1256.67689873386 0 0 197 (C1) n - 1
REM
REM in /home/bkarasulu/work/CARBON/AIRSS/Generating-Clusters/EDIP-Nigel-Params/with-SteepDescent/Only-C1/SD-CG/HFTN-CG
REM
REM
REM
REM
REM
REM ./C.cell (11c1c37f851c82e70ff6c80c92926a4b)
REM
REM compiler GCC version 9.2.1 20190827 (Red Hat 9.2.1-1)
REM options -cpp -mtune=generic -march=x86-64 -g -O0 -fpre-include=/usr/include/finclude/math-vector-fortran.h
REM seed 229120508 -1234732475 -1558114974 1236861720 -493410978 -479366382 496158353 -617168514 559281039 -2068641919 -1901567516 1009128027 -190611306 344061733 -1597602429 -1951829016 1068004843 1071453432 -900295151 1068622144 316658945 1261392015 1890629281 -1395579748 694786321 1476028129 353693428 -1950756390 -537186467 1757380801 -563934063 514123838 1540443179
REM
CELL 1.54180   50.00000   50.00000   50.00000   90.00000   90.00000   90.00000
LATT -1
SFAC C  
C      1  0.4657180000000  0.5357950000000  0.5096590000000 1.0
C      1  0.5634250000000  0.5017180000000  0.5898580000000 1.0
C      1  0.6066830000000  0.4738870000000  0.4438260000000 1.0
C      1  0.4710290000000  0.6102830000000  0.4505520000000 1.0
C      1  0.4258280000000  0.4466520000000  0.5527890000000 1.0
C      1  0.5840740000000  0.5113080000000  0.4651470000000 1.0
C      1  0.5148010000000  0.4268240000000  0.4184890000000 1.0
C      1  0.4167730000000  0.5520890000000  0.5281710000000 1.0
C      1  0.5595020000000  0.4642410000000  0.4767670000000 1.0
C      1  0.4592300000000  0.3868530000000  0.5367780000000 1.0
C      1  0.5040840000000  0.5171770000000  0.5213200000000 1.0
C      1  0.5891460000000  0.4883910000000  0.5798930000000 1.0
C      1  0.6050130000000  0.4541360000000  0.4642330000000 1.0
C      1  0.5050180000000  0.6112440000000  0.5238990000000 1.0
C      1  0.4745580000000  0.4307370000000  0.5708650000000 1.0
C      1  0.5754150000000  0.5632180000000  0.4622790000000 1.0
C      1  0.5392970000000  0.5291280000000  0.4192210000000 1.0
C      1  0.4299250000000  0.5849030000000  0.4596830000000 1.0
C      1  0.5063720000000  0.5630840000000  0.4026870000000 1.0
C      1  0.5492530000000  0.5374830000000  0.4869250000000 1.0
C      1  0.5473790000000  0.4564250000000  0.3959900000000 1.0
C      1  0.3926670000000  0.4893320000000  0.4497120000000 1.0
C      1  0.4546160000000  0.4452210000000  0.4417980000000 1.0
C      1  0.4309800000000  0.4827320000000  0.4184300000000 1.0
C      1  0.5587190000000  0.4632140000000  0.4468040000000 1.0
C      1  0.4345900000000  0.5124150000000  0.3800640000000 1.0
C      1  0.5521550000000  0.3894720000000  0.5295030000000 1.0
C      1  0.5574310000000  0.3925870000000  0.4723380000000 1.0
C      1  0.5871640000000  0.4592480000000  0.5872910000000 1.0
C      1  0.4303980000000  0.4853380000000  0.3884360000000 1.0
C      1  0.5940770000000  0.4954950000000  0.4882280000000 1.0
C      1  0.5157400000000  0.4737020000000  0.6102180000000 1.0
C      1  0.5608650000000  0.4520530000000  0.5996030000000 1.0
C      1  0.4722530000000  0.5906990000000  0.4290440000000 1.0
C      1  0.5612760000000  0.4319980000000  0.4083760000000 1.0
C      1  0.4741180000000  0.4253730000000  0.4528890000000 1.0
C      1  0.5905720000000  0.4967340000000  0.4393570000000 1.0
C      1  0.5586210000000  0.5364790000000  0.5149660000000 1.0
C      1  0.4572980000000  0.4692810000000  0.4251940000000 1.0
C      1  0.5765800000000  0.4144010000000  0.4799160000000 1.0
C      1  0.4258980000000  0.3958690000000  0.5022020000000 1.0
C      1  0.5136680000000  0.4988050000000  0.3895030000000 1.0
C      1  0.5832820000000  0.4221540000000  0.5089640000000 1.0
C      1  0.4545510000000  0.5196690000000  0.5929410000000 1.0
C      1  0.3955960000000  0.5381990000000  0.4481670000000 1.0
C      1  0.4256890000000  0.5134000000000  0.4252370000000 1.0
C      1  0.4092200000000  0.4343840000000  0.5283010000000 1.0
C      1  0.5168790000000  0.5073620000000  0.5711900000000 1.0
C      1  0.4394350000000  0.4194010000000  0.4913020000000 1.0
C      1  0.5155950000000  0.5941720000000  0.4605660000000 1.0
C      1  0.4887500000000  0.6006260000000  0.4734470000000 1.0
C      1  0.4477020000000  0.4697980000000  0.5020760000000 1.0
C      1  0.5606420000000  0.5954400000000  0.5490660000000 1.0
C      1  0.5145730000000  0.4756230000000  0.4650920000000 1.0
C      1  0.4802010000000  0.5692650000000  0.5712720000000 1.0
C      1  0.4893270000000  0.4841050000000  0.4781080000000 1.0
C      1  0.5047270000000  0.4006160000000  0.5420410000000 1.0
C      1  0.5606670000000  0.5324700000000  0.5852530000000 1.0
C      1  0.4173870000000  0.4055840000000  0.5273170000000 1.0
C      1  0.5458690000000  0.4754240000000  0.6118960000000 1.0
C      1  0.4505850000000  0.5529240000000  0.4531640000000 1.0
C      1  0.4712800000000  0.5183020000000  0.5661560000000 1.0
C      1  0.5354050000000  0.5468710000000  0.5918430000000 1.0
C      1  0.5316210000000  0.5713030000000  0.5762470000000 1.0
C      1  0.5593930000000  0.4847310000000  0.4006500000000 1.0
C      1  0.5330250000000  0.6060410000000  0.4805280000000 1.0
C      1  0.5144650000000  0.3925020000000  0.4971650000000 1.0
C      1  0.5932950000000  0.4498710000000  0.5122640000000 1.0
C      1  0.4564470000000  0.5987250000000  0.5345140000000 1.0
C      1  0.5671210000000  0.4370040000000  0.4388000000000 1.0
C      1  0.5067450000000  0.5266370000000  0.4932700000000 1.0
C      1  0.4324090000000  0.5966600000000  0.5200900000000 1.0
C      1  0.4491500000000  0.5718580000000  0.4281290000000 1.0
C      1  0.5481010000000  0.4329890000000  0.5811240000000 1.0
C      1  0.4280000000000  0.4526280000000  0.4546630000000 1.0
C      1  0.4377810000000  0.4006540000000  0.5476940000000 1.0
C      1  0.4147140000000  0.5700360000000  0.4813010000000 1.0
C      1  0.5047560000000  0.4479730000000  0.6020510000000 1.0
C      1  0.5193120000000  0.4285620000000  0.5851040000000 1.0
C      1  0.4344860000000  0.5304000000000  0.4025460000000 1.0
C      1  0.5400100000000  0.4350880000000  0.5184430000000 1.0
C      1  0.5569580000000  0.5977010000000  0.5218110000000 1.0
C      1  0.5905720000000  0.4287250000000  0.4568970000000 1.0
C      1  0.4835080000000  0.5460250000000  0.3917540000000 1.0
C      1  0.5158010000000  0.4437650000000  0.4720250000000 1.0
C      1  0.5771000000000  0.5871830000000  0.4790590000000 1.0
C      1  0.4799000000000  0.5744180000000  0.4854130000000 1.0
C      1  0.4468580000000  0.4885270000000  0.5254500000000 1.0
C      1  0.4626730000000  0.5714670000000  0.5446570000000 1.0
C      1  0.4887280000000  0.4465540000000  0.5467290000000 1.0
C      1  0.5452790000000  0.5862910000000  0.4268220000000 1.0
C      1  0.5447720000000  0.4770180000000  0.5484530000000 1.0
C      1  0.5425810000000  0.4223060000000  0.4523620000000 1.0
C      1  0.4662840000000  0.4119490000000  0.4778760000000 1.0
C      1  0.5533030000000  0.5135240000000  0.4683240000000 1.0
C      1  0.4899160000000  0.5166630000000  0.3832310000000 1.0
C      1  0.5409200000000  0.5074290000000  0.4388660000000 1.0
C      1  0.4752340000000  0.5057540000000  0.4670010000000 1.0
C      1  0.3838670000000  0.4831300000000  0.5243600000000 1.0
C      1  0.4985100000000  0.5896690000000  0.4145120000000 1.0
C      1  0.4465730000000  0.5522970000000  0.5983510000000 1.0
C      1  0.6042800000000  0.5404790000000  0.4966700000000 1.0
C      1  0.4619140000000  0.5144490000000  0.5318140000000 1.0
C      1  0.5428050000000  0.4401970000000  0.4872060000000 1.0
C      1  0.5070300000000  0.6053950000000  0.5510410000000 1.0
C      1  0.4762270000000  0.6070080000000  0.5147930000000 1.0
C      1  0.5211660000000  0.6005760000000  0.4312120000000 1.0
C      1  0.4410060000000  0.4818770000000  0.5744590000000 1.0
C      1  0.5159300000000  0.5485020000000  0.4271500000000 1.0
C      1  0.3994410000000  0.5213090000000  0.4927250000000 1.0
C      1  0.5962120000000  0.4884440000000  0.5511510000000 1.0
C      1  0.5345710000000  0.4883850000000  0.5068780000000 1.0
C      1  0.4801770000000  0.4029150000000  0.5252910000000 1.0
C      1  0.4766700000000  0.4484960000000  0.5948350000000 1.0
C      1  0.5392310000000  0.4127940000000  0.4143260000000 1.0
C      1  0.4767790000000  0.4740330000000  0.4047900000000 1.0
C      1  0.4803060000000  0.5293320000000  0.4836610000000 1.0
C      1  0.4260850000000  0.5476790000000  0.5768900000000 1.0
C      1  0.5957700000000  0.4610150000000  0.5397680000000 1.0
C      1  0.5893150000000  0.4659880000000  0.4869420000000 1.0
C      1  0.4115390000000  0.4736900000000  0.5764320000000 1.0
C      1  0.4678950000000  0.4953970000000  0.3858320000000 1.0
C      1  0.5129290000000  0.4695070000000  0.5123270000000 1.0
C      1  0.5371230000000  0.5518420000000  0.5320780000000 1.0
C      1  0.4455150000000  0.4401000000000  0.5147800000000 1.0
C      1  0.4182630000000  0.5196680000000  0.5807380000000 1.0
C      1  0.5124130000000  0.4922270000000  0.4381870000000 1.0
C      1  0.5060470000000  0.5217510000000  0.6180860000000 1.0
C      1  0.4904070000000  0.4899490000000  0.5218390000000 1.0
C      1  0.5907510000000  0.4427180000000  0.5622240000000 1.0
C      1  0.4800970000000  0.5628470000000  0.5158070000000 1.0
C      1  0.5611720000000  0.4169480000000  0.5299400000000 1.0
C      1  0.4790550000000  0.5524180000000  0.4646620000000 1.0
C      1  0.4927430000000  0.4420050000000  0.4961740000000 1.0
C      1  0.4585290000000  0.5471630000000  0.4101680000000 1.0
C      1  0.5988730000000  0.5132140000000  0.5361620000000 1.0
C      1  0.5729520000000  0.5495560000000  0.5645510000000 1.0
C      1  0.5247920000000  0.3889950000000  0.5241290000000 1.0
C      1  0.5559700000000  0.5642040000000  0.4403300000000 1.0
C      1  0.4876140000000  0.5381240000000  0.4346340000000 1.0
C      1  0.4442290000000  0.4245800000000  0.5632850000000 1.0
C      1  0.4342430000000  0.5260260000000  0.4519840000000 1.0
C      1  0.3962380000000  0.5039440000000  0.5381310000000 1.0
C      1  0.5671420000000  0.4252900000000  0.5591820000000 1.0
C      1  0.5285110000000  0.3861340000000  0.4731480000000 1.0
C      1  0.5477360000000  0.5021460000000  0.5296170000000 1.0
C      1  0.4466460000000  0.5037040000000  0.4657140000000 1.0
C      1  0.4607660000000  0.6196400000000  0.4926860000000 1.0
C      1  0.4755830000000  0.4330050000000  0.5223440000000 1.0
C      1  0.4857070000000  0.3980100000000  0.4963660000000 1.0
C      1  0.5212330000000  0.4536300000000  0.4087820000000 1.0
C      1  0.4882260000000  0.4929820000000  0.5712970000000 1.0
C      1  0.4043450000000  0.4475800000000  0.5005050000000 1.0
C      1  0.4882460000000  0.4765550000000  0.5479130000000 1.0
C      1  0.4683380000000  0.4950500000000  0.6138030000000 1.0
C      1  0.4885030000000  0.5099840000000  0.4415470000000 1.0
C      1  0.5632660000000  0.4876610000000  0.4304240000000 1.0
C      1  0.4310720000000  0.4827950000000  0.4785650000000 1.0
C      1  0.5252780000000  0.4553160000000  0.5363900000000 1.0
C      1  0.5231620000000  0.5497820000000  0.4864580000000 1.0
C      1  0.4884040000000  0.5412290000000  0.5744970000000 1.0
C      1  0.4974080000000  0.4955510000000  0.6196950000000 1.0
C      1  0.4632980000000  0.5747140000000  0.5939650000000 1.0
C      1  0.5387540000000  0.4877650000000  0.5756280000000 1.0
C      1  0.5114320000000  0.3924050000000  0.4512880000000 1.0
C      1  0.4446580000000  0.4700750000000  0.5475690000000 1.0
C      1  0.5851900000000  0.5532000000000  0.5163300000000 1.0
C      1  0.4013710000000  0.4925140000000  0.4804660000000 1.0
C      1  0.5936540000000  0.5399600000000  0.4687560000000 1.0
C      1  0.4360570000000  0.5545770000000  0.5499970000000 1.0
C      1  0.5002610000000  0.4110240000000  0.5699170000000 1.0
C      1  0.4015260000000  0.5002940000000  0.5671610000000 1.0
C      1  0.5000450000000  0.4165310000000  0.4416000000000 1.0
C      1  0.5118050000000  0.5304150000000  0.5912470000000 1.0
C      1  0.5411650000000  0.4875000000000  0.4798880000000 1.0
C      1  0.5595700000000  0.6080570000000  0.4727280000000 1.0
C      1  0.5214550000000  0.5639970000000  0.4578070000000 1.0
C      1  0.4460810000000  0.6103110000000  0.4670930000000 1.0
C      1  0.5258930000000  0.5213510000000  0.5406940000000 1.0
C      1  0.4746250000000  0.4645100000000  0.4902920000000 1.0
C      1  0.5516420000000  0.5687260000000  0.5550700000000 1.0
C      1  0.4672210000000  0.4768840000000  0.5904310000000 1.0
C      1  0.5922910000000  0.5414080000000  0.5436880000000 1.0
C      1  0.4182790000000  0.4353340000000  0.4769510000000 1.0
C      1  0.5407520000000  0.5100530000000  0.3942960000000 1.0
C      1  0.5284560000000  0.5967990000000  0.5090650000000 1.0
C      1  0.3896230000000  0.4725630000000  0.4992740000000 1.0
C      1  0.5057950000000  0.4782880000000  0.4105390000000 1.0
C      1  0.4095680000000  0.4683490000000  0.4357860000000 1.0
C      1  0.5182730000000  0.5669620000000  0.5116520000000 1.0
C      1  0.5785740000000  0.5827780000000  0.5080200000000 1.0
C      1  0.5057710000000  0.5850990000000  0.5700630000000 1.0
C      1  0.4222180000000  0.5729920000000  0.5089020000000 1.0
C      1  0.3964210000000  0.5143030000000  0.4328200000000 1.0
C      1  0.4032020000000  0.5437160000000  0.4746130000000 1.0
C      1  0.6066350000000  0.5128090000000  0.5077690000000 1.0
C      1  0.4048250000000  0.5260770000000  0.5207850000000 1.0
END
