TITL C-951344-124-494 -3.54400488771826e-06 125000 -1219.5393963929 0 0 194 (C1) n - 1
REM
REM in /home/bkarasulu/work/CARBON/AIRSS/Generating-Clusters/EDIP-Nigel-Params/with-SteepDescent/Only-C1/SD-CG/HFTN-CG
REM
REM
REM
REM
REM
REM ./C.cell (11c1c37f851c82e70ff6c80c92926a4b)
REM
REM compiler GCC version 9.2.1 20190827 (Red Hat 9.2.1-1)
REM options -cpp -mtune=generic -march=x86-64 -g -O0 -fpre-include=/usr/include/finclude/math-vector-fortran.h
REM seed -1120844882 -94553125 -41509107 1042939352 -348656754 -1058677559 1673018335 -2005177183 -2103338528 732823193 -1286863047 220955600 -446152377 1528581370 -1575113282 -41378593 923221742 481992583 -779048525 758782059 -540774302 42843053 633709593 -1662969013 2118326768 -2077127689 849389190 1343663934 1652772697 -1781963093 1903856708 -2085846888 2048239544
REM
CELL 1.54180   50.00000   50.00000   50.00000   90.00000   90.00000   90.00000
LATT -1
SFAC C  
C      1  0.5730050000000  0.4186800000000  0.4993870000000 1.0
C      1  0.4911720000000  0.5308240000000  0.4847940000000 1.0
C      1  0.4030150000000  0.5628240000000  0.5314920000000 1.0
C      1  0.4669230000000  0.5040020000000  0.4365610000000 1.0
C      1  0.4248170000000  0.4274910000000  0.5259110000000 1.0
C      1  0.4392060000000  0.4916720000000  0.5187350000000 1.0
C      1  0.5290860000000  0.3952010000000  0.4460660000000 1.0
C      1  0.5274300000000  0.5080820000000  0.6074850000000 1.0
C      1  0.5324660000000  0.4567280000000  0.4390650000000 1.0
C      1  0.4659080000000  0.4751490000000  0.5261430000000 1.0
C      1  0.4807090000000  0.4165750000000  0.4162950000000 1.0
C      1  0.4394440000000  0.5226550000000  0.5280820000000 1.0
C      1  0.3973740000000  0.5710950000000  0.5031510000000 1.0
C      1  0.5248320000000  0.5535530000000  0.4393140000000 1.0
C      1  0.4137250000000  0.4417410000000  0.5030910000000 1.0
C      1  0.4149940000000  0.5311470000000  0.5682150000000 1.0
C      1  0.5810080000000  0.4591000000000  0.5237600000000 1.0
C      1  0.4484640000000  0.5085000000000  0.4126840000000 1.0
C      1  0.4677900000000  0.5164350000000  0.3911430000000 1.0
C      1  0.5951720000000  0.4896360000000  0.4814930000000 1.0
C      1  0.5402220000000  0.4894490000000  0.3959370000000 1.0
C      1  0.4773730000000  0.5663870000000  0.5848870000000 1.0
C      1  0.4955040000000  0.5156410000000  0.4257900000000 1.0
C      1  0.5317040000000  0.5118210000000  0.5634660000000 1.0
C      1  0.5842320000000  0.5373580000000  0.4396170000000 1.0
C      1  0.5476280000000  0.5740830000000  0.4395440000000 1.0
C      1  0.5672500000000  0.5033800000000  0.4879230000000 1.0
C      1  0.5569500000000  0.5133610000000  0.5422340000000 1.0
C      1  0.5136390000000  0.6064010000000  0.4595480000000 1.0
C      1  0.4335720000000  0.4831340000000  0.5772000000000 1.0
C      1  0.4531320000000  0.5243730000000  0.5992290000000 1.0
C      1  0.5224700000000  0.4850320000000  0.6252190000000 1.0
C      1  0.5727520000000  0.5625480000000  0.4473500000000 1.0
C      1  0.4834930000000  0.4024030000000  0.5546030000000 1.0
C      1  0.5125600000000  0.4796620000000  0.4017100000000 1.0
C      1  0.5449080000000  0.5151480000000  0.4100900000000 1.0
C      1  0.5822760000000  0.4919240000000  0.4344390000000 1.0
C      1  0.4799280000000  0.3812650000000  0.5024060000000 1.0
C      1  0.4003320000000  0.5048620000000  0.4559370000000 1.0
C      1  0.4060730000000  0.4800710000000  0.5331530000000 1.0
C      1  0.4583320000000  0.4595080000000  0.4047970000000 1.0
C      1  0.4651630000000  0.6096350000000  0.4607840000000 1.0
C      1  0.4795400000000  0.4126610000000  0.4716580000000 1.0
C      1  0.4681770000000  0.5819100000000  0.5617610000000 1.0
C      1  0.4595120000000  0.4356260000000  0.4227180000000 1.0
C      1  0.5066470000000  0.6174670000000  0.4872220000000 1.0
C      1  0.5533860000000  0.4941020000000  0.5138870000000 1.0
C      1  0.4906370000000  0.4842760000000  0.5747850000000 1.0
C      1  0.4214280000000  0.5846980000000  0.4931570000000 1.0
C      1  0.5011700000000  0.4010880000000  0.5140870000000 1.0
C      1  0.4455890000000  0.5394950000000  0.4808060000000 1.0
C      1  0.5209340000000  0.6046560000000  0.5094210000000 1.0
C      1  0.4560040000000  0.4406670000000  0.5931580000000 1.0
C      1  0.4966590000000  0.4740230000000  0.6271190000000 1.0
C      1  0.4200130000000  0.6072520000000  0.4763370000000 1.0
C      1  0.4694590000000  0.5630750000000  0.4133830000000 1.0
C      1  0.5568020000000  0.5550610000000  0.5750680000000 1.0
C      1  0.5248000000000  0.5625750000000  0.4951030000000 1.0
C      1  0.4795780000000  0.5538080000000  0.4682480000000 1.0
C      1  0.4855670000000  0.4364310000000  0.5894480000000 1.0
C      1  0.4808710000000  0.4621370000000  0.5038230000000 1.0
C      1  0.5100550000000  0.4986690000000  0.4430550000000 1.0
C      1  0.4937260000000  0.4089890000000  0.5815970000000 1.0
C      1  0.5365370000000  0.5078940000000  0.4476040000000 1.0
C      1  0.3958260000000  0.5472900000000  0.4868320000000 1.0
C      1  0.5719780000000  0.5165170000000  0.4234330000000 1.0
C      1  0.5798420000000  0.4416590000000  0.4368700000000 1.0
C      1  0.4508240000000  0.4136400000000  0.4678620000000 1.0
C      1  0.6120780000000  0.5237420000000  0.5146650000000 1.0
C      1  0.4771030000000  0.4648890000000  0.3824400000000 1.0
C      1  0.4878480000000  0.6070400000000  0.4410960000000 1.0
C      1  0.5279720000000  0.5570540000000  0.5248080000000 1.0
C      1  0.6015520000000  0.5084810000000  0.5612340000000 1.0
C      1  0.5951090000000  0.4590510000000  0.4817970000000 1.0
C      1  0.5187330000000  0.5341830000000  0.4146440000000 1.0
C      1  0.6023860000000  0.5685150000000  0.5174620000000 1.0
C      1  0.5993540000000  0.5460710000000  0.5000170000000 1.0
C      1  0.5551140000000  0.4648210000000  0.4558900000000 1.0
C      1  0.4303470000000  0.5313860000000  0.4210850000000 1.0
C      1  0.4803680000000  0.5435710000000  0.3945080000000 1.0
C      1  0.4417210000000  0.4286120000000  0.5710370000000 1.0
C      1  0.4377880000000  0.4800670000000  0.4090910000000 1.0
C      1  0.4720860000000  0.4233000000000  0.5353130000000 1.0
C      1  0.4372220000000  0.6002540000000  0.4549300000000 1.0
C      1  0.4880060000000  0.4601930000000  0.4532040000000 1.0
C      1  0.5432780000000  0.4652260000000  0.6192270000000 1.0
C      1  0.5987810000000  0.5275850000000  0.5403900000000 1.0
C      1  0.4829980000000  0.5884320000000  0.4178930000000 1.0
C      1  0.4326670000000  0.5714960000000  0.4474530000000 1.0
C      1  0.5864980000000  0.4740440000000  0.5510070000000 1.0
C      1  0.5082580000000  0.5462400000000  0.3900180000000 1.0
C      1  0.5013160000000  0.4922340000000  0.5273420000000 1.0
C      1  0.5046880000000  0.5532680000000  0.5877240000000 1.0
C      1  0.5252320000000  0.5107850000000  0.5128500000000 1.0
C      1  0.5329670000000  0.4573890000000  0.5914020000000 1.0
C      1  0.4386430000000  0.5128820000000  0.5750690000000 1.0
C      1  0.3933120000000  0.4590160000000  0.4640060000000 1.0
C      1  0.3963050000000  0.5233790000000  0.5040650000000 1.0
C      1  0.5215930000000  0.4779170000000  0.4845570000000 1.0
C      1  0.4425160000000  0.5789380000000  0.5133500000000 1.0
C      1  0.5526960000000  0.5378930000000  0.5234750000000 1.0
C      1  0.5645550000000  0.4189310000000  0.5429620000000 1.0
C      1  0.6004920000000  0.4437890000000  0.4573810000000 1.0
C      1  0.5549390000000  0.5631370000000  0.4812760000000 1.0
C      1  0.5088500000000  0.4485890000000  0.5439050000000 1.0
C      1  0.5397370000000  0.4282750000000  0.5840060000000 1.0
C      1  0.6132200000000  0.4837000000000  0.5566870000000 1.0
C      1  0.4788220000000  0.6037500000000  0.4882430000000 1.0
C      1  0.4279530000000  0.5572380000000  0.5800270000000 1.0
C      1  0.5605150000000  0.6008510000000  0.4809200000000 1.0
C      1  0.5609070000000  0.4706660000000  0.3992560000000 1.0
C      1  0.4993380000000  0.4300220000000  0.4590420000000 1.0
C      1  0.5223000000000  0.4069040000000  0.5752990000000 1.0
C      1  0.5558570000000  0.5882810000000  0.5365130000000 1.0
C      1  0.5647690000000  0.4783260000000  0.6002190000000 1.0
C      1  0.4230430000000  0.4689290000000  0.5533740000000 1.0
C      1  0.5204390000000  0.5326300000000  0.4871350000000 1.0
C      1  0.5284320000000  0.4521870000000  0.4975400000000 1.0
C      1  0.5699500000000  0.5667910000000  0.5516330000000 1.0
C      1  0.5387150000000  0.4342600000000  0.4219730000000 1.0
C      1  0.5557340000000  0.5079360000000  0.5995510000000 1.0
C      1  0.5953250000000  0.5568230000000  0.5425770000000 1.0
C      1  0.4808300000000  0.5937050000000  0.5378840000000 1.0
C      1  0.4791700000000  0.5050540000000  0.4738780000000 1.0
C      1  0.5049750000000  0.5267290000000  0.6026970000000 1.0
C      1  0.5695820000000  0.5388610000000  0.4964150000000 1.0
C      1  0.4524910000000  0.5452190000000  0.5103480000000 1.0
C      1  0.5796960000000  0.4668410000000  0.4198920000000 1.0
C      1  0.5014860000000  0.4426760000000  0.5152920000000 1.0
C      1  0.5258570000000  0.4038380000000  0.4946910000000 1.0
C      1  0.4920020000000  0.4767780000000  0.4796650000000 1.0
C      1  0.5208460000000  0.3836240000000  0.4725350000000 1.0
C      1  0.5086260000000  0.6008850000000  0.5357480000000 1.0
C      1  0.5511510000000  0.4033600000000  0.5108200000000 1.0
C      1  0.4589620000000  0.4722310000000  0.4468420000000 1.0
C      1  0.5086580000000  0.4722140000000  0.4325900000000 1.0
C      1  0.5295280000000  0.5859000000000  0.5510760000000 1.0
C      1  0.3992560000000  0.4784260000000  0.4421910000000 1.0
C      1  0.4483350000000  0.4108100000000  0.5226590000000 1.0
C      1  0.6024170000000  0.4994350000000  0.4541630000000 1.0
C      1  0.4952200000000  0.5754090000000  0.4843800000000 1.0
C      1  0.5528900000000  0.4638900000000  0.5144940000000 1.0
C      1  0.5296380000000  0.5671180000000  0.5759370000000 1.0
C      1  0.4145050000000  0.5281530000000  0.4455900000000 1.0
C      1  0.4238970000000  0.4688630000000  0.4311720000000 1.0
C      1  0.4632390000000  0.4515340000000  0.5478840000000 1.0
C      1  0.4202350000000  0.4456680000000  0.4724780000000 1.0
C      1  0.5841480000000  0.4294700000000  0.5245120000000 1.0
C      1  0.4817710000000  0.5368520000000  0.5124740000000 1.0
C      1  0.4409840000000  0.4678260000000  0.4724370000000 1.0
C      1  0.5621500000000  0.4342930000000  0.5677990000000 1.0
C      1  0.4789530000000  0.5133400000000  0.6059390000000 1.0
C      1  0.5030230000000  0.5431880000000  0.5329360000000 1.0
C      1  0.5220950000000  0.4828970000000  0.5711700000000 1.0
C      1  0.4221970000000  0.4397860000000  0.5532560000000 1.0
C      1  0.5208740000000  0.4742690000000  0.5426960000000 1.0
C      1  0.5422740000000  0.5978470000000  0.4569980000000 1.0
C      1  0.4528590000000  0.5533000000000  0.5972920000000 1.0
C      1  0.4094960000000  0.5323890000000  0.5351470000000 1.0
C      1  0.5324760000000  0.5331590000000  0.4599320000000 1.0
C      1  0.5050010000000  0.5277990000000  0.5582660000000 1.0
C      1  0.6068540000000  0.5274200000000  0.4530350000000 1.0
C      1  0.4904130000000  0.3843340000000  0.4745120000000 1.0
C      1  0.5505870000000  0.4178580000000  0.4477840000000 1.0
C      1  0.4757320000000  0.4847100000000  0.6108660000000 1.0
C      1  0.4985010000000  0.5671360000000  0.4463020000000 1.0
C      1  0.5063370000000  0.4534280000000  0.3868280000000 1.0
C      1  0.3859170000000  0.4754680000000  0.4885110000000 1.0
C      1  0.4029990000000  0.4998230000000  0.4853490000000 1.0
C      1  0.4427310000000  0.5583130000000  0.4232810000000 1.0
C      1  0.4872910000000  0.4549430000000  0.5647890000000 1.0
C      1  0.5455670000000  0.4897630000000  0.4693040000000 1.0
C      1  0.4536520000000  0.4699310000000  0.5944840000000 1.0
C      1  0.4407500000000  0.5735680000000  0.5597440000000 1.0
C      1  0.4196660000000  0.5493580000000  0.4659660000000 1.0
C      1  0.5268930000000  0.4286870000000  0.4758060000000 1.0
C      1  0.5145040000000  0.4288820000000  0.4024210000000 1.0
C      1  0.6133620000000  0.4996820000000  0.5008600000000 1.0
C      1  0.5489940000000  0.5977930000000  0.5078660000000 1.0
C      1  0.5040070000000  0.4115100000000  0.4352820000000 1.0
C      1  0.5080590000000  0.3935410000000  0.5420990000000 1.0
C      1  0.4526740000000  0.3931900000000  0.5003770000000 1.0
C      1  0.4849470000000  0.5053920000000  0.5525930000000 1.0
C      1  0.5720580000000  0.4616820000000  0.5737080000000 1.0
C      1  0.4502190000000  0.5111050000000  0.4760660000000 1.0
C      1  0.4258400000000  0.5800970000000  0.5371500000000 1.0
C      1  0.3953480000000  0.4621470000000  0.5126730000000 1.0
C      1  0.4416900000000  0.4315870000000  0.4470900000000 1.0
C      1  0.4330270000000  0.4917260000000  0.4886330000000 1.0
C      1  0.5649090000000  0.5262690000000  0.5781300000000 1.0
C      1  0.4564420000000  0.5169660000000  0.5519170000000 1.0
C      1  0.4643420000000  0.5992820000000  0.5146620000000 1.0
C      1  0.5681670000000  0.4423830000000  0.4790900000000 1.0
C      1  0.4837070000000  0.4942230000000  0.3809080000000 1.0
END
