TITL C-950524-1808-622 -6.36695416479161e-07 125000 -1116.23366615222 0 0 178 (C1) n - 1
REM
REM in /home/bkarasulu/work/CARBON/AIRSS/Generating-Clusters/EDIP-Nigel-Params/with-SteepDescent/Only-C1/SD-CG/HFTN-CG
REM
REM
REM
REM
REM
REM ./C.cell (11c1c37f851c82e70ff6c80c92926a4b)
REM
REM compiler GCC version 9.2.1 20190827 (Red Hat 9.2.1-1)
REM options -cpp -mtune=generic -march=x86-64 -g -O0 -fpre-include=/usr/include/finclude/math-vector-fortran.h
REM seed 2069755967 629925380 -1781653545 622785292 1499202213 -1832467629 -1316781300 1599924816 -431110896 1176181208 -135998746 -476410986 -484020296 -1030481167 1222875623 798064736 -1278823211 -741859225 1441276962 -896723377 -599593301 -1309850001 1352351558 -570776256 -468345715 -949565159 1974265436 -112113639 -63187355 1051877047 257158740 -211853909 116923116
REM
CELL 1.54180   50.00000   50.00000   50.00000   90.00000   90.00000   90.00000
LATT -1
SFAC C  
C      1  0.4840070000000  0.4046220000000  0.5046120000000 1.0
C      1  0.4316970000000  0.5673660000000  0.5166920000000 1.0
C      1  0.4909040000000  0.4308560000000  0.4251170000000 1.0
C      1  0.4938630000000  0.5775190000000  0.4375180000000 1.0
C      1  0.5435620000000  0.4241400000000  0.5514590000000 1.0
C      1  0.4607620000000  0.4348520000000  0.5307230000000 1.0
C      1  0.5060780000000  0.5591210000000  0.4155470000000 1.0
C      1  0.5036900000000  0.5427080000000  0.5186680000000 1.0
C      1  0.5502500000000  0.4666380000000  0.5921480000000 1.0
C      1  0.5237060000000  0.4910740000000  0.6049370000000 1.0
C      1  0.5450340000000  0.5334520000000  0.3942010000000 1.0
C      1  0.5445790000000  0.5122560000000  0.5668320000000 1.0
C      1  0.6247500000000  0.5485710000000  0.4858990000000 1.0
C      1  0.4604940000000  0.4054670000000  0.5234490000000 1.0
C      1  0.5108020000000  0.4439560000000  0.4888040000000 1.0
C      1  0.5873000000000  0.4369690000000  0.5328200000000 1.0
C      1  0.5460590000000  0.4282260000000  0.4545650000000 1.0
C      1  0.5293530000000  0.4313690000000  0.4294190000000 1.0
C      1  0.5675150000000  0.4979710000000  0.4769110000000 1.0
C      1  0.5690220000000  0.4453010000000  0.4598410000000 1.0
C      1  0.4647780000000  0.5124850000000  0.5959660000000 1.0
C      1  0.5725240000000  0.4616530000000  0.5729070000000 1.0
C      1  0.5172050000000  0.3873960000000  0.5301780000000 1.0
C      1  0.6223370000000  0.5243650000000  0.4716170000000 1.0
C      1  0.4951760000000  0.5322120000000  0.4228020000000 1.0
C      1  0.5841050000000  0.4520250000000  0.4850750000000 1.0
C      1  0.4429900000000  0.5783680000000  0.4601280000000 1.0
C      1  0.4321780000000  0.5322110000000  0.4650990000000 1.0
C      1  0.5659280000000  0.4425000000000  0.5514500000000 1.0
C      1  0.4974340000000  0.3951500000000  0.5533890000000 1.0
C      1  0.5783880000000  0.4296420000000  0.5052310000000 1.0
C      1  0.5918650000000  0.4822080000000  0.5624430000000 1.0
C      1  0.4899760000000  0.4431910000000  0.5339160000000 1.0
C      1  0.5191460000000  0.4658430000000  0.3908500000000 1.0
C      1  0.4746100000000  0.5107430000000  0.5527660000000 1.0
C      1  0.5925440000000  0.5479600000000  0.4643870000000 1.0
C      1  0.6081400000000  0.5288530000000  0.5277920000000 1.0
C      1  0.5717550000000  0.4768030000000  0.5001530000000 1.0
C      1  0.5589060000000  0.5136860000000  0.4132510000000 1.0
C      1  0.5470340000000  0.5558160000000  0.4402550000000 1.0
C      1  0.5568140000000  0.5418300000000  0.5985220000000 1.0
C      1  0.4256860000000  0.4333630000000  0.4943660000000 1.0
C      1  0.3921860000000  0.4584280000000  0.5163200000000 1.0
C      1  0.4360090000000  0.5165790000000  0.5279250000000 1.0
C      1  0.4183710000000  0.4329620000000  0.5448790000000 1.0
C      1  0.5004030000000  0.4738580000000  0.5788940000000 1.0
C      1  0.4451390000000  0.4383200000000  0.4438550000000 1.0
C      1  0.4534610000000  0.5762220000000  0.5605690000000 1.0
C      1  0.4631150000000  0.5765870000000  0.4368950000000 1.0
C      1  0.3836880000000  0.5281170000000  0.4425400000000 1.0
C      1  0.5884950000000  0.5114020000000  0.5711520000000 1.0
C      1  0.4254250000000  0.5368210000000  0.5716700000000 1.0
C      1  0.4082810000000  0.5213320000000  0.4238160000000 1.0
C      1  0.4989510000000  0.5855890000000  0.5531550000000 1.0
C      1  0.4064600000000  0.4815020000000  0.5305830000000 1.0
C      1  0.5396440000000  0.4495370000000  0.4071110000000 1.0
C      1  0.4850630000000  0.4763680000000  0.4544780000000 1.0
C      1  0.6105400000000  0.4725400000000  0.4735530000000 1.0
C      1  0.4052320000000  0.5403130000000  0.4779470000000 1.0
C      1  0.4411350000000  0.5135090000000  0.5592070000000 1.0
C      1  0.5040040000000  0.5396800000000  0.6071320000000 1.0
C      1  0.4218630000000  0.4548760000000  0.4482120000000 1.0
C      1  0.4602300000000  0.5277130000000  0.5121270000000 1.0
C      1  0.5009500000000  0.5300200000000  0.4534600000000 1.0
C      1  0.5161540000000  0.4947590000000  0.5372390000000 1.0
C      1  0.5010580000000  0.4999890000000  0.5639310000000 1.0
C      1  0.4919730000000  0.4739550000000  0.5254250000000 1.0
C      1  0.5214610000000  0.4712130000000  0.5000250000000 1.0
C      1  0.4962440000000  0.5037360000000  0.4692260000000 1.0
C      1  0.4837000000000  0.4505380000000  0.4737630000000 1.0
C      1  0.5455050000000  0.5842190000000  0.5090020000000 1.0
C      1  0.4382510000000  0.4777800000000  0.5243310000000 1.0
C      1  0.4696550000000  0.4726710000000  0.4134050000000 1.0
C      1  0.4563720000000  0.5553530000000  0.5031150000000 1.0
C      1  0.5232030000000  0.4931540000000  0.4792380000000 1.0
C      1  0.4731250000000  0.5100330000000  0.4897860000000 1.0
C      1  0.4747770000000  0.6078650000000  0.4934680000000 1.0
C      1  0.4718940000000  0.5846660000000  0.5398680000000 1.0
C      1  0.4263270000000  0.5433160000000  0.4355370000000 1.0
C      1  0.4005190000000  0.4966160000000  0.4848380000000 1.0
C      1  0.4762770000000  0.4665640000000  0.5967020000000 1.0
C      1  0.5218170000000  0.5999130000000  0.5120370000000 1.0
C      1  0.4947540000000  0.3951900000000  0.4591330000000 1.0
C      1  0.5229360000000  0.5150060000000  0.3842490000000 1.0
C      1  0.4575500000000  0.5144420000000  0.3952940000000 1.0
C      1  0.4667900000000  0.4860410000000  0.5359130000000 1.0
C      1  0.4077500000000  0.4858410000000  0.5621360000000 1.0
C      1  0.5010150000000  0.5917050000000  0.4907910000000 1.0
C      1  0.5331420000000  0.5305890000000  0.4532140000000 1.0
C      1  0.5198540000000  0.5130360000000  0.5838830000000 1.0
C      1  0.3815270000000  0.5116490000000  0.4675170000000 1.0
C      1  0.4852660000000  0.5162020000000  0.6171490000000 1.0
C      1  0.5663200000000  0.4886780000000  0.4010520000000 1.0
C      1  0.4462380000000  0.6016580000000  0.4799030000000 1.0
C      1  0.4843250000000  0.5424040000000  0.5820470000000 1.0
C      1  0.6115360000000  0.5028760000000  0.5148560000000 1.0
C      1  0.4586910000000  0.4234330000000  0.5695400000000 1.0
C      1  0.4525700000000  0.4268950000000  0.4705360000000 1.0
C      1  0.4711320000000  0.5692800000000  0.5834730000000 1.0
C      1  0.5175980000000  0.3896320000000  0.4774630000000 1.0
C      1  0.4538490000000  0.4850100000000  0.5904560000000 1.0
C      1  0.4670640000000  0.4468060000000  0.4266500000000 1.0
C      1  0.4672300000000  0.5311620000000  0.4151290000000 1.0
C      1  0.4928900000000  0.5884070000000  0.5819630000000 1.0
C      1  0.5007260000000  0.4056830000000  0.4330630000000 1.0
C      1  0.4857150000000  0.5531500000000  0.4666480000000 1.0
C      1  0.5354430000000  0.4815470000000  0.4436070000000 1.0
C      1  0.4936020000000  0.5620420000000  0.4957510000000 1.0
C      1  0.4066760000000  0.4330420000000  0.5194070000000 1.0
C      1  0.5723540000000  0.5473380000000  0.5112120000000 1.0
C      1  0.5445400000000  0.5149520000000  0.4804880000000 1.0
C      1  0.3961740000000  0.5049560000000  0.5138720000000 1.0
C      1  0.5177480000000  0.5546280000000  0.5688120000000 1.0
C      1  0.5032090000000  0.3810430000000  0.5043410000000 1.0
C      1  0.5281940000000  0.4613610000000  0.5722860000000 1.0
C      1  0.5005700000000  0.4916250000000  0.6241010000000 1.0
C      1  0.5040100000000  0.4271390000000  0.5133410000000 1.0
C      1  0.5415030000000  0.4791520000000  0.5461120000000 1.0
C      1  0.4540410000000  0.5528460000000  0.4734660000000 1.0
C      1  0.5539190000000  0.5781880000000  0.4822700000000 1.0
C      1  0.5351820000000  0.5087830000000  0.4312200000000 1.0
C      1  0.4292630000000  0.5028200000000  0.4742200000000 1.0
C      1  0.4560850000000  0.4886360000000  0.4779710000000 1.0
C      1  0.4649140000000  0.4636360000000  0.4917830000000 1.0
C      1  0.5355460000000  0.5571650000000  0.4119450000000 1.0
C      1  0.3896390000000  0.5569280000000  0.4568010000000 1.0
C      1  0.5922710000000  0.4835010000000  0.5238640000000 1.0
C      1  0.5646890000000  0.5163080000000  0.5883210000000 1.0
C      1  0.5001590000000  0.4793900000000  0.4107790000000 1.0
C      1  0.4964360000000  0.4267570000000  0.5602770000000 1.0
C      1  0.4480170000000  0.4918540000000  0.4081470000000 1.0
C      1  0.5236200000000  0.4330170000000  0.5693130000000 1.0
C      1  0.4348390000000  0.5969100000000  0.5088540000000 1.0
C      1  0.4214080000000  0.4940380000000  0.4209340000000 1.0
C      1  0.5614470000000  0.5689920000000  0.5297730000000 1.0
C      1  0.5390050000000  0.5793770000000  0.4579190000000 1.0
C      1  0.4804630000000  0.5316620000000  0.5320300000000 1.0
C      1  0.4308100000000  0.5595810000000  0.5533760000000 1.0
C      1  0.4076080000000  0.5525600000000  0.5053600000000 1.0
C      1  0.5329560000000  0.4177490000000  0.4792150000000 1.0
C      1  0.4087310000000  0.5293780000000  0.5232950000000 1.0
C      1  0.5731720000000  0.5559150000000  0.5536070000000 1.0
C      1  0.5462760000000  0.4699060000000  0.5159740000000 1.0
C      1  0.4100890000000  0.4485440000000  0.4738040000000 1.0
C      1  0.5271610000000  0.5266280000000  0.5270400000000 1.0
C      1  0.4041710000000  0.5146090000000  0.5706230000000 1.0
C      1  0.4460840000000  0.4515950000000  0.5099530000000 1.0
C      1  0.5520120000000  0.4149890000000  0.5027710000000 1.0
C      1  0.4659510000000  0.3975520000000  0.5518800000000 1.0
C      1  0.5388540000000  0.5385400000000  0.5523290000000 1.0
C      1  0.5310670000000  0.5538670000000  0.5966790000000 1.0
C      1  0.4748870000000  0.4077910000000  0.4765030000000 1.0
C      1  0.3928300000000  0.4669930000000  0.4873600000000 1.0
C      1  0.4129900000000  0.5699860000000  0.4443740000000 1.0
C      1  0.5773220000000  0.5503260000000  0.4388780000000 1.0
C      1  0.5755530000000  0.5600060000000  0.4849440000000 1.0
C      1  0.5112610000000  0.5093890000000  0.4115150000000 1.0
C      1  0.5151560000000  0.6042700000000  0.5389310000000 1.0
C      1  0.5295730000000  0.4882340000000  0.3758110000000 1.0
C      1  0.4512560000000  0.5532690000000  0.4222880000000 1.0
C      1  0.5321380000000  0.4134670000000  0.5256680000000 1.0
C      1  0.5487890000000  0.5277380000000  0.5070030000000 1.0
C      1  0.6008780000000  0.4785980000000  0.4458810000000 1.0
C      1  0.5088900000000  0.4694920000000  0.4368420000000 1.0
C      1  0.4089850000000  0.4703290000000  0.4288680000000 1.0
C      1  0.4333580000000  0.4721640000000  0.5718740000000 1.0
C      1  0.6172630000000  0.4996150000000  0.4863850000000 1.0
C      1  0.4619310000000  0.6048120000000  0.5210090000000 1.0
C      1  0.5112590000000  0.5886180000000  0.4609690000000 1.0
C      1  0.5567010000000  0.4697560000000  0.4213640000000 1.0
C      1  0.6053940000000  0.4594380000000  0.5341280000000 1.0
C      1  0.5816230000000  0.5233280000000  0.4294100000000 1.0
C      1  0.5798330000000  0.4586550000000  0.4369900000000 1.0
C      1  0.6107440000000  0.5510800000000  0.5103620000000 1.0
C      1  0.5884170000000  0.5312100000000  0.5494720000000 1.0
C      1  0.4355210000000  0.4425250000000  0.5648290000000 1.0
C      1  0.5871470000000  0.5050890000000  0.4541700000000 1.0
C      1  0.4840240000000  0.4686490000000  0.6238670000000 1.0
END
