TITL C-951338-5626-329 2.9058923442063e-07 125000 -793.007147615558 0 0 128 (C1) n - 1
REM
REM in /home/bkarasulu/work/CARBON/AIRSS/Generating-Clusters/EDIP-Nigel-Params/with-SteepDescent/Only-C1/SD-CG/HFTN-CG
REM
REM
REM
REM
REM
REM ./C.cell (11c1c37f851c82e70ff6c80c92926a4b)
REM
REM compiler GCC version 9.2.1 20190827 (Red Hat 9.2.1-1)
REM options -cpp -mtune=generic -march=x86-64 -g -O0 -fpre-include=/usr/include/finclude/math-vector-fortran.h
REM seed 1057976388 37955557 -779455797 -1541726304 364575822 -1798666239 -412681899 -1199943918 229928724 762558368 -1223944816 -916853100 -1654300924 272991660 -1433418648 1748197654 -71524547 -1395457282 1866739085 295487094 -795704785 978514944 -1603394708 1630739463 -1020873 -1569803601 -614213044 -1532399492 723444257 941838447 1011189314 -1668800077 484981023
REM
CELL 1.54180   50.00000   50.00000   50.00000   90.00000   90.00000   90.00000
LATT -1
SFAC C  
C      1  0.5662830000000  0.5407230000000  0.4915770000000 1.0
C      1  0.4919320000000  0.4457020000000  0.5765510000000 1.0
C      1  0.4365900000000  0.5159410000000  0.4560870000000 1.0
C      1  0.5510490000000  0.4952740000000  0.4964580000000 1.0
C      1  0.5163240000000  0.5580610000000  0.5060980000000 1.0
C      1  0.4702630000000  0.4504630000000  0.5065280000000 1.0
C      1  0.4727010000000  0.5555740000000  0.5116730000000 1.0
C      1  0.5132990000000  0.5110530000000  0.4026640000000 1.0
C      1  0.5220050000000  0.4223130000000  0.4661830000000 1.0
C      1  0.4226980000000  0.5478170000000  0.5244160000000 1.0
C      1  0.5896560000000  0.5035610000000  0.4762290000000 1.0
C      1  0.4111770000000  0.4700740000000  0.4867360000000 1.0
C      1  0.4436860000000  0.4883130000000  0.5976860000000 1.0
C      1  0.4322800000000  0.4874960000000  0.4438440000000 1.0
C      1  0.5163970000000  0.4291560000000  0.5372930000000 1.0
C      1  0.5778330000000  0.5060960000000  0.5578260000000 1.0
C      1  0.4646580000000  0.4415180000000  0.4379450000000 1.0
C      1  0.4952130000000  0.4944580000000  0.5809580000000 1.0
C      1  0.5058160000000  0.5602030000000  0.4777000000000 1.0
C      1  0.4816390000000  0.5770910000000  0.5802500000000 1.0
C      1  0.4172280000000  0.5227780000000  0.5384780000000 1.0
C      1  0.5208610000000  0.5864080000000  0.5530160000000 1.0
C      1  0.5681830000000  0.4390490000000  0.4634420000000 1.0
C      1  0.4491510000000  0.4185170000000  0.4765420000000 1.0
C      1  0.5392350000000  0.4458380000000  0.4254970000000 1.0
C      1  0.5224760000000  0.5322580000000  0.5928830000000 1.0
C      1  0.4658870000000  0.4126190000000  0.5110490000000 1.0
C      1  0.5933680000000  0.5044600000000  0.5054810000000 1.0
C      1  0.4786430000000  0.4935410000000  0.4527400000000 1.0
C      1  0.4883450000000  0.4526700000000  0.4824100000000 1.0
C      1  0.5361280000000  0.5291330000000  0.4093890000000 1.0
C      1  0.5863790000000  0.4763440000000  0.4336440000000 1.0
C      1  0.4748700000000  0.4077140000000  0.4679380000000 1.0
C      1  0.4552740000000  0.5200290000000  0.5444360000000 1.0
C      1  0.4066720000000  0.4732070000000  0.5336210000000 1.0
C      1  0.5621790000000  0.5691710000000  0.4947700000000 1.0
C      1  0.5209670000000  0.5292480000000  0.4612350000000 1.0
C      1  0.4410590000000  0.5658330000000  0.5403640000000 1.0
C      1  0.5253430000000  0.4772390000000  0.4655300000000 1.0
C      1  0.5941210000000  0.4814690000000  0.4592480000000 1.0
C      1  0.4277870000000  0.4646800000000  0.4625850000000 1.0
C      1  0.5146020000000  0.4863930000000  0.4187320000000 1.0
C      1  0.4497220000000  0.5454130000000  0.5598080000000 1.0
C      1  0.4648210000000  0.5135540000000  0.4689500000000 1.0
C      1  0.5660890000000  0.4496860000000  0.5012600000000 1.0
C      1  0.5470690000000  0.4894370000000  0.5885540000000 1.0
C      1  0.5699330000000  0.5284030000000  0.5423350000000 1.0
C      1  0.4532260000000  0.5134580000000  0.6021950000000 1.0
C      1  0.4771770000000  0.4700250000000  0.5880960000000 1.0
C      1  0.4934360000000  0.4302160000000  0.4617030000000 1.0
C      1  0.5139220000000  0.6019960000000  0.5001910000000 1.0
C      1  0.4627310000000  0.4219550000000  0.5393450000000 1.0
C      1  0.4191220000000  0.4559300000000  0.5130090000000 1.0
C      1  0.5534250000000  0.5507360000000  0.5554000000000 1.0
C      1  0.4932270000000  0.5816100000000  0.5552130000000 1.0
C      1  0.5091350000000  0.4716680000000  0.4893700000000 1.0
C      1  0.5622550000000  0.4592150000000  0.5522490000000 1.0
C      1  0.5813330000000  0.5302280000000  0.4670140000000 1.0
C      1  0.4958000000000  0.4962600000000  0.5026910000000 1.0
C      1  0.4064740000000  0.5006430000000  0.5239840000000 1.0
C      1  0.4168570000000  0.5213090000000  0.4793510000000 1.0
C      1  0.5105250000000  0.4975220000000  0.4488720000000 1.0
C      1  0.4849510000000  0.4594040000000  0.5301490000000 1.0
C      1  0.4714990000000  0.5509440000000  0.5786200000000 1.0
C      1  0.4211320000000  0.5466250000000  0.4939600000000 1.0
C      1  0.4672690000000  0.5040720000000  0.4970130000000 1.0
C      1  0.4404500000000  0.4380790000000  0.4559880000000 1.0
C      1  0.5246440000000  0.4558560000000  0.5100780000000 1.0
C      1  0.4602580000000  0.5144960000000  0.4122230000000 1.0
C      1  0.4747830000000  0.5808330000000  0.5311820000000 1.0
C      1  0.4839080000000  0.5070770000000  0.5531230000000 1.0
C      1  0.4744130000000  0.5316210000000  0.6008270000000 1.0
C      1  0.5534020000000  0.4065590000000  0.4989730000000 1.0
C      1  0.4317040000000  0.4534960000000  0.5643120000000 1.0
C      1  0.5304180000000  0.5743700000000  0.4343190000000 1.0
C      1  0.4759900000000  0.5675760000000  0.4840180000000 1.0
C      1  0.5628170000000  0.5165980000000  0.4187630000000 1.0
C      1  0.4944840000000  0.4676430000000  0.4101900000000 1.0
C      1  0.4526940000000  0.5613970000000  0.4665430000000 1.0
C      1  0.5304620000000  0.4241540000000  0.4949330000000 1.0
C      1  0.5356800000000  0.5447590000000  0.4378540000000 1.0
C      1  0.4866130000000  0.5246710000000  0.4016880000000 1.0
C      1  0.5396670000000  0.5762890000000  0.5115950000000 1.0
C      1  0.5405410000000  0.4723520000000  0.4168010000000 1.0
C      1  0.4131660000000  0.4980530000000  0.4962020000000 1.0
C      1  0.4613610000000  0.5276790000000  0.5160630000000 1.0
C      1  0.4857430000000  0.6031730000000  0.5125190000000 1.0
C      1  0.5439430000000  0.4312110000000  0.4488190000000 1.0
C      1  0.5788780000000  0.4587820000000  0.5270000000000 1.0
C      1  0.4705320000000  0.4678120000000  0.4661190000000 1.0
C      1  0.5625120000000  0.4883300000000  0.4258880000000 1.0
C      1  0.4952340000000  0.4867960000000  0.5310470000000 1.0
C      1  0.5382530000000  0.4397240000000  0.5570370000000 1.0
C      1  0.4275050000000  0.5681500000000  0.4772120000000 1.0
C      1  0.4389340000000  0.4381830000000  0.5410670000000 1.0
C      1  0.5035960000000  0.5801080000000  0.4273960000000 1.0
C      1  0.5447920000000  0.5766800000000  0.5413910000000 1.0
C      1  0.5277330000000  0.5398170000000  0.5660170000000 1.0
C      1  0.5207810000000  0.4521160000000  0.5773160000000 1.0
C      1  0.4593750000000  0.4887220000000  0.4280500000000 1.0
C      1  0.5395060000000  0.5236540000000  0.4898680000000 1.0
C      1  0.5384420000000  0.5902710000000  0.4562380000000 1.0
C      1  0.4682180000000  0.4625340000000  0.4171670000000 1.0
C      1  0.5179760000000  0.4058380000000  0.5164500000000 1.0
C      1  0.4903900000000  0.3961720000000  0.5077060000000 1.0
C      1  0.5161510000000  0.5882810000000  0.4735820000000 1.0
C      1  0.5561370000000  0.4749670000000  0.4729390000000 1.0
C      1  0.5000100000000  0.5169650000000  0.6005970000000 1.0
C      1  0.5946830000000  0.4816470000000  0.5221790000000 1.0
C      1  0.5814100000000  0.5295610000000  0.5154710000000 1.0
C      1  0.4063880000000  0.4652970000000  0.5608130000000 1.0
C      1  0.4834500000000  0.5613420000000  0.4263290000000 1.0
C      1  0.4750750000000  0.5966200000000  0.4873970000000 1.0
C      1  0.4568380000000  0.5579310000000  0.4378530000000 1.0
C      1  0.4427940000000  0.5333670000000  0.4291860000000 1.0
C      1  0.4507210000000  0.4745430000000  0.4985210000000 1.0
C      1  0.5404750000000  0.4798440000000  0.5202820000000 1.0
C      1  0.5213800000000  0.5308910000000  0.5132090000000 1.0
C      1  0.4878700000000  0.5528900000000  0.4004260000000 1.0
C      1  0.5744110000000  0.4235120000000  0.4894730000000 1.0
C      1  0.4873470000000  0.3864310000000  0.4818060000000 1.0
C      1  0.5673660000000  0.4830230000000  0.5699500000000 1.0
C      1  0.5231260000000  0.4815420000000  0.5738130000000 1.0
C      1  0.5721810000000  0.5356730000000  0.4398160000000 1.0
C      1  0.4882970000000  0.4369190000000  0.5478230000000 1.0
C      1  0.5246080000000  0.4916400000000  0.5435100000000 1.0
C      1  0.4502630000000  0.4727480000000  0.5751350000000 1.0
C      1  0.5178290000000  0.5229410000000  0.5428440000000 1.0
END
