TITL C-950525-1983-250 -4.52380479899824e-07 125000 -1054.14420621995 0 0 169 (C1) n - 1
REM
REM in /home/bkarasulu/work/CARBON/AIRSS/Generating-Clusters/EDIP-Nigel-Params/with-SteepDescent/Only-C1/SD-CG/HFTN-CG
REM
REM
REM
REM
REM
REM ./C.cell (11c1c37f851c82e70ff6c80c92926a4b)
REM
REM compiler GCC version 9.2.1 20190827 (Red Hat 9.2.1-1)
REM options -cpp -mtune=generic -march=x86-64 -g -O0 -fpre-include=/usr/include/finclude/math-vector-fortran.h
REM seed 2085529334 1944644452 -1423610284 18654372 1571413930 -968069720 2068262148 184575630 1475532562 74616090 -2047001195 -861861526 1764775831 -401812884 -2077298796 1626511364 1661345686 14700481 1401776673 -18821531 1555530926 1493972827 925630164 1324772900 1382492834 562862116 -435472584 -2056055417 1731827397 -1744241656 987814583 -2076675391 -2030491937
REM
CELL 1.54180   50.00000   50.00000   50.00000   90.00000   90.00000   90.00000
LATT -1
SFAC C  
C      1  0.5311750000000  0.5813870000000  0.5383340000000 1.0
C      1  0.5273140000000  0.4501120000000  0.5746210000000 1.0
C      1  0.4705990000000  0.4705090000000  0.4949400000000 1.0
C      1  0.5221880000000  0.5545820000000  0.4320520000000 1.0
C      1  0.4405000000000  0.4385810000000  0.5112530000000 1.0
C      1  0.4363380000000  0.5445540000000  0.4223500000000 1.0
C      1  0.3950890000000  0.4645630000000  0.4667840000000 1.0
C      1  0.5053510000000  0.4348270000000  0.4261190000000 1.0
C      1  0.4194490000000  0.5390450000000  0.5493010000000 1.0
C      1  0.5049340000000  0.4535470000000  0.5567160000000 1.0
C      1  0.4346150000000  0.4881160000000  0.5243320000000 1.0
C      1  0.4364560000000  0.5181030000000  0.5217390000000 1.0
C      1  0.5610810000000  0.4744690000000  0.4888860000000 1.0
C      1  0.5977310000000  0.4556050000000  0.5107800000000 1.0
C      1  0.5371570000000  0.4147420000000  0.5096860000000 1.0
C      1  0.5627780000000  0.4115860000000  0.4683740000000 1.0
C      1  0.4370200000000  0.5202100000000  0.4075630000000 1.0
C      1  0.4967390000000  0.5630350000000  0.5060340000000 1.0
C      1  0.5205350000000  0.5729820000000  0.4894660000000 1.0
C      1  0.5791730000000  0.4330680000000  0.5185100000000 1.0
C      1  0.5099420000000  0.3874140000000  0.5059350000000 1.0
C      1  0.6002770000000  0.4726940000000  0.5579540000000 1.0
C      1  0.5693450000000  0.5630990000000  0.4573880000000 1.0
C      1  0.6071060000000  0.5363170000000  0.4796100000000 1.0
C      1  0.4682140000000  0.5366760000000  0.4775950000000 1.0
C      1  0.5070630000000  0.5139300000000  0.4962470000000 1.0
C      1  0.4603030000000  0.4252620000000  0.5780900000000 1.0
C      1  0.4867890000000  0.5168780000000  0.6006220000000 1.0
C      1  0.5358710000000  0.5910830000000  0.5094970000000 1.0
C      1  0.5684600000000  0.5682560000000  0.5719470000000 1.0
C      1  0.4170170000000  0.4842040000000  0.5487570000000 1.0
C      1  0.5640360000000  0.5836360000000  0.5029550000000 1.0
C      1  0.6037750000000  0.4896060000000  0.4734040000000 1.0
C      1  0.4941290000000  0.4881530000000  0.5980780000000 1.0
C      1  0.4532900000000  0.4496330000000  0.5368130000000 1.0
C      1  0.5666510000000  0.5053230000000  0.4913320000000 1.0
C      1  0.4873080000000  0.6087800000000  0.5266990000000 1.0
C      1  0.5795360000000  0.4432210000000  0.4364740000000 1.0
C      1  0.4466420000000  0.4803260000000  0.5847530000000 1.0
C      1  0.4737570000000  0.4284070000000  0.4668160000000 1.0
C      1  0.5930210000000  0.4933720000000  0.5780710000000 1.0
C      1  0.4887280000000  0.6302190000000  0.4842310000000 1.0
C      1  0.5256300000000  0.5521690000000  0.5378610000000 1.0
C      1  0.3917730000000  0.4703080000000  0.5106640000000 1.0
C      1  0.4603850000000  0.5103300000000  0.4365040000000 1.0
C      1  0.4542250000000  0.4049210000000  0.5364500000000 1.0
C      1  0.5041610000000  0.4313260000000  0.5386140000000 1.0
C      1  0.4653860000000  0.4752710000000  0.5258580000000 1.0
C      1  0.4709910000000  0.4707510000000  0.5961440000000 1.0
C      1  0.5055370000000  0.5365190000000  0.6081650000000 1.0
C      1  0.4851250000000  0.6018370000000  0.4775100000000 1.0
C      1  0.5179860000000  0.5021040000000  0.3939540000000 1.0
C      1  0.5719010000000  0.5417650000000  0.5802650000000 1.0
C      1  0.4761370000000  0.5752320000000  0.4386170000000 1.0
C      1  0.3797130000000  0.4968600000000  0.5100150000000 1.0
C      1  0.4792590000000  0.5882030000000  0.5048270000000 1.0
C      1  0.4200860000000  0.5610040000000  0.5293410000000 1.0
C      1  0.5191430000000  0.4734420000000  0.6036260000000 1.0
C      1  0.5619650000000  0.4658510000000  0.4351560000000 1.0
C      1  0.5567550000000  0.5607930000000  0.4842040000000 1.0
C      1  0.5948810000000  0.5521730000000  0.4613140000000 1.0
C      1  0.5276940000000  0.4262740000000  0.4451050000000 1.0
C      1  0.4197980000000  0.5123760000000  0.5620450000000 1.0
C      1  0.4820110000000  0.3897840000000  0.4966920000000 1.0
C      1  0.4420570000000  0.5799470000000  0.5264390000000 1.0
C      1  0.5831880000000  0.4510210000000  0.5657450000000 1.0
C      1  0.4201610000000  0.5617660000000  0.4677340000000 1.0
C      1  0.4308440000000  0.4268500000000  0.4697260000000 1.0
C      1  0.5209770000000  0.4489870000000  0.4641020000000 1.0
C      1  0.5143140000000  0.4580040000000  0.4093620000000 1.0
C      1  0.5723180000000  0.4756950000000  0.5923570000000 1.0
C      1  0.5251150000000  0.5178410000000  0.4685020000000 1.0
C      1  0.4630010000000  0.5920690000000  0.4586590000000 1.0
C      1  0.4927310000000  0.4778770000000  0.5434760000000 1.0
C      1  0.5893880000000  0.4649030000000  0.4841130000000 1.0
C      1  0.5413270000000  0.4928510000000  0.5312890000000 1.0
C      1  0.5267640000000  0.4918740000000  0.4564150000000 1.0
C      1  0.4149210000000  0.5054160000000  0.4454310000000 1.0
C      1  0.3959010000000  0.5094320000000  0.4901790000000 1.0
C      1  0.5108400000000  0.5906130000000  0.4671590000000 1.0
C      1  0.5025990000000  0.6279960000000  0.5089920000000 1.0
C      1  0.4419910000000  0.5089300000000  0.5809380000000 1.0
C      1  0.5479370000000  0.5134490000000  0.5127440000000 1.0
C      1  0.5091820000000  0.4432030000000  0.4908760000000 1.0
C      1  0.4410330000000  0.5815080000000  0.4747900000000 1.0
C      1  0.5127730000000  0.5289050000000  0.3860900000000 1.0
C      1  0.5933370000000  0.5537230000000  0.5298610000000 1.0
C      1  0.5545810000000  0.5247630000000  0.4705240000000 1.0
C      1  0.4563340000000  0.4498430000000  0.4313680000000 1.0
C      1  0.5105430000000  0.5117180000000  0.5641590000000 1.0
C      1  0.5443110000000  0.4851430000000  0.5958380000000 1.0
C      1  0.5626900000000  0.4196230000000  0.4969150000000 1.0
C      1  0.4101660000000  0.5540860000000  0.5025280000000 1.0
C      1  0.4827830000000  0.5521550000000  0.5633190000000 1.0
C      1  0.4367350000000  0.4510690000000  0.4538150000000 1.0
C      1  0.4701850000000  0.4269000000000  0.5490550000000 1.0
C      1  0.4804200000000  0.4422710000000  0.4924530000000 1.0
C      1  0.5654550000000  0.5361810000000  0.4159810000000 1.0
C      1  0.5388580000000  0.5071620000000  0.5777570000000 1.0
C      1  0.5001530000000  0.4801620000000  0.4581890000000 1.0
C      1  0.4740570000000  0.5109700000000  0.5508930000000 1.0
C      1  0.5099220000000  0.5330200000000  0.4482350000000 1.0
C      1  0.5109290000000  0.5422940000000  0.5628060000000 1.0
C      1  0.5849840000000  0.5056950000000  0.4562860000000 1.0
C      1  0.4796960000000  0.5331220000000  0.4500090000000 1.0
C      1  0.4412790000000  0.5023690000000  0.4593140000000 1.0
C      1  0.4812260000000  0.5815270000000  0.5605820000000 1.0
C      1  0.5325080000000  0.5375880000000  0.5134690000000 1.0
C      1  0.4754290000000  0.3962630000000  0.4683410000000 1.0
C      1  0.4658850000000  0.5255470000000  0.5253150000000 1.0
C      1  0.5233890000000  0.3863730000000  0.5317230000000 1.0
C      1  0.4821840000000  0.4433390000000  0.4420210000000 1.0
C      1  0.5200730000000  0.4090820000000  0.5501740000000 1.0
C      1  0.3906190000000  0.4748150000000  0.5397470000000 1.0
C      1  0.4783160000000  0.5408180000000  0.3988280000000 1.0
C      1  0.4611340000000  0.5162780000000  0.3929820000000 1.0
C      1  0.5816120000000  0.5181510000000  0.5626770000000 1.0
C      1  0.4981880000000  0.4812120000000  0.3984780000000 1.0
C      1  0.4200040000000  0.5267900000000  0.4977150000000 1.0
C      1  0.4195750000000  0.4827460000000  0.4237840000000 1.0
C      1  0.5239860000000  0.4406510000000  0.5154980000000 1.0
C      1  0.5644430000000  0.4405240000000  0.5452000000000 1.0
C      1  0.4413700000000  0.5931070000000  0.5011420000000 1.0
C      1  0.5780760000000  0.5775290000000  0.5280840000000 1.0
C      1  0.4434650000000  0.4740830000000  0.4751840000000 1.0
C      1  0.5150140000000  0.5513800000000  0.4031470000000 1.0
C      1  0.5472700000000  0.5319200000000  0.5920100000000 1.0
C      1  0.6096500000000  0.5113100000000  0.4925580000000 1.0
C      1  0.4722200000000  0.4430910000000  0.5959250000000 1.0
C      1  0.5434500000000  0.4652210000000  0.4101370000000 1.0
C      1  0.4309710000000  0.4629130000000  0.5664130000000 1.0
C      1  0.5448620000000  0.4694750000000  0.4621430000000 1.0
C      1  0.4312330000000  0.4311300000000  0.5700490000000 1.0
C      1  0.5826510000000  0.4211830000000  0.4514940000000 1.0
C      1  0.4110620000000  0.4307000000000  0.5143160000000 1.0
C      1  0.5970380000000  0.5273890000000  0.5385570000000 1.0
C      1  0.4458990000000  0.4015980000000  0.4661360000000 1.0
C      1  0.4610840000000  0.4060300000000  0.5090190000000 1.0
C      1  0.4183760000000  0.5423200000000  0.4452490000000 1.0
C      1  0.4222440000000  0.4708230000000  0.5009740000000 1.0
C      1  0.5655040000000  0.5082570000000  0.4122720000000 1.0
C      1  0.5289300000000  0.6190450000000  0.5066840000000 1.0
C      1  0.5389510000000  0.4025300000000  0.4559030000000 1.0
C      1  0.5528330000000  0.5518660000000  0.4354890000000 1.0
C      1  0.5776340000000  0.4912900000000  0.4321760000000 1.0
C      1  0.5417580000000  0.4267970000000  0.5625220000000 1.0
C      1  0.4845200000000  0.5352330000000  0.5020760000000 1.0
C      1  0.4266910000000  0.4150130000000  0.5443280000000 1.0
C      1  0.5448310000000  0.4924350000000  0.3988560000000 1.0
C      1  0.4627860000000  0.5575950000000  0.4187640000000 1.0
C      1  0.4484470000000  0.4736950000000  0.4157660000000 1.0
C      1  0.5130380000000  0.4989070000000  0.5363790000000 1.0
C      1  0.4106890000000  0.4595060000000  0.4417400000000 1.0
C      1  0.5234710000000  0.5485480000000  0.5901270000000 1.0
C      1  0.5056760000000  0.5786680000000  0.4407490000000 1.0
C      1  0.5478420000000  0.4638610000000  0.5185710000000 1.0
C      1  0.5563440000000  0.5028630000000  0.5550860000000 1.0
C      1  0.4419890000000  0.5244450000000  0.4780210000000 1.0
C      1  0.5056210000000  0.5961330000000  0.5487890000000 1.0
C      1  0.6005040000000  0.5061160000000  0.5194990000000 1.0
C      1  0.4579390000000  0.5927460000000  0.5468670000000 1.0
C      1  0.4675690000000  0.5262510000000  0.5788970000000 1.0
C      1  0.3963410000000  0.4941120000000  0.4655710000000 1.0
C      1  0.5597970000000  0.5838980000000  0.5505310000000 1.0
C      1  0.4689890000000  0.4883700000000  0.3990520000000 1.0
C      1  0.4058800000000  0.4335510000000  0.4849660000000 1.0
C      1  0.4917480000000  0.4889300000000  0.4850170000000 1.0
C      1  0.4866350000000  0.4968420000000  0.4384080000000 1.0
C      1  0.5977360000000  0.4787910000000  0.5293670000000 1.0
END
