TITL C-950521-2237-66 2.33541131102116e-07 125000 -1017.31358297809 0 0 164 (C1) n - 1
REM
REM in /home/bkarasulu/work/CARBON/AIRSS/Generating-Clusters/EDIP-Nigel-Params/with-SteepDescent/Only-C1/SD-CG/HFTN-CG
REM
REM
REM
REM
REM
REM ./C.cell (11c1c37f851c82e70ff6c80c92926a4b)
REM
REM compiler GCC version 9.2.1 20190827 (Red Hat 9.2.1-1)
REM options -cpp -mtune=generic -march=x86-64 -g -O0 -fpre-include=/usr/include/finclude/math-vector-fortran.h
REM seed -565581303 -1306758365 -1386728509 -815944904 -1378186467 -1661067610 1319004511 -1020397600 -1567574271 878521052 361298995 -744533173 839442117 496892484 -1237977335 -1170445285 1575836359 423617841 -332096843 1786763074 -622238204 -1894848656 -13552346 1402266725 1041695504 -723103020 -1055489061 1651655841 1414202043 -540561977 1905763411 1346214029 667749553
REM
CELL 1.54180   50.00000   50.00000   50.00000   90.00000   90.00000   90.00000
LATT -1
SFAC C  
C      1  0.5565080000000  0.4946910000000  0.5575230000000 1.0
C      1  0.4583080000000  0.5652740000000  0.4684740000000 1.0
C      1  0.5207410000000  0.5976450000000  0.4629100000000 1.0
C      1  0.4276650000000  0.4535120000000  0.5284450000000 1.0
C      1  0.5241700000000  0.4287670000000  0.5466430000000 1.0
C      1  0.4917680000000  0.4285610000000  0.4272980000000 1.0
C      1  0.4748950000000  0.5354000000000  0.4055900000000 1.0
C      1  0.4719930000000  0.4706980000000  0.4462780000000 1.0
C      1  0.5496400000000  0.5305330000000  0.4220160000000 1.0
C      1  0.4097290000000  0.4519340000000  0.5524390000000 1.0
C      1  0.5498040000000  0.4310700000000  0.4335900000000 1.0
C      1  0.4794310000000  0.5995330000000  0.4943490000000 1.0
C      1  0.4501880000000  0.4267030000000  0.5253020000000 1.0
C      1  0.4634620000000  0.3975400000000  0.4686780000000 1.0
C      1  0.5414550000000  0.4460240000000  0.5987360000000 1.0
C      1  0.5542950000000  0.4484220000000  0.5733470000000 1.0
C      1  0.5531530000000  0.5580930000000  0.5846460000000 1.0
C      1  0.4467470000000  0.4783580000000  0.5997860000000 1.0
C      1  0.5515670000000  0.4259540000000  0.5555450000000 1.0
C      1  0.4613850000000  0.4183390000000  0.5524400000000 1.0
C      1  0.4429390000000  0.5441240000000  0.5142940000000 1.0
C      1  0.5380940000000  0.5833410000000  0.4433500000000 1.0
C      1  0.5492080000000  0.5000420000000  0.5055390000000 1.0
C      1  0.5525750000000  0.5758780000000  0.5290280000000 1.0
C      1  0.4826860000000  0.5893860000000  0.5517290000000 1.0
C      1  0.4586610000000  0.5792240000000  0.5369740000000 1.0
C      1  0.5149600000000  0.4269260000000  0.5171340000000 1.0
C      1  0.4033670000000  0.5143680000000  0.5112580000000 1.0
C      1  0.5521570000000  0.4658990000000  0.4633710000000 1.0
C      1  0.5432940000000  0.4075200000000  0.4817160000000 1.0
C      1  0.5947890000000  0.5276780000000  0.4841930000000 1.0
C      1  0.4476510000000  0.5264810000000  0.5964420000000 1.0
C      1  0.4526460000000  0.5588340000000  0.5616920000000 1.0
C      1  0.4289530000000  0.4742670000000  0.5763770000000 1.0
C      1  0.5661900000000  0.5081260000000  0.5312580000000 1.0
C      1  0.4881410000000  0.4600370000000  0.5259760000000 1.0
C      1  0.4072920000000  0.4988030000000  0.4382530000000 1.0
C      1  0.5759380000000  0.4208230000000  0.5137780000000 1.0
C      1  0.4625460000000  0.4828000000000  0.5592340000000 1.0
C      1  0.5093570000000  0.4688260000000  0.4817340000000 1.0
C      1  0.5959960000000  0.5030890000000  0.5279650000000 1.0
C      1  0.4736100000000  0.4396640000000  0.5121560000000 1.0
C      1  0.5540730000000  0.4044740000000  0.5245090000000 1.0
C      1  0.5074620000000  0.4111250000000  0.5631510000000 1.0
C      1  0.4239460000000  0.5245690000000  0.4347230000000 1.0
C      1  0.3936440000000  0.4775550000000  0.5500590000000 1.0
C      1  0.4070320000000  0.4642770000000  0.5066250000000 1.0
C      1  0.4990480000000  0.5194660000000  0.5643640000000 1.0
C      1  0.5172230000000  0.4961890000000  0.4713510000000 1.0
C      1  0.4549060000000  0.5461480000000  0.4436700000000 1.0
C      1  0.5361910000000  0.4543110000000  0.4194070000000 1.0
C      1  0.4548150000000  0.5128110000000  0.4135900000000 1.0
C      1  0.4791730000000  0.5459430000000  0.5168770000000 1.0
C      1  0.4628240000000  0.3987420000000  0.5016690000000 1.0
C      1  0.4711510000000  0.5159900000000  0.4750870000000 1.0
C      1  0.5985960000000  0.4497280000000  0.5014940000000 1.0
C      1  0.5271800000000  0.5955420000000  0.4912310000000 1.0
C      1  0.4528200000000  0.4974700000000  0.5151610000000 1.0
C      1  0.5763400000000  0.4500460000000  0.4522680000000 1.0
C      1  0.5552470000000  0.5006140000000  0.4138330000000 1.0
C      1  0.4156510000000  0.5373200000000  0.4649510000000 1.0
C      1  0.4736380000000  0.5150660000000  0.5255530000000 1.0
C      1  0.5050880000000  0.6012120000000  0.5091010000000 1.0
C      1  0.4633740000000  0.4362310000000  0.4319280000000 1.0
C      1  0.4499130000000  0.4916080000000  0.4454430000000 1.0
C      1  0.6061160000000  0.4812630000000  0.5423140000000 1.0
C      1  0.5757530000000  0.5203790000000  0.4619990000000 1.0
C      1  0.5068760000000  0.4500380000000  0.4159620000000 1.0
C      1  0.5134580000000  0.4517210000000  0.5934660000000 1.0
C      1  0.6026720000000  0.5025780000000  0.4994120000000 1.0
C      1  0.4468110000000  0.5302690000000  0.5681090000000 1.0
C      1  0.5362080000000  0.5506770000000  0.5163730000000 1.0
C      1  0.5290230000000  0.5651500000000  0.5704810000000 1.0
C      1  0.4789740000000  0.5686690000000  0.5748260000000 1.0
C      1  0.5957200000000  0.4723860000000  0.4585100000000 1.0
C      1  0.4548940000000  0.5884530000000  0.5090070000000 1.0
C      1  0.5588910000000  0.5661580000000  0.4563050000000 1.0
C      1  0.5089220000000  0.4975650000000  0.5814370000000 1.0
C      1  0.5484790000000  0.5178550000000  0.4801430000000 1.0
C      1  0.5847370000000  0.5515350000000  0.5453120000000 1.0
C      1  0.4895900000000  0.4835600000000  0.3874140000000 1.0
C      1  0.5388410000000  0.4938880000000  0.3879300000000 1.0
C      1  0.5189040000000  0.4996900000000  0.5153250000000 1.0
C      1  0.3941500000000  0.4861140000000  0.5209250000000 1.0
C      1  0.5293050000000  0.4481680000000  0.4714930000000 1.0
C      1  0.5377600000000  0.4336690000000  0.4957090000000 1.0
C      1  0.4487750000000  0.5038350000000  0.6106770000000 1.0
C      1  0.5334350000000  0.4140420000000  0.4525100000000 1.0
C      1  0.4103700000000  0.4741260000000  0.4797060000000 1.0
C      1  0.5035380000000  0.5314790000000  0.3967560000000 1.0
C      1  0.4711600000000  0.4393380000000  0.4829970000000 1.0
C      1  0.4730880000000  0.4397830000000  0.5726870000000 1.0
C      1  0.4358570000000  0.4353350000000  0.4712820000000 1.0
C      1  0.5178210000000  0.4966290000000  0.4426120000000 1.0
C      1  0.5538000000000  0.5890290000000  0.5016070000000 1.0
C      1  0.5126440000000  0.4708300000000  0.5697950000000 1.0
C      1  0.5835820000000  0.4955930000000  0.4166080000000 1.0
C      1  0.3945390000000  0.5213840000000  0.4815330000000 1.0
C      1  0.5989180000000  0.5609730000000  0.5229710000000 1.0
C      1  0.5062540000000  0.5886590000000  0.5351490000000 1.0
C      1  0.5215780000000  0.5247170000000  0.4359480000000 1.0
C      1  0.5892820000000  0.5538790000000  0.4972580000000 1.0
C      1  0.5869620000000  0.4969180000000  0.4448460000000 1.0
C      1  0.5012880000000  0.5417540000000  0.4499350000000 1.0
C      1  0.4044340000000  0.5337880000000  0.5355420000000 1.0
C      1  0.5909840000000  0.4756030000000  0.4883840000000 1.0
C      1  0.5049650000000  0.4583410000000  0.3880850000000 1.0
C      1  0.5154610000000  0.5188240000000  0.5395670000000 1.0
C      1  0.6034500000000  0.4550610000000  0.5485560000000 1.0
C      1  0.4950380000000  0.5685870000000  0.4361510000000 1.0
C      1  0.5043010000000  0.4183140000000  0.4511800000000 1.0
C      1  0.5612880000000  0.4767490000000  0.4907210000000 1.0
C      1  0.5781560000000  0.5602350000000  0.5711850000000 1.0
C      1  0.5608690000000  0.5380810000000  0.5347400000000 1.0
C      1  0.5038880000000  0.5494590000000  0.5792840000000 1.0
C      1  0.5314570000000  0.5847790000000  0.5485080000000 1.0
C      1  0.4876210000000  0.4141970000000  0.4756450000000 1.0
C      1  0.5013350000000  0.4986690000000  0.6092300000000 1.0
C      1  0.5278660000000  0.5488850000000  0.4048880000000 1.0
C      1  0.5441020000000  0.5325990000000  0.5972790000000 1.0
C      1  0.5103890000000  0.4708600000000  0.5118640000000 1.0
C      1  0.4406440000000  0.5157150000000  0.4744170000000 1.0
C      1  0.4198830000000  0.4562980000000  0.4603270000000 1.0
C      1  0.4149450000000  0.5678190000000  0.4723490000000 1.0
C      1  0.5362530000000  0.5443510000000  0.4870930000000 1.0
C      1  0.4840320000000  0.5612950000000  0.4893710000000 1.0
C      1  0.4970120000000  0.4270960000000  0.5854610000000 1.0
C      1  0.4283310000000  0.5762900000000  0.4984040000000 1.0
C      1  0.5685310000000  0.5423620000000  0.4427040000000 1.0
C      1  0.5147110000000  0.5342120000000  0.6047450000000 1.0
C      1  0.4272800000000  0.5855530000000  0.4539770000000 1.0
C      1  0.4687490000000  0.4595800000000  0.6011370000000 1.0
C      1  0.5414060000000  0.4811990000000  0.4348570000000 1.0
C      1  0.5106350000000  0.5041970000000  0.3892590000000 1.0
C      1  0.4650640000000  0.4848790000000  0.4049480000000 1.0
C      1  0.5202130000000  0.5736080000000  0.4205410000000 1.0
C      1  0.5071710000000  0.5434830000000  0.4793340000000 1.0
C      1  0.4210740000000  0.5566840000000  0.5304820000000 1.0
C      1  0.4818700000000  0.4638630000000  0.4726720000000 1.0
C      1  0.4696660000000  0.5602860000000  0.4207870000000 1.0
C      1  0.4915750000000  0.5911550000000  0.4579290000000 1.0
C      1  0.5091000000000  0.5449490000000  0.5289380000000 1.0
C      1  0.4086650000000  0.4958110000000  0.5688660000000 1.0
C      1  0.5703680000000  0.5723240000000  0.4834030000000 1.0
C      1  0.4483680000000  0.4604010000000  0.4146610000000 1.0
C      1  0.4481120000000  0.4178800000000  0.4522680000000 1.0
C      1  0.5510970000000  0.5106350000000  0.5805270000000 1.0
C      1  0.4986760000000  0.5154410000000  0.4888500000000 1.0
C      1  0.4193080000000  0.5208760000000  0.5576840000000 1.0
C      1  0.4854930000000  0.4629610000000  0.5556090000000 1.0
C      1  0.5895960000000  0.4427850000000  0.5273770000000 1.0
C      1  0.5347040000000  0.4648060000000  0.3846390000000 1.0
C      1  0.4446730000000  0.4783110000000  0.5352440000000 1.0
C      1  0.4258050000000  0.4735920000000  0.4363710000000 1.0
C      1  0.5407580000000  0.4689790000000  0.5562770000000 1.0
C      1  0.4931990000000  0.4003590000000  0.5162030000000 1.0
C      1  0.4850990000000  0.4009780000000  0.5462430000000 1.0
C      1  0.3958250000000  0.4959670000000  0.4662730000000 1.0
C      1  0.5308020000000  0.3929190000000  0.5075690000000 1.0
C      1  0.4536220000000  0.5946580000000  0.4592180000000 1.0
C      1  0.4703750000000  0.5124450000000  0.5554320000000 1.0
C      1  0.4955320000000  0.4690420000000  0.6126740000000 1.0
C      1  0.4341060000000  0.5164600000000  0.5038730000000 1.0
C      1  0.4758070000000  0.5267490000000  0.4493380000000 1.0
END
