TITL C-951343-2256-506 -3.26287347814672e-06 125000 -812.550787698918 0 0 131 (C1) n - 1
REM
REM in /home/bkarasulu/work/CARBON/AIRSS/Generating-Clusters/EDIP-Nigel-Params/with-SteepDescent/Only-C1/SD-CG/HFTN-CG
REM
REM
REM
REM
REM
REM ./C.cell (11c1c37f851c82e70ff6c80c92926a4b)
REM
REM compiler GCC version 9.2.1 20190827 (Red Hat 9.2.1-1)
REM options -cpp -mtune=generic -march=x86-64 -g -O0 -fpre-include=/usr/include/finclude/math-vector-fortran.h
REM seed 1353087479 -803819470 1326110788 -424452445 -1759166138 1643015284 -1542836063 1964549583 1115770262 1690533215 212984035 608333015 -1169912294 1212533782 -818137930 -503495521 779937116 -802513255 1480318643 -1946105638 562141700 517934694 -263390084 719305471 35932373 663155451 749824274 2088412580 -1167546773 -96829229 -1848870174 28500775 1820789900
REM
CELL 1.54180   50.00000   50.00000   50.00000   90.00000   90.00000   90.00000
LATT -1
SFAC C  
C      1  0.5779600000000  0.5147860000000  0.5659620000000 1.0
C      1  0.4557350000000  0.4810990000000  0.5088890000000 1.0
C      1  0.5312770000000  0.5170020000000  0.4265330000000 1.0
C      1  0.4808280000000  0.4636540000000  0.4147650000000 1.0
C      1  0.4634680000000  0.5906760000000  0.5355000000000 1.0
C      1  0.5722920000000  0.5179340000000  0.5157060000000 1.0
C      1  0.4516350000000  0.5787710000000  0.5131990000000 1.0
C      1  0.5347820000000  0.5603600000000  0.5280680000000 1.0
C      1  0.4558240000000  0.4793150000000  0.4109800000000 1.0
C      1  0.4978450000000  0.5306170000000  0.5091320000000 1.0
C      1  0.5036190000000  0.4155430000000  0.5404170000000 1.0
C      1  0.5945620000000  0.5148850000000  0.4681590000000 1.0
C      1  0.5842160000000  0.4734630000000  0.4412430000000 1.0
C      1  0.5523830000000  0.4493260000000  0.4149310000000 1.0
C      1  0.4232270000000  0.5087370000000  0.5378470000000 1.0
C      1  0.5917010000000  0.5313010000000  0.4945490000000 1.0
C      1  0.5143270000000  0.4533950000000  0.4478530000000 1.0
C      1  0.5620610000000  0.5181780000000  0.4271250000000 1.0
C      1  0.4851980000000  0.5351780000000  0.4598910000000 1.0
C      1  0.5082590000000  0.5943840000000  0.5010980000000 1.0
C      1  0.5072630000000  0.5582070000000  0.5792280000000 1.0
C      1  0.5418560000000  0.4574820000000  0.4605530000000 1.0
C      1  0.4449200000000  0.5492370000000  0.5502380000000 1.0
C      1  0.4527680000000  0.4712190000000  0.4585790000000 1.0
C      1  0.5821150000000  0.5599390000000  0.4825510000000 1.0
C      1  0.5488510000000  0.4830520000000  0.4767120000000 1.0
C      1  0.5323800000000  0.5576310000000  0.4825850000000 1.0
C      1  0.5411500000000  0.4400240000000  0.4859400000000 1.0
C      1  0.5203030000000  0.4163630000000  0.4811040000000 1.0
C      1  0.4365450000000  0.4697770000000  0.4335770000000 1.0
C      1  0.4672670000000  0.5336190000000  0.5898470000000 1.0
C      1  0.4088000000000  0.5112200000000  0.4733970000000 1.0
C      1  0.5485140000000  0.4521050000000  0.5764440000000 1.0
C      1  0.5329900000000  0.4949240000000  0.5650820000000 1.0
C      1  0.5839420000000  0.4753930000000  0.5443870000000 1.0
C      1  0.5010120000000  0.4953640000000  0.4546050000000 1.0
C      1  0.5091570000000  0.5737390000000  0.5336130000000 1.0
C      1  0.4428220000000  0.4456110000000  0.5656440000000 1.0
C      1  0.5070880000000  0.5013330000000  0.5773940000000 1.0
C      1  0.4932330000000  0.5555090000000  0.5529620000000 1.0
C      1  0.4855440000000  0.5642600000000  0.4680760000000 1.0
C      1  0.4955320000000  0.4462140000000  0.5787980000000 1.0
C      1  0.5927350000000  0.4847040000000  0.4692620000000 1.0
C      1  0.5065570000000  0.4270680000000  0.4341900000000 1.0
C      1  0.4169230000000  0.5221400000000  0.4284800000000 1.0
C      1  0.5742150000000  0.4740330000000  0.4912540000000 1.0
C      1  0.4926080000000  0.4816220000000  0.4801000000000 1.0
C      1  0.5129550000000  0.5303990000000  0.4095540000000 1.0
C      1  0.5515890000000  0.5833580000000  0.5183860000000 1.0
C      1  0.4129260000000  0.4805390000000  0.5416340000000 1.0
C      1  0.4662140000000  0.5691440000000  0.5539860000000 1.0
C      1  0.5045080000000  0.4769680000000  0.4306430000000 1.0
C      1  0.5465280000000  0.5455790000000  0.5500090000000 1.0
C      1  0.4226070000000  0.4516800000000  0.5095840000000 1.0
C      1  0.4638840000000  0.4895150000000  0.4808730000000 1.0
C      1  0.4040910000000  0.5217940000000  0.5193170000000 1.0
C      1  0.5033360000000  0.4577240000000  0.5518280000000 1.0
C      1  0.5413510000000  0.5280020000000  0.5962860000000 1.0
C      1  0.4442980000000  0.5509070000000  0.5182080000000 1.0
C      1  0.3978940000000  0.5007210000000  0.4989470000000 1.0
C      1  0.4368330000000  0.5515200000000  0.4597460000000 1.0
C      1  0.4015510000000  0.4737710000000  0.5139900000000 1.0
C      1  0.5787610000000  0.4881700000000  0.5186660000000 1.0
C      1  0.4610140000000  0.5066890000000  0.4076220000000 1.0
C      1  0.5552820000000  0.5059350000000  0.5808080000000 1.0
C      1  0.5691780000000  0.5255930000000  0.4549900000000 1.0
C      1  0.4659870000000  0.5296230000000  0.5056590000000 1.0
C      1  0.4775150000000  0.4242060000000  0.5384140000000 1.0
C      1  0.4171010000000  0.5448590000000  0.5060360000000 1.0
C      1  0.4775900000000  0.4369110000000  0.4287010000000 1.0
C      1  0.5117960000000  0.5771390000000  0.4757920000000 1.0
C      1  0.5825600000000  0.4303170000000  0.5143640000000 1.0
C      1  0.5274320000000  0.4591300000000  0.5073280000000 1.0
C      1  0.4634250000000  0.5204410000000  0.4768500000000 1.0
C      1  0.5246960000000  0.5851920000000  0.4487210000000 1.0
C      1  0.4445500000000  0.4631560000000  0.5871760000000 1.0
C      1  0.5028640000000  0.4792440000000  0.5100220000000 1.0
C      1  0.5727930000000  0.4919120000000  0.4190000000000 1.0
C      1  0.4030470000000  0.5047470000000  0.4456660000000 1.0
C      1  0.4705400000000  0.4165870000000  0.4950580000000 1.0
C      1  0.4935230000000  0.4525860000000  0.4708020000000 1.0
C      1  0.4694040000000  0.4324710000000  0.5647790000000 1.0
C      1  0.4055180000000  0.4763280000000  0.4376670000000 1.0
C      1  0.5454970000000  0.5196920000000  0.5017340000000 1.0
C      1  0.4383220000000  0.5399340000000  0.4326950000000 1.0
C      1  0.4463650000000  0.5899430000000  0.4885170000000 1.0
C      1  0.4968520000000  0.4310720000000  0.4922280000000 1.0
C      1  0.5705180000000  0.5304770000000  0.5437880000000 1.0
C      1  0.4942970000000  0.5179880000000  0.5511590000000 1.0
C      1  0.4647170000000  0.4807110000000  0.5934320000000 1.0
C      1  0.5249380000000  0.4314550000000  0.5799620000000 1.0
C      1  0.4775450000000  0.5803260000000  0.4446570000000 1.0
C      1  0.5124550000000  0.4088300000000  0.4549100000000 1.0
C      1  0.5242360000000  0.4915840000000  0.4126310000000 1.0
C      1  0.5361030000000  0.5501720000000  0.5771660000000 1.0
C      1  0.5721460000000  0.5557050000000  0.4540200000000 1.0
C      1  0.5303270000000  0.6032840000000  0.5169410000000 1.0
C      1  0.4680530000000  0.4459600000000  0.4568980000000 1.0
C      1  0.4161150000000  0.5393530000000  0.4770130000000 1.0
C      1  0.5637480000000  0.4511430000000  0.4408720000000 1.0
C      1  0.4110630000000  0.4563490000000  0.4595870000000 1.0
C      1  0.5563000000000  0.5750650000000  0.4904690000000 1.0
C      1  0.4668510000000  0.5070020000000  0.5500140000000 1.0
C      1  0.5451920000000  0.5125200000000  0.4726100000000 1.0
C      1  0.5719710000000  0.4430600000000  0.4921170000000 1.0
C      1  0.5195140000000  0.5180600000000  0.4552620000000 1.0
C      1  0.4269980000000  0.4433420000000  0.4813420000000 1.0
C      1  0.5503930000000  0.5726720000000  0.4452680000000 1.0
C      1  0.5026070000000  0.5799000000000  0.4301570000000 1.0
C      1  0.4775630000000  0.4659420000000  0.5241140000000 1.0
C      1  0.4520910000000  0.4276590000000  0.4742560000000 1.0
C      1  0.4705410000000  0.4775060000000  0.5550660000000 1.0
C      1  0.5065040000000  0.5070930000000  0.5247090000000 1.0
C      1  0.5501440000000  0.4765420000000  0.4071980000000 1.0
C      1  0.4525600000000  0.5069120000000  0.5236370000000 1.0
C      1  0.5126930000000  0.5196280000000  0.6008020000000 1.0
C      1  0.5498680000000  0.4128660000000  0.5439690000000 1.0
C      1  0.5270430000000  0.5417600000000  0.5059150000000 1.0
C      1  0.4909510000000  0.5445290000000  0.4227160000000 1.0
C      1  0.5255960000000  0.4125570000000  0.5572220000000 1.0
C      1  0.5454660000000  0.4608940000000  0.5290140000000 1.0
C      1  0.5763930000000  0.4510040000000  0.5590580000000 1.0
C      1  0.5636650000000  0.4364820000000  0.5352970000000 1.0
C      1  0.4600530000000  0.4113850000000  0.5207230000000 1.0
C      1  0.4515100000000  0.5254630000000  0.5676780000000 1.0
C      1  0.5325950000000  0.4674360000000  0.5549120000000 1.0
C      1  0.4929320000000  0.5417350000000  0.5990660000000 1.0
C      1  0.4639410000000  0.5305280000000  0.4216620000000 1.0
C      1  0.4340020000000  0.4586320000000  0.5401010000000 1.0
C      1  0.4928640000000  0.4752600000000  0.5908360000000 1.0
C      1  0.4444750000000  0.5793370000000  0.4630440000000 1.0
END
