TITL C-951336-9012-691 2.28585519212637e-07 125000 -667.30442404139 0 0 107 (C1) n - 1
REM
REM in /home/bkarasulu/work/CARBON/AIRSS/Generating-Clusters/EDIP-Nigel-Params/with-SteepDescent/Only-C1/SD-CG/HFTN-CG
REM
REM
REM
REM
REM
REM ./C.cell (11c1c37f851c82e70ff6c80c92926a4b)
REM
REM compiler GCC version 9.2.1 20190827 (Red Hat 9.2.1-1)
REM options -cpp -mtune=generic -march=x86-64 -g -O0 -fpre-include=/usr/include/finclude/math-vector-fortran.h
REM seed 1822950444 1059429903 1475423813 -1775286034 -1871122024 -1132533122 291296990 1583491669 -1851066444 -2103174742 2049543315 350450767 -198645361 794382935 2900191 1623411867 2107521625 594044562 1920754197 -530503453 -194863131 -100757195 -2050052363 1766401171 986791985 2097841038 -1437815358 1689629907 -82793110 1442298544 462275907 -1938012893 -304706432
REM
CELL 1.54180   50.00000   50.00000   50.00000   90.00000   90.00000   90.00000
LATT -1
SFAC C  
C      1  0.5743310000000  0.5501280000000  0.5166090000000 1.0
C      1  0.5523810000000  0.4315300000000  0.5265950000000 1.0
C      1  0.5295220000000  0.4368530000000  0.5663890000000 1.0
C      1  0.4773650000000  0.5345770000000  0.5863200000000 1.0
C      1  0.5344600000000  0.5706870000000  0.5277300000000 1.0
C      1  0.5386090000000  0.5743240000000  0.4989800000000 1.0
C      1  0.5488460000000  0.4278370000000  0.4981690000000 1.0
C      1  0.4640170000000  0.4201140000000  0.5541780000000 1.0
C      1  0.5700530000000  0.5515010000000  0.4679940000000 1.0
C      1  0.4659230000000  0.4343930000000  0.4385610000000 1.0
C      1  0.5480550000000  0.5317570000000  0.5562930000000 1.0
C      1  0.4924020000000  0.5914290000000  0.4959920000000 1.0
C      1  0.5817170000000  0.4628900000000  0.4921180000000 1.0
C      1  0.4382080000000  0.5225890000000  0.5588520000000 1.0
C      1  0.4586520000000  0.4631930000000  0.4335360000000 1.0
C      1  0.4288260000000  0.4560740000000  0.4942200000000 1.0
C      1  0.5592350000000  0.5039390000000  0.4572770000000 1.0
C      1  0.4474830000000  0.5717020000000  0.4846390000000 1.0
C      1  0.5025080000000  0.4835440000000  0.4079430000000 1.0
C      1  0.5611360000000  0.4791380000000  0.5079170000000 1.0
C      1  0.4849970000000  0.5072050000000  0.4008890000000 1.0
C      1  0.4717850000000  0.5843810000000  0.4758390000000 1.0
C      1  0.4752070000000  0.4842000000000  0.5812680000000 1.0
C      1  0.5312000000000  0.4173370000000  0.5416400000000 1.0
C      1  0.4265150000000  0.4682290000000  0.5225140000000 1.0
C      1  0.5977510000000  0.5147700000000  0.5295130000000 1.0
C      1  0.5249130000000  0.5404810000000  0.5762910000000 1.0
C      1  0.4269960000000  0.5205760000000  0.5324230000000 1.0
C      1  0.4599420000000  0.4964930000000  0.4872320000000 1.0
C      1  0.5020870000000  0.5183140000000  0.4471630000000 1.0
C      1  0.4964270000000  0.5484750000000  0.5204760000000 1.0
C      1  0.5367210000000  0.4649150000000  0.5579790000000 1.0
C      1  0.5151170000000  0.4661130000000  0.5166750000000 1.0
C      1  0.5315710000000  0.5680460000000  0.4372740000000 1.0
C      1  0.5020410000000  0.4299920000000  0.4743010000000 1.0
C      1  0.5179500000000  0.5863020000000  0.4818010000000 1.0
C      1  0.4498670000000  0.4646370000000  0.5420150000000 1.0
C      1  0.5006330000000  0.4886290000000  0.4546050000000 1.0
C      1  0.5559320000000  0.5547600000000  0.5388910000000 1.0
C      1  0.5581830000000  0.4423540000000  0.4541960000000 1.0
C      1  0.4933290000000  0.4568910000000  0.5364320000000 1.0
C      1  0.4445190000000  0.4327350000000  0.4858750000000 1.0
C      1  0.4476550000000  0.5175600000000  0.4353170000000 1.0
C      1  0.5118400000000  0.5793240000000  0.4532560000000 1.0
C      1  0.5027890000000  0.4586160000000  0.4874150000000 1.0
C      1  0.4938030000000  0.5320760000000  0.5465200000000 1.0
C      1  0.5152960000000  0.4856480000000  0.5615690000000 1.0
C      1  0.5307640000000  0.4959950000000  0.4133330000000 1.0
C      1  0.5604770000000  0.5326880000000  0.4500300000000 1.0
C      1  0.5727340000000  0.5013540000000  0.5250730000000 1.0
C      1  0.5231530000000  0.4163150000000  0.4919190000000 1.0
C      1  0.4677460000000  0.4516720000000  0.5200640000000 1.0
C      1  0.4280250000000  0.5010370000000  0.4890250000000 1.0
C      1  0.4451480000000  0.5469970000000  0.4401800000000 1.0
C      1  0.5378610000000  0.5411260000000  0.4355930000000 1.0
C      1  0.5438210000000  0.4605050000000  0.5280980000000 1.0
C      1  0.4835760000000  0.4063170000000  0.5124980000000 1.0
C      1  0.4617420000000  0.4212290000000  0.5247650000000 1.0
C      1  0.4888970000000  0.5781310000000  0.5233760000000 1.0
C      1  0.4697100000000  0.5133220000000  0.5381430000000 1.0
C      1  0.4428880000000  0.5662130000000  0.5125860000000 1.0
C      1  0.5109730000000  0.4163140000000  0.5186190000000 1.0
C      1  0.5847320000000  0.4908930000000  0.4521790000000 1.0
C      1  0.4996910000000  0.5296390000000  0.4108390000000 1.0
C      1  0.5222140000000  0.4746030000000  0.4684800000000 1.0
C      1  0.4587730000000  0.5083880000000  0.4109990000000 1.0
C      1  0.5417240000000  0.4938080000000  0.4833560000000 1.0
C      1  0.5123390000000  0.5812300000000  0.5450780000000 1.0
C      1  0.5679590000000  0.4397000000000  0.4801240000000 1.0
C      1  0.4557230000000  0.5676880000000  0.5586160000000 1.0
C      1  0.4201090000000  0.4961690000000  0.5172940000000 1.0
C      1  0.5228020000000  0.5140340000000  0.4963750000000 1.0
C      1  0.5512030000000  0.4839300000000  0.4334230000000 1.0
C      1  0.4366230000000  0.4717750000000  0.4490710000000 1.0
C      1  0.4912140000000  0.4701520000000  0.4334750000000 1.0
C      1  0.4224310000000  0.5314400000000  0.4850740000000 1.0
C      1  0.5959090000000  0.4769550000000  0.4727760000000 1.0
C      1  0.4956530000000  0.4402730000000  0.5843790000000 1.0
C      1  0.4779250000000  0.4139970000000  0.4841710000000 1.0
C      1  0.4600080000000  0.5783240000000  0.5333230000000 1.0
C      1  0.5076280000000  0.5621040000000  0.5668480000000 1.0
C      1  0.4400950000000  0.5485700000000  0.4690160000000 1.0
C      1  0.4657440000000  0.5134980000000  0.4601690000000 1.0
C      1  0.5386790000000  0.4606010000000  0.4467350000000 1.0
C      1  0.6006710000000  0.5407450000000  0.5204700000000 1.0
C      1  0.4251640000000  0.5425120000000  0.5130520000000 1.0
C      1  0.4219150000000  0.4756840000000  0.4727800000000 1.0
C      1  0.5031950000000  0.4931200000000  0.5870970000000 1.0
C      1  0.4701260000000  0.4549810000000  0.5865320000000 1.0
C      1  0.5033240000000  0.5233070000000  0.5888870000000 1.0
C      1  0.5646550000000  0.5631320000000  0.4925080000000 1.0
C      1  0.5675200000000  0.5092550000000  0.5526750000000 1.0
C      1  0.5173230000000  0.5105410000000  0.5450110000000 1.0
C      1  0.4665940000000  0.5639780000000  0.4315570000000 1.0
C      1  0.4493570000000  0.4223540000000  0.4596070000000 1.0
C      1  0.5148840000000  0.4968870000000  0.5186990000000 1.0
C      1  0.4840660000000  0.5668560000000  0.4550370000000 1.0
C      1  0.4503830000000  0.4442260000000  0.5654630000000 1.0
C      1  0.4927100000000  0.4318950000000  0.5558030000000 1.0
C      1  0.4960430000000  0.5304110000000  0.4966090000000 1.0
C      1  0.4566590000000  0.5420270000000  0.5689550000000 1.0
C      1  0.4960290000000  0.4367950000000  0.4440660000000 1.0
C      1  0.4718130000000  0.4664820000000  0.4912720000000 1.0
C      1  0.4873300000000  0.5373910000000  0.4671680000000 1.0
C      1  0.5278680000000  0.5255640000000  0.4132170000000 1.0
C      1  0.4746470000000  0.5120700000000  0.5077180000000 1.0
C      1  0.4722350000000  0.4855480000000  0.5510410000000 1.0
END
