TITL C-951341-1326-15 -4.54806976677981e-06 125000 -936.185580572509 0 0 149 (C1) n - 1
REM
REM in /home/bkarasulu/work/CARBON/AIRSS/Generating-Clusters/EDIP-Nigel-Params/with-SteepDescent/Only-C1/SD-CG/HFTN-CG
REM
REM
REM
REM
REM
REM ./C.cell (11c1c37f851c82e70ff6c80c92926a4b)
REM
REM compiler GCC version 9.2.1 20190827 (Red Hat 9.2.1-1)
REM options -cpp -mtune=generic -march=x86-64 -g -O0 -fpre-include=/usr/include/finclude/math-vector-fortran.h
REM seed -1783515107 -1531567928 -2111556107 1140837179 -1871076691 915702893 -576796789 18793019 -1075983909 -1138505425 231960730 174394350 1659368943 -1058658103 -389015614 -1378323190 -1149368999 -557076543 173773724 892085870 1536334573 -1718245871 151323055 -688650833 1734165287 -866629896 -550785259 519998787 -1745351545 -1125647739 -1175884567 661345493 -1174190214
REM
CELL 1.54180   50.00000   50.00000   50.00000   90.00000   90.00000   90.00000
LATT -1
SFAC C  
C      1  0.5749500000000  0.4748550000000  0.4452780000000 1.0
C      1  0.5143020000000  0.4440590000000  0.5057630000000 1.0
C      1  0.4291220000000  0.5662840000000  0.4843610000000 1.0
C      1  0.4167780000000  0.5567260000000  0.5086290000000 1.0
C      1  0.4876560000000  0.4396340000000  0.4942080000000 1.0
C      1  0.5720560000000  0.5780810000000  0.4954590000000 1.0
C      1  0.5329450000000  0.4760390000000  0.5396940000000 1.0
C      1  0.5337410000000  0.4553320000000  0.4852400000000 1.0
C      1  0.4844540000000  0.5667220000000  0.5674630000000 1.0
C      1  0.5499550000000  0.4653010000000  0.5852690000000 1.0
C      1  0.4541800000000  0.5394520000000  0.4965070000000 1.0
C      1  0.4598290000000  0.4575390000000  0.4098800000000 1.0
C      1  0.5586620000000  0.5412680000000  0.4706290000000 1.0
C      1  0.5067190000000  0.4110580000000  0.4375140000000 1.0
C      1  0.4355040000000  0.5487740000000  0.5539060000000 1.0
C      1  0.5864410000000  0.5575290000000  0.5431410000000 1.0
C      1  0.4604640000000  0.4753480000000  0.4747710000000 1.0
C      1  0.4014730000000  0.5154140000000  0.4823810000000 1.0
C      1  0.4679480000000  0.3869000000000  0.4578220000000 1.0
C      1  0.5576120000000  0.5444160000000  0.5789880000000 1.0
C      1  0.4229980000000  0.4319540000000  0.5034420000000 1.0
C      1  0.4392510000000  0.5343610000000  0.4190720000000 1.0
C      1  0.5257640000000  0.5170860000000  0.3919660000000 1.0
C      1  0.4046930000000  0.4450010000000  0.4875590000000 1.0
C      1  0.5560590000000  0.4337820000000  0.5447850000000 1.0
C      1  0.6061930000000  0.5105690000000  0.5277590000000 1.0
C      1  0.5303100000000  0.5700320000000  0.4398590000000 1.0
C      1  0.4314050000000  0.4061770000000  0.4955410000000 1.0
C      1  0.4972320000000  0.5127360000000  0.3966470000000 1.0
C      1  0.4589390000000  0.5201790000000  0.5225710000000 1.0
C      1  0.4587780000000  0.4032010000000  0.5018390000000 1.0
C      1  0.4503560000000  0.5219230000000  0.4734330000000 1.0
C      1  0.4754230000000  0.4212760000000  0.5426650000000 1.0
C      1  0.5029440000000  0.5494780000000  0.5840680000000 1.0
C      1  0.4932720000000  0.5202000000000  0.5819630000000 1.0
C      1  0.5105510000000  0.6152620000000  0.5125690000000 1.0
C      1  0.5377220000000  0.4536280000000  0.5602280000000 1.0
C      1  0.4949910000000  0.4792450000000  0.5987470000000 1.0
C      1  0.4359890000000  0.5205960000000  0.5446310000000 1.0
C      1  0.4913650000000  0.6028440000000  0.5293590000000 1.0
C      1  0.4646400000000  0.6025170000000  0.5166580000000 1.0
C      1  0.5618790000000  0.4595870000000  0.5003590000000 1.0
C      1  0.4460720000000  0.5044990000000  0.5678700000000 1.0
C      1  0.5013290000000  0.5226700000000  0.4688480000000 1.0
C      1  0.4102320000000  0.5120750000000  0.5327040000000 1.0
C      1  0.5353080000000  0.4514300000000  0.4324780000000 1.0
C      1  0.4931640000000  0.4228400000000  0.4166020000000 1.0
C      1  0.5700180000000  0.4219920000000  0.4972160000000 1.0
C      1  0.4441690000000  0.5918940000000  0.5327460000000 1.0
C      1  0.4971250000000  0.5529420000000  0.4710840000000 1.0
C      1  0.5132700000000  0.5920310000000  0.4375850000000 1.0
C      1  0.5364690000000  0.5460010000000  0.5272770000000 1.0
C      1  0.5563270000000  0.4692640000000  0.4234390000000 1.0
C      1  0.5492540000000  0.4216100000000  0.5178300000000 1.0
C      1  0.5866350000000  0.5277060000000  0.5420130000000 1.0
C      1  0.4819770000000  0.5366020000000  0.3980830000000 1.0
C      1  0.5211380000000  0.5468940000000  0.4244900000000 1.0
C      1  0.5882300000000  0.4681370000000  0.4871430000000 1.0
C      1  0.5099570000000  0.4679330000000  0.5231660000000 1.0
C      1  0.5239790000000  0.4073000000000  0.5118480000000 1.0
C      1  0.4457080000000  0.4480330000000  0.5151130000000 1.0
C      1  0.5479720000000  0.5225560000000  0.5417040000000 1.0
C      1  0.6055290000000  0.4837110000000  0.5358440000000 1.0
C      1  0.4795480000000  0.3928110000000  0.4829970000000 1.0
C      1  0.4675260000000  0.5869730000000  0.4914090000000 1.0
C      1  0.5380780000000  0.4984690000000  0.4713710000000 1.0
C      1  0.4716190000000  0.4912970000000  0.5176750000000 1.0
C      1  0.3907410000000  0.4897690000000  0.4840090000000 1.0
C      1  0.4770340000000  0.4803160000000  0.5494160000000 1.0
C      1  0.5668620000000  0.5704420000000  0.5238100000000 1.0
C      1  0.5221370000000  0.5359130000000  0.5005160000000 1.0
C      1  0.4318640000000  0.5668330000000  0.5319810000000 1.0
C      1  0.5638970000000  0.5088500000000  0.5165260000000 1.0
C      1  0.5851930000000  0.4528880000000  0.4621810000000 1.0
C      1  0.5109940000000  0.4425370000000  0.5672520000000 1.0
C      1  0.4477830000000  0.4675970000000  0.5967180000000 1.0
C      1  0.4464600000000  0.4416570000000  0.4300890000000 1.0
C      1  0.5346670000000  0.5629250000000  0.4683890000000 1.0
C      1  0.5272780000000  0.5695830000000  0.5458920000000 1.0
C      1  0.5155080000000  0.5211580000000  0.4403880000000 1.0
C      1  0.5005080000000  0.4688570000000  0.4570550000000 1.0
C      1  0.5783190000000  0.5610770000000  0.5697780000000 1.0
C      1  0.5429930000000  0.4934110000000  0.4150130000000 1.0
C      1  0.4491090000000  0.4828310000000  0.4018410000000 1.0
C      1  0.4979960000000  0.5751370000000  0.5412390000000 1.0
C      1  0.5316050000000  0.5565680000000  0.5813050000000 1.0
C      1  0.4612190000000  0.5478990000000  0.5692460000000 1.0
C      1  0.5171600000000  0.4800840000000  0.4788900000000 1.0
C      1  0.5006930000000  0.4892590000000  0.5051940000000 1.0
C      1  0.4059640000000  0.4845380000000  0.5353310000000 1.0
C      1  0.4461330000000  0.4571550000000  0.5443190000000 1.0
C      1  0.4717780000000  0.5022940000000  0.4370510000000 1.0
C      1  0.4721430000000  0.5039760000000  0.4663030000000 1.0
C      1  0.6033520000000  0.5421170000000  0.4919240000000 1.0
C      1  0.5303890000000  0.5957200000000  0.5094470000000 1.0
C      1  0.4087780000000  0.5279040000000  0.5078970000000 1.0
C      1  0.4222670000000  0.5655050000000  0.4574340000000 1.0
C      1  0.5468170000000  0.5199810000000  0.4903940000000 1.0
C      1  0.5890100000000  0.4972150000000  0.4820350000000 1.0
C      1  0.4545360000000  0.4335740000000  0.5596910000000 1.0
C      1  0.4783770000000  0.5587900000000  0.4953460000000 1.0
C      1  0.5821370000000  0.4697060000000  0.5411550000000 1.0
C      1  0.5110010000000  0.4682110000000  0.6189780000000 1.0
C      1  0.4678260000000  0.4891150000000  0.6066390000000 1.0
C      1  0.4802940000000  0.5324710000000  0.5393900000000 1.0
C      1  0.4459150000000  0.5029030000000  0.4226780000000 1.0
C      1  0.4242030000000  0.4951330000000  0.4421040000000 1.0
C      1  0.4983560000000  0.5012230000000  0.4241210000000 1.0
C      1  0.4887930000000  0.4615720000000  0.5748080000000 1.0
C      1  0.4785340000000  0.4527450000000  0.4679710000000 1.0
C      1  0.5656720000000  0.5249060000000  0.4458970000000 1.0
C      1  0.5826420000000  0.5561310000000  0.4800900000000 1.0
C      1  0.4895170000000  0.4512120000000  0.4109690000000 1.0
C      1  0.4961220000000  0.5092270000000  0.5539940000000 1.0
C      1  0.5325380000000  0.5433720000000  0.3988100000000 1.0
C      1  0.5094520000000  0.4021840000000  0.4859150000000 1.0
C      1  0.5617860000000  0.4903150000000  0.5835300000000 1.0
C      1  0.4868570000000  0.5879040000000  0.4457250000000 1.0
C      1  0.4297950000000  0.4824190000000  0.5769210000000 1.0
C      1  0.4125880000000  0.4704500000000  0.4483060000000 1.0
C      1  0.5454100000000  0.5890680000000  0.5335720000000 1.0
C      1  0.5452070000000  0.5866930000000  0.4850850000000 1.0
C      1  0.5392980000000  0.4365700000000  0.4604390000000 1.0
C      1  0.5848990000000  0.5022420000000  0.4530140000000 1.0
C      1  0.4651990000000  0.4454900000000  0.5841600000000 1.0
C      1  0.5417290000000  0.5069540000000  0.4424810000000 1.0
C      1  0.4755610000000  0.5620120000000  0.4403560000000 1.0
C      1  0.4935800000000  0.5527580000000  0.5216710000000 1.0
C      1  0.5014760000000  0.4210380000000  0.5527400000000 1.0
C      1  0.5088260000000  0.4681220000000  0.4281690000000 1.0
C      1  0.4229830000000  0.5183570000000  0.4608500000000 1.0
C      1  0.5216340000000  0.4122590000000  0.4608490000000 1.0
C      1  0.6040680000000  0.5153640000000  0.4990520000000 1.0
C      1  0.4690590000000  0.4323140000000  0.4451920000000 1.0
C      1  0.4643970000000  0.5503570000000  0.4156680000000 1.0
C      1  0.4195980000000  0.4675930000000  0.5533610000000 1.0
C      1  0.4787490000000  0.6000170000000  0.4693390000000 1.0
C      1  0.5826780000000  0.4423780000000  0.5465770000000 1.0
C      1  0.5596250000000  0.4785960000000  0.5241280000000 1.0
C      1  0.5261240000000  0.5031530000000  0.5498470000000 1.0
C      1  0.5617860000000  0.5171590000000  0.5823550000000 1.0
C      1  0.4205570000000  0.5419290000000  0.4425190000000 1.0
C      1  0.3977350000000  0.4661640000000  0.4714090000000 1.0
C      1  0.4531470000000  0.4095530000000  0.4515120000000 1.0
C      1  0.5678250000000  0.4289670000000  0.4681300000000 1.0
C      1  0.4638830000000  0.5151580000000  0.5901130000000 1.0
C      1  0.4683760000000  0.4279090000000  0.5138600000000 1.0
C      1  0.5347080000000  0.4617980000000  0.6081160000000 1.0
C      1  0.4521110000000  0.4744310000000  0.5023840000000 1.0
END
