TITL C-950532-2784-693 -2.36885602274097e-06 125000 -555.943447180035 0 0 91 (C1) n - 1
REM
REM in /home/bkarasulu/work/CARBON/AIRSS/Generating-Clusters/EDIP-Nigel-Params/with-SteepDescent/Only-C1/SD-CG/HFTN-CG
REM
REM
REM
REM
REM
REM ./C.cell (11c1c37f851c82e70ff6c80c92926a4b)
REM
REM compiler GCC version 9.2.1 20190827 (Red Hat 9.2.1-1)
REM options -cpp -mtune=generic -march=x86-64 -g -O0 -fpre-include=/usr/include/finclude/math-vector-fortran.h
REM seed -1065448913 -768948132 602802628 -1906597162 -818603046 453807658 -1626366407 -144927153 -2105244783 -2114920060 -497768336 -1647052696 -915115465 -213310059 -2083934297 717539435 -1907683663 1646119346 1967090588 -2117531525 934866576 889139149 -1437099656 -1034879977 741309893 34982228 1459332676 2094405753 2054476963 -1613322954 705642401 -1565631613 1552158511
REM
CELL 1.54180   50.00000   50.00000   50.00000   90.00000   90.00000   90.00000
LATT -1
SFAC C  
C      1  0.5341040000000  0.5668540000000  0.5462430000000 1.0
C      1  0.5782850000000  0.4941300000000  0.4417970000000 1.0
C      1  0.4343660000000  0.5061110000000  0.5389550000000 1.0
C      1  0.4918790000000  0.4743180000000  0.5747770000000 1.0
C      1  0.5289880000000  0.4272710000000  0.5087350000000 1.0
C      1  0.5675610000000  0.5499070000000  0.4726140000000 1.0
C      1  0.5072960000000  0.4501960000000  0.5676390000000 1.0
C      1  0.5036970000000  0.4841290000000  0.4172380000000 1.0
C      1  0.5315800000000  0.4498670000000  0.4502030000000 1.0
C      1  0.4409230000000  0.5504600000000  0.5188900000000 1.0
C      1  0.5572240000000  0.5784300000000  0.5311690000000 1.0
C      1  0.4854190000000  0.5765440000000  0.5080720000000 1.0
C      1  0.5349760000000  0.4547740000000  0.5674270000000 1.0
C      1  0.5446120000000  0.5089260000000  0.5136810000000 1.0
C      1  0.4435060000000  0.4559020000000  0.4709530000000 1.0
C      1  0.4628160000000  0.4753680000000  0.5736330000000 1.0
C      1  0.5432860000000  0.4266560000000  0.4613240000000 1.0
C      1  0.4986020000000  0.4515640000000  0.4889980000000 1.0
C      1  0.5115690000000  0.5131990000000  0.4167380000000 1.0
C      1  0.4543260000000  0.5445710000000  0.4501030000000 1.0
C      1  0.5696640000000  0.5644770000000  0.5064300000000 1.0
C      1  0.5274640000000  0.5444590000000  0.4441210000000 1.0
C      1  0.5314560000000  0.4127750000000  0.4830790000000 1.0
C      1  0.5015310000000  0.4983740000000  0.5022700000000 1.0
C      1  0.5126390000000  0.4170040000000  0.5299640000000 1.0
C      1  0.4610050000000  0.4882710000000  0.4790420000000 1.0
C      1  0.4582800000000  0.5705310000000  0.5103640000000 1.0
C      1  0.5486230000000  0.4768660000000  0.5571130000000 1.0
C      1  0.4299150000000  0.4621750000000  0.4955120000000 1.0
C      1  0.4291610000000  0.4578190000000  0.5448580000000 1.0
C      1  0.4402480000000  0.4813090000000  0.5562800000000 1.0
C      1  0.4757300000000  0.4951570000000  0.4532630000000 1.0
C      1  0.4657220000000  0.5385360000000  0.5603100000000 1.0
C      1  0.4777430000000  0.5001040000000  0.5416580000000 1.0
C      1  0.4417980000000  0.5225560000000  0.4341160000000 1.0
C      1  0.4256690000000  0.5346840000000  0.5009030000000 1.0
C      1  0.4950160000000  0.4762460000000  0.4448370000000 1.0
C      1  0.4186060000000  0.4887030000000  0.4919870000000 1.0
C      1  0.5897370000000  0.4879820000000  0.4672090000000 1.0
C      1  0.4839020000000  0.5617150000000  0.5600180000000 1.0
C      1  0.4693790000000  0.4739720000000  0.5237180000000 1.0
C      1  0.4589270000000  0.4976750000000  0.4294610000000 1.0
C      1  0.4759320000000  0.5175100000000  0.5763880000000 1.0
C      1  0.5365690000000  0.5202930000000  0.4291020000000 1.0
C      1  0.5093360000000  0.3966670000000  0.4776650000000 1.0
C      1  0.4824630000000  0.4763980000000  0.4973340000000 1.0
C      1  0.5215510000000  0.5159370000000  0.5676390000000 1.0
C      1  0.4839150000000  0.5694880000000  0.4533640000000 1.0
C      1  0.4112310000000  0.4978640000000  0.4665380000000 1.0
C      1  0.4982990000000  0.4375020000000  0.5433370000000 1.0
C      1  0.4210100000000  0.5087050000000  0.5126240000000 1.0
C      1  0.5684450000000  0.4780940000000  0.5351630000000 1.0
C      1  0.4177380000000  0.5144740000000  0.4463150000000 1.0
C      1  0.4593240000000  0.5190640000000  0.4933730000000 1.0
C      1  0.4975340000000  0.5722690000000  0.4804860000000 1.0
C      1  0.5069500000000  0.4921170000000  0.5525820000000 1.0
C      1  0.5379070000000  0.5373700000000  0.5504480000000 1.0
C      1  0.5058050000000  0.4553500000000  0.4604210000000 1.0
C      1  0.5677240000000  0.5197060000000  0.4690510000000 1.0
C      1  0.4752240000000  0.4214840000000  0.5396810000000 1.0
C      1  0.4582070000000  0.4317070000000  0.4696300000000 1.0
C      1  0.4999820000000  0.5577130000000  0.5831050000000 1.0
C      1  0.5387960000000  0.5629380000000  0.5028470000000 1.0
C      1  0.4915910000000  0.5333620000000  0.4207650000000 1.0
C      1  0.5269240000000  0.5768550000000  0.4793280000000 1.0
C      1  0.4827900000000  0.5183820000000  0.5169810000000 1.0
C      1  0.4827540000000  0.4032290000000  0.4800350000000 1.0
C      1  0.4472730000000  0.5321900000000  0.5399680000000 1.0
C      1  0.5009760000000  0.5293730000000  0.5856060000000 1.0
C      1  0.5005720000000  0.5661070000000  0.5344240000000 1.0
C      1  0.4753350000000  0.4896530000000  0.4066780000000 1.0
C      1  0.5030620000000  0.5387890000000  0.5232780000000 1.0
C      1  0.4930940000000  0.5197920000000  0.4565140000000 1.0
C      1  0.5321510000000  0.4577730000000  0.5076100000000 1.0
C      1  0.4760920000000  0.4286920000000  0.4916110000000 1.0
C      1  0.5495570000000  0.5013000000000  0.5732360000000 1.0
C      1  0.5025650000000  0.5562330000000  0.4340250000000 1.0
C      1  0.5715130000000  0.5076960000000  0.5303870000000 1.0
C      1  0.5270290000000  0.5359000000000  0.5077630000000 1.0
C      1  0.5462200000000  0.5050050000000  0.4832020000000 1.0
C      1  0.4589730000000  0.4281370000000  0.5171800000000 1.0
C      1  0.5357190000000  0.4701690000000  0.4282670000000 1.0
C      1  0.5441990000000  0.5625080000000  0.4590500000000 1.0
C      1  0.5157750000000  0.5123510000000  0.4781200000000 1.0
C      1  0.5497910000000  0.4949550000000  0.4370170000000 1.0
C      1  0.5767740000000  0.4731980000000  0.4869030000000 1.0
C      1  0.4456510000000  0.4552930000000  0.5207390000000 1.0
C      1  0.5625980000000  0.4636690000000  0.5095010000000 1.0
C      1  0.5637630000000  0.5224650000000  0.5553940000000 1.0
C      1  0.4730210000000  0.5368110000000  0.4714890000000 1.0
C      1  0.5230660000000  0.4868940000000  0.5221300000000 1.0
END
