TITL C-950523-3027-758 -5.36516437535209e-06 125000 -1164.628590312 0 0 188 (C1) n - 1
REM
REM in /home/bkarasulu/work/CARBON/AIRSS/Generating-Clusters/EDIP-Nigel-Params/with-SteepDescent/Only-C1/SD-CG/HFTN-CG
REM
REM
REM
REM
REM
REM ./C.cell (11c1c37f851c82e70ff6c80c92926a4b)
REM
REM compiler GCC version 9.2.1 20190827 (Red Hat 9.2.1-1)
REM options -cpp -mtune=generic -march=x86-64 -g -O0 -fpre-include=/usr/include/finclude/math-vector-fortran.h
REM seed -273228924 -1631154344 -1792472215 1710407805 -1248181676 638420274 -879653141 -1857381363 1043326362 -168704235 1061801334 -1847238219 -1905685694 -509091293 264760383 -928167907 -286044573 2012214113 788118523 -833239680 -1669192977 1613153247 1815575306 -1651139471 -687342409 -678889711 1677665438 1274343400 -1291401904 2026183286 1276836396 1107649664 494576913
REM
CELL 1.54180   50.00000   50.00000   50.00000   90.00000   90.00000   90.00000
LATT -1
SFAC C  
C      1  0.5232390000000  0.4976390000000  0.4721480000000 1.0
C      1  0.4868840000000  0.5964890000000  0.5689600000000 1.0
C      1  0.5393960000000  0.5126220000000  0.5753120000000 1.0
C      1  0.3914500000000  0.5041040000000  0.5187620000000 1.0
C      1  0.4397930000000  0.4594740000000  0.5806160000000 1.0
C      1  0.4236720000000  0.4393160000000  0.5374220000000 1.0
C      1  0.5937250000000  0.5528710000000  0.5166030000000 1.0
C      1  0.6083770000000  0.5067620000000  0.5059170000000 1.0
C      1  0.5196470000000  0.4149830000000  0.5866710000000 1.0
C      1  0.5245810000000  0.5763240000000  0.5230730000000 1.0
C      1  0.5117330000000  0.4213450000000  0.5226090000000 1.0
C      1  0.4509500000000  0.5554070000000  0.4065020000000 1.0
C      1  0.4755510000000  0.5603960000000  0.4736270000000 1.0
C      1  0.5139840000000  0.5269100000000  0.4721200000000 1.0
C      1  0.5719300000000  0.4479960000000  0.4249340000000 1.0
C      1  0.5705310000000  0.5608940000000  0.5351200000000 1.0
C      1  0.4851320000000  0.6146380000000  0.5187390000000 1.0
C      1  0.4912590000000  0.5389970000000  0.4553580000000 1.0
C      1  0.4253610000000  0.5494050000000  0.5621390000000 1.0
C      1  0.4568130000000  0.5611900000000  0.6000610000000 1.0
C      1  0.4944210000000  0.5752080000000  0.4906170000000 1.0
C      1  0.4990470000000  0.5059480000000  0.6052310000000 1.0
C      1  0.5344890000000  0.4608250000000  0.5046400000000 1.0
C      1  0.6088390000000  0.4558770000000  0.4959920000000 1.0
C      1  0.5012490000000  0.5556980000000  0.4297920000000 1.0
C      1  0.4916980000000  0.6054120000000  0.4451100000000 1.0
C      1  0.5552910000000  0.4702100000000  0.5831700000000 1.0
C      1  0.5799530000000  0.4351500000000  0.4514460000000 1.0
C      1  0.5785650000000  0.5383960000000  0.5658450000000 1.0
C      1  0.6081740000000  0.4287340000000  0.5033020000000 1.0
C      1  0.5962860000000  0.5201710000000  0.5517600000000 1.0
C      1  0.4604830000000  0.5933730000000  0.5580130000000 1.0
C      1  0.5030500000000  0.4493140000000  0.4542700000000 1.0
C      1  0.3920080000000  0.5181940000000  0.4535890000000 1.0
C      1  0.4896400000000  0.4609100000000  0.5884490000000 1.0
C      1  0.5906070000000  0.4651860000000  0.4125190000000 1.0
C      1  0.5933100000000  0.4922730000000  0.5592570000000 1.0
C      1  0.5322390000000  0.3843070000000  0.5098620000000 1.0
C      1  0.4773420000000  0.5182990000000  0.6208780000000 1.0
C      1  0.6177770000000  0.5186110000000  0.4759030000000 1.0
C      1  0.4828730000000  0.4125030000000  0.5245890000000 1.0
C      1  0.5534180000000  0.6056070000000  0.4954850000000 1.0
C      1  0.5404340000000  0.5204670000000  0.4213430000000 1.0
C      1  0.4726900000000  0.4261500000000  0.4126690000000 1.0
C      1  0.5257370000000  0.6021060000000  0.5069380000000 1.0
C      1  0.4940200000000  0.4008330000000  0.4617030000000 1.0
C      1  0.3907190000000  0.4736690000000  0.5145910000000 1.0
C      1  0.4747350000000  0.6135930000000  0.4677260000000 1.0
C      1  0.5551960000000  0.5215370000000  0.4480310000000 1.0
C      1  0.4250990000000  0.4832930000000  0.5763140000000 1.0
C      1  0.4705020000000  0.4386690000000  0.5163280000000 1.0
C      1  0.5506080000000  0.5502180000000  0.4144320000000 1.0
C      1  0.5777990000000  0.5542170000000  0.4216470000000 1.0
C      1  0.3895820000000  0.5369920000000  0.4756390000000 1.0
C      1  0.5974450000000  0.5102840000000  0.4305130000000 1.0
C      1  0.5941190000000  0.4703350000000  0.5408160000000 1.0
C      1  0.4749440000000  0.5517920000000  0.5579990000000 1.0
C      1  0.5242940000000  0.4906110000000  0.5013630000000 1.0
C      1  0.6083260000000  0.4990750000000  0.4557830000000 1.0
C      1  0.5312500000000  0.5643040000000  0.4319220000000 1.0
C      1  0.5406830000000  0.4874030000000  0.5455330000000 1.0
C      1  0.4227590000000  0.4187290000000  0.5107750000000 1.0
C      1  0.5453140000000  0.4487370000000  0.4103600000000 1.0
C      1  0.4357620000000  0.5544370000000  0.4563590000000 1.0
C      1  0.5462600000000  0.4629330000000  0.4578530000000 1.0
C      1  0.4517050000000  0.5716840000000  0.4330130000000 1.0
C      1  0.4321560000000  0.5878960000000  0.4852550000000 1.0
C      1  0.5009800000000  0.4265680000000  0.4125570000000 1.0
C      1  0.4049420000000  0.5530510000000  0.5164840000000 1.0
C      1  0.4636500000000  0.5131910000000  0.4547040000000 1.0
C      1  0.3978930000000  0.5078860000000  0.5475760000000 1.0
C      1  0.4296230000000  0.5200070000000  0.4912780000000 1.0
C      1  0.4799260000000  0.4752130000000  0.4819330000000 1.0
C      1  0.5830230000000  0.5336810000000  0.4418240000000 1.0
C      1  0.5132410000000  0.6184120000000  0.5310280000000 1.0
C      1  0.6079140000000  0.5286390000000  0.5266610000000 1.0
C      1  0.4033140000000  0.4304410000000  0.4924570000000 1.0
C      1  0.4746900000000  0.5131080000000  0.4869810000000 1.0
C      1  0.5992330000000  0.5411100000000  0.4671720000000 1.0
C      1  0.4431860000000  0.5800460000000  0.5123420000000 1.0
C      1  0.4766960000000  0.5240420000000  0.5644820000000 1.0
C      1  0.5565170000000  0.5842880000000  0.4744670000000 1.0
C      1  0.4931480000000  0.6052760000000  0.4901910000000 1.0
C      1  0.5350470000000  0.4271110000000  0.5665860000000 1.0
C      1  0.4069130000000  0.5309560000000  0.4332090000000 1.0
C      1  0.5049840000000  0.5305190000000  0.5257710000000 1.0
C      1  0.4355160000000  0.4682350000000  0.4966860000000 1.0
C      1  0.4942770000000  0.4038800000000  0.5864770000000 1.0
C      1  0.5272840000000  0.4293460000000  0.4226720000000 1.0
C      1  0.5289700000000  0.4395260000000  0.4507300000000 1.0
C      1  0.4005070000000  0.4603270000000  0.5390410000000 1.0
C      1  0.4693210000000  0.3958620000000  0.5036880000000 1.0
C      1  0.4637570000000  0.4711940000000  0.5455090000000 1.0
C      1  0.5673410000000  0.5176820000000  0.5857370000000 1.0
C      1  0.5537340000000  0.4985650000000  0.4061710000000 1.0
C      1  0.5605560000000  0.4437920000000  0.5715360000000 1.0
C      1  0.5017280000000  0.5168240000000  0.5524470000000 1.0
C      1  0.4472030000000  0.4543560000000  0.5240690000000 1.0
C      1  0.5110450000000  0.4890660000000  0.5517000000000 1.0
C      1  0.5098030000000  0.3679240000000  0.5018210000000 1.0
C      1  0.5872820000000  0.4618160000000  0.4767370000000 1.0
C      1  0.5159100000000  0.4994060000000  0.4294960000000 1.0
C      1  0.4069910000000  0.4923120000000  0.4554790000000 1.0
C      1  0.5766210000000  0.4901570000000  0.5825190000000 1.0
C      1  0.5066160000000  0.4774520000000  0.6060830000000 1.0
C      1  0.4508480000000  0.5649470000000  0.5701370000000 1.0
C      1  0.4053520000000  0.4603080000000  0.4922970000000 1.0
C      1  0.5674530000000  0.4302050000000  0.5263370000000 1.0
C      1  0.4939560000000  0.5650460000000  0.5202040000000 1.0
C      1  0.4434680000000  0.5498230000000  0.5119440000000 1.0
C      1  0.4742480000000  0.4745080000000  0.4229150000000 1.0
C      1  0.4490790000000  0.4257040000000  0.4367610000000 1.0
C      1  0.4462980000000  0.5264430000000  0.4054610000000 1.0
C      1  0.4963290000000  0.5050870000000  0.5100940000000 1.0
C      1  0.4739620000000  0.5606390000000  0.3907250000000 1.0
C      1  0.5187620000000  0.4410140000000  0.5455880000000 1.0
C      1  0.5395530000000  0.5880150000000  0.4492630000000 1.0
C      1  0.5415530000000  0.4575460000000  0.5336820000000 1.0
C      1  0.4274860000000  0.4451710000000  0.4304560000000 1.0
C      1  0.5577140000000  0.4921050000000  0.4553800000000 1.0
C      1  0.6097340000000  0.4767500000000  0.5165880000000 1.0
C      1  0.4353300000000  0.5249270000000  0.4591890000000 1.0
C      1  0.4976090000000  0.5704040000000  0.5636340000000 1.0
C      1  0.5468720000000  0.5046760000000  0.5183770000000 1.0
C      1  0.4441500000000  0.4119330000000  0.5776460000000 1.0
C      1  0.4879680000000  0.3810230000000  0.4846040000000 1.0
C      1  0.4538610000000  0.4638370000000  0.4713100000000 1.0
C      1  0.4326330000000  0.4350330000000  0.5666290000000 1.0
C      1  0.4019390000000  0.5281280000000  0.5008010000000 1.0
C      1  0.5548500000000  0.5557150000000  0.4862120000000 1.0
C      1  0.5667040000000  0.4182050000000  0.4744810000000 1.0
C      1  0.4078970000000  0.5589820000000  0.5431720000000 1.0
C      1  0.5347230000000  0.4191210000000  0.4726850000000 1.0
C      1  0.5808370000000  0.4220800000000  0.5021910000000 1.0
C      1  0.4627360000000  0.4599910000000  0.5961890000000 1.0
C      1  0.4606480000000  0.5125250000000  0.3852750000000 1.0
C      1  0.4974740000000  0.4895970000000  0.4082310000000 1.0
C      1  0.4943430000000  0.4642040000000  0.5577860000000 1.0
C      1  0.5830000000000  0.4911720000000  0.4713510000000 1.0
C      1  0.5777470000000  0.5098300000000  0.4975010000000 1.0
C      1  0.5803690000000  0.4444210000000  0.5481080000000 1.0
C      1  0.5206270000000  0.3941070000000  0.4678680000000 1.0
C      1  0.5177270000000  0.5509900000000  0.5980030000000 1.0
C      1  0.5340680000000  0.4733720000000  0.6010270000000 1.0
C      1  0.5189180000000  0.6067300000000  0.4511980000000 1.0
C      1  0.5575810000000  0.4551860000000  0.4845230000000 1.0
C      1  0.4578020000000  0.4328380000000  0.4658690000000 1.0
C      1  0.4894690000000  0.4550000000000  0.5020670000000 1.0
C      1  0.5340680000000  0.5911870000000  0.5490800000000 1.0
C      1  0.4251860000000  0.5190930000000  0.5612020000000 1.0
C      1  0.4933840000000  0.5432710000000  0.4024540000000 1.0
C      1  0.5139120000000  0.3773630000000  0.5288020000000 1.0
C      1  0.4692290000000  0.5899330000000  0.5282330000000 1.0
C      1  0.4798120000000  0.3993860000000  0.5507120000000 1.0
C      1  0.5000780000000  0.4792610000000  0.4586010000000 1.0
C      1  0.5799220000000  0.4908070000000  0.4172700000000 1.0
C      1  0.3962540000000  0.4673150000000  0.4648410000000 1.0
C      1  0.4265930000000  0.4892190000000  0.4334810000000 1.0
C      1  0.4540920000000  0.5351100000000  0.6147110000000 1.0
C      1  0.4873840000000  0.5146040000000  0.3945890000000 1.0
C      1  0.4590460000000  0.4527260000000  0.4100820000000 1.0
C      1  0.4551610000000  0.4849990000000  0.4442510000000 1.0
C      1  0.5144850000000  0.4393620000000  0.4987420000000 1.0
C      1  0.4542870000000  0.5076250000000  0.5545510000000 1.0
C      1  0.5396570000000  0.5385690000000  0.4668900000000 1.0
C      1  0.4824450000000  0.5791030000000  0.4343000000000 1.0
C      1  0.4667130000000  0.5414290000000  0.4949860000000 1.0
C      1  0.5263400000000  0.5626950000000  0.5708800000000 1.0
C      1  0.4869190000000  0.5480140000000  0.5999550000000 1.0
C      1  0.4149260000000  0.5659510000000  0.4739060000000 1.0
C      1  0.4620180000000  0.4967530000000  0.5258490000000 1.0
C      1  0.5227990000000  0.5218550000000  0.5994740000000 1.0
C      1  0.4047120000000  0.4201770000000  0.4662070000000 1.0
C      1  0.4714010000000  0.4142000000000  0.5725380000000 1.0
C      1  0.4866470000000  0.4286710000000  0.4664700000000 1.0
C      1  0.5645150000000  0.5900030000000  0.5414940000000 1.0
C      1  0.4235320000000  0.5141000000000  0.4180390000000 1.0
C      1  0.5702860000000  0.6038850000000  0.5178570000000 1.0
C      1  0.5815220000000  0.5414190000000  0.4910480000000 1.0
C      1  0.5333820000000  0.4764000000000  0.4030870000000 1.0
C      1  0.4054770000000  0.4431890000000  0.4497040000000 1.0
C      1  0.4459750000000  0.4108250000000  0.4924190000000 1.0
C      1  0.4546920000000  0.5922410000000  0.4658400000000 1.0
C      1  0.5352780000000  0.5314600000000  0.5272470000000 1.0
C      1  0.4019770000000  0.4815550000000  0.5596240000000 1.0
C      1  0.5458880000000  0.5563650000000  0.5159420000000 1.0
C      1  0.5405700000000  0.5377540000000  0.5572200000000 1.0
C      1  0.4394630000000  0.4955900000000  0.5060440000000 1.0
END
