TITL C-950531-5884-15 4.10751669286873e-06 125000 -786.59758611168 0 0 127 (C1) n - 1
REM
REM in /home/bkarasulu/work/CARBON/AIRSS/Generating-Clusters/EDIP-Nigel-Params/with-SteepDescent/Only-C1/SD-CG/HFTN-CG
REM
REM
REM
REM
REM
REM ./C.cell (11c1c37f851c82e70ff6c80c92926a4b)
REM
REM compiler GCC version 9.2.1 20190827 (Red Hat 9.2.1-1)
REM options -cpp -mtune=generic -march=x86-64 -g -O0 -fpre-include=/usr/include/finclude/math-vector-fortran.h
REM seed -1704293356 949329921 -2032652093 -965015442 -1629606027 -161098223 289661550 -1792459065 410988957 -334719482 -413992034 -75608741 -334229949 1372055310 -647440896 -197228789 -946179650 138782447 395413113 1678685369 526822462 864008187 159771463 890625074 1238919794 217319418 -2063304967 346190383 1681337831 -1725571136 206043400 2104339795 -959863250
REM
CELL 1.54180   50.00000   50.00000   50.00000   90.00000   90.00000   90.00000
LATT -1
SFAC C  
C      1  0.5651630000000  0.5666760000000  0.5080170000000 1.0
C      1  0.4153970000000  0.4792940000000  0.4712080000000 1.0
C      1  0.5119670000000  0.4829630000000  0.6047660000000 1.0
C      1  0.4282300000000  0.5726960000000  0.4605050000000 1.0
C      1  0.4925280000000  0.5313680000000  0.5453340000000 1.0
C      1  0.4964420000000  0.5725600000000  0.4451460000000 1.0
C      1  0.5260150000000  0.4223520000000  0.4251420000000 1.0
C      1  0.5338370000000  0.4494360000000  0.4199020000000 1.0
C      1  0.5027930000000  0.5862330000000  0.5593820000000 1.0
C      1  0.4972910000000  0.4841250000000  0.4466190000000 1.0
C      1  0.5680780000000  0.5550600000000  0.4491530000000 1.0
C      1  0.5283960000000  0.5404920000000  0.4219900000000 1.0
C      1  0.4998370000000  0.4145700000000  0.4192960000000 1.0
C      1  0.4030990000000  0.5188860000000  0.5024650000000 1.0
C      1  0.4840820000000  0.5097670000000  0.4073490000000 1.0
C      1  0.4520790000000  0.4942590000000  0.5030960000000 1.0
C      1  0.4383320000000  0.4541860000000  0.5692940000000 1.0
C      1  0.4105320000000  0.5037090000000  0.5470630000000 1.0
C      1  0.5270120000000  0.4649310000000  0.5593420000000 1.0
C      1  0.5049060000000  0.5050590000000  0.4976520000000 1.0
C      1  0.4373360000000  0.4410600000000  0.4919460000000 1.0
C      1  0.5400390000000  0.5826410000000  0.5044330000000 1.0
C      1  0.5765090000000  0.5221920000000  0.5461490000000 1.0
C      1  0.4862530000000  0.5644520000000  0.5677330000000 1.0
C      1  0.5658390000000  0.5655280000000  0.5361690000000 1.0
C      1  0.4483130000000  0.4819840000000  0.5742510000000 1.0
C      1  0.4539250000000  0.4161220000000  0.4903400000000 1.0
C      1  0.5367160000000  0.4377740000000  0.5562190000000 1.0
C      1  0.4822040000000  0.4242910000000  0.4831770000000 1.0
C      1  0.4863600000000  0.4216660000000  0.5557260000000 1.0
C      1  0.6055280000000  0.4893340000000  0.4606130000000 1.0
C      1  0.4287610000000  0.5722840000000  0.5330560000000 1.0
C      1  0.4784960000000  0.4219010000000  0.4341300000000 1.0
C      1  0.4580700000000  0.4353790000000  0.5778640000000 1.0
C      1  0.4554610000000  0.5034620000000  0.4724150000000 1.0
C      1  0.4721920000000  0.5659770000000  0.4309340000000 1.0
C      1  0.4870340000000  0.4992990000000  0.5796450000000 1.0
C      1  0.5864980000000  0.5208510000000  0.5181990000000 1.0
C      1  0.5719410000000  0.5379400000000  0.4954770000000 1.0
C      1  0.4549300000000  0.5426480000000  0.4325740000000 1.0
C      1  0.5074420000000  0.5256510000000  0.4101710000000 1.0
C      1  0.5412240000000  0.5139620000000  0.4545830000000 1.0
C      1  0.5480040000000  0.4801530000000  0.5116740000000 1.0
C      1  0.4137250000000  0.5652140000000  0.4850720000000 1.0
C      1  0.5653470000000  0.4160480000000  0.5260160000000 1.0
C      1  0.4736510000000  0.5861230000000  0.4881820000000 1.0
C      1  0.4982550000000  0.5883540000000  0.4709830000000 1.0
C      1  0.4127140000000  0.4796380000000  0.5284300000000 1.0
C      1  0.4480230000000  0.5292270000000  0.5726460000000 1.0
C      1  0.5877490000000  0.4591250000000  0.4939920000000 1.0
C      1  0.5202900000000  0.5283820000000  0.5800060000000 1.0
C      1  0.5430040000000  0.4041070000000  0.4391110000000 1.0
C      1  0.5311850000000  0.4573010000000  0.4726370000000 1.0
C      1  0.5483990000000  0.5211810000000  0.4843610000000 1.0
C      1  0.4283840000000  0.5050480000000  0.5728300000000 1.0
C      1  0.5244570000000  0.5737740000000  0.4806280000000 1.0
C      1  0.5796720000000  0.4582980000000  0.5411120000000 1.0
C      1  0.4995140000000  0.5924950000000  0.5309450000000 1.0
C      1  0.4104100000000  0.5520860000000  0.5387360000000 1.0
C      1  0.4086290000000  0.4899360000000  0.4993150000000 1.0
C      1  0.5771170000000  0.4731270000000  0.5163000000000 1.0
C      1  0.4937080000000  0.4311730000000  0.5104880000000 1.0
C      1  0.5238420000000  0.5743060000000  0.5292180000000 1.0
C      1  0.4350190000000  0.5725120000000  0.5043850000000 1.0
C      1  0.5426900000000  0.5706360000000  0.4559000000000 1.0
C      1  0.4883810000000  0.4969020000000  0.5489440000000 1.0
C      1  0.5488550000000  0.4369830000000  0.4597170000000 1.0
C      1  0.4524740000000  0.4592670000000  0.5091660000000 1.0
C      1  0.4831090000000  0.4464500000000  0.5852530000000 1.0
C      1  0.4836570000000  0.4829130000000  0.4195960000000 1.0
C      1  0.4300700000000  0.5002970000000  0.4542170000000 1.0
C      1  0.5641630000000  0.4353040000000  0.5456790000000 1.0
C      1  0.5418830000000  0.5442140000000  0.5717350000000 1.0
C      1  0.4146900000000  0.5263170000000  0.4547240000000 1.0
C      1  0.4855470000000  0.4729930000000  0.5965500000000 1.0
C      1  0.4988140000000  0.5255570000000  0.4767580000000 1.0
C      1  0.4720760000000  0.4252920000000  0.5297240000000 1.0
C      1  0.4415640000000  0.4953280000000  0.4259960000000 1.0
C      1  0.4574170000000  0.5186260000000  0.4168000000000 1.0
C      1  0.5333740000000  0.5275390000000  0.5288190000000 1.0
C      1  0.4571200000000  0.4724280000000  0.4206680000000 1.0
C      1  0.4582230000000  0.5676210000000  0.5411380000000 1.0
C      1  0.5135970000000  0.5477900000000  0.4909310000000 1.0
C      1  0.5717600000000  0.5001530000000  0.5625910000000 1.0
C      1  0.5543960000000  0.5407700000000  0.5461170000000 1.0
C      1  0.5126780000000  0.5464870000000  0.5217770000000 1.0
C      1  0.5293740000000  0.5020410000000  0.5908890000000 1.0
C      1  0.5508940000000  0.4880910000000  0.5766770000000 1.0
C      1  0.5858970000000  0.5390010000000  0.4683160000000 1.0
C      1  0.5057270000000  0.4729350000000  0.5412630000000 1.0
C      1  0.4549540000000  0.4060980000000  0.5174510000000 1.0
C      1  0.4568420000000  0.5439100000000  0.5009750000000 1.0
C      1  0.5869670000000  0.4693830000000  0.4677840000000 1.0
C      1  0.5159140000000  0.4170000000000  0.5477630000000 1.0
C      1  0.5174220000000  0.4135110000000  0.5180180000000 1.0
C      1  0.4595940000000  0.4886720000000  0.5461390000000 1.0
C      1  0.5436910000000  0.4243540000000  0.5078770000000 1.0
C      1  0.4278560000000  0.5491170000000  0.4415220000000 1.0
C      1  0.4121440000000  0.5361260000000  0.4814240000000 1.0
C      1  0.4676970000000  0.5322980000000  0.4737420000000 1.0
C      1  0.5586520000000  0.5364120000000  0.4278500000000 1.0
C      1  0.5036760000000  0.4604360000000  0.5132390000000 1.0
C      1  0.4388370000000  0.4660190000000  0.5347830000000 1.0
C      1  0.4610590000000  0.5361770000000  0.5449350000000 1.0
C      1  0.4947240000000  0.5424170000000  0.5862690000000 1.0
C      1  0.5552780000000  0.4908150000000  0.4271020000000 1.0
C      1  0.5432750000000  0.3939330000000  0.4653100000000 1.0
C      1  0.5528860000000  0.4155090000000  0.4805740000000 1.0
C      1  0.5321390000000  0.4569750000000  0.5023020000000 1.0
C      1  0.4766210000000  0.5791710000000  0.5181370000000 1.0
C      1  0.4719410000000  0.5234490000000  0.5902960000000 1.0
C      1  0.5731520000000  0.4515060000000  0.4489390000000 1.0
C      1  0.4165330000000  0.5260060000000  0.5279530000000 1.0
C      1  0.4469870000000  0.5228850000000  0.5207320000000 1.0
C      1  0.5113330000000  0.5124080000000  0.4517010000000 1.0
C      1  0.5113340000000  0.4556770000000  0.4504610000000 1.0
C      1  0.4583390000000  0.5693390000000  0.4671760000000 1.0
C      1  0.4252460000000  0.4530980000000  0.4696740000000 1.0
C      1  0.4878620000000  0.4817840000000  0.4965440000000 1.0
C      1  0.5952250000000  0.4947810000000  0.5135490000000 1.0
C      1  0.4765070000000  0.4820090000000  0.4679340000000 1.0
C      1  0.4884070000000  0.4356700000000  0.4564880000000 1.0
C      1  0.5749840000000  0.5111410000000  0.4287700000000 1.0
C      1  0.5226680000000  0.5656980000000  0.4349970000000 1.0
C      1  0.5341960000000  0.5072100000000  0.5063450000000 1.0
C      1  0.5591960000000  0.4627060000000  0.4251500000000 1.0
C      1  0.5892450000000  0.5117390000000  0.4545600000000 1.0
END
