TITL C-950526-5686-645 2.13030706576959e-05 125000 -193.057012986397 0 0 33 (C1) n - 1
REM
REM in /home/bkarasulu/work/CARBON/AIRSS/Generating-Clusters/EDIP-Nigel-Params/with-SteepDescent/Only-C1/SD-CG/HFTN-CG
REM
REM
REM
REM
REM
REM ./C.cell (11c1c37f851c82e70ff6c80c92926a4b)
REM
REM compiler GCC version 9.2.1 20190827 (Red Hat 9.2.1-1)
REM options -cpp -mtune=generic -march=x86-64 -g -O0 -fpre-include=/usr/include/finclude/math-vector-fortran.h
REM seed -547562336 -770874349 -1148936389 -2133252882 -288934105 1249849722 1852162067 -1760350348 -2085359587 -30540130 -1348991183 -2098644634 -398483532 -1718885184 -1299063050 138702977 2132172441 1243452935 -743581744 -1176776202 -50149816 -1187133094 1399280578 -1951760319 -76748769 -509822858 652351355 320009007 867524031 -1482416162 1338871019 -2104087802 -959685687
REM
CELL 1.54180   50.00000   50.00000   50.00000   90.00000   90.00000   90.00000
LATT -1
SFAC C  
C      1  0.4727490000000  0.5510040000000  0.5357560000000 1.0
C      1  0.4979940000000  0.5522790000000  0.5456100000000 1.0
C      1  0.4915190000000  0.4572490000000  0.5216940000000 1.0
C      1  0.5406870000000  0.4467800000000  0.5194870000000 1.0
C      1  0.4988090000000  0.5036460000000  0.5586990000000 1.0
C      1  0.5429200000000  0.5336130000000  0.5086640000000 1.0
C      1  0.4848700000000  0.4508150000000  0.4942280000000 1.0
C      1  0.4714230000000  0.5006120000000  0.5629840000000 1.0
C      1  0.5400250000000  0.5379380000000  0.4826170000000 1.0
C      1  0.5333750000000  0.4873820000000  0.4466120000000 1.0
C      1  0.5077060000000  0.4365190000000  0.4843340000000 1.0
C      1  0.5299610000000  0.5143950000000  0.4414240000000 1.0
C      1  0.5289330000000  0.4537990000000  0.4929240000000 1.0
C      1  0.5315590000000  0.4891210000000  0.5286440000000 1.0
C      1  0.5038420000000  0.5526300000000  0.4549100000000 1.0
C      1  0.5089670000000  0.5265010000000  0.5437280000000 1.0
C      1  0.4545080000000  0.5090700000000  0.5437710000000 1.0
C      1  0.5163060000000  0.4800100000000  0.5028920000000 1.0
C      1  0.5240770000000  0.5346750000000  0.4604110000000 1.0
C      1  0.5142100000000  0.4804970000000  0.5514200000000 1.0
C      1  0.4620510000000  0.5423510000000  0.4783470000000 1.0
C      1  0.4837090000000  0.4786600000000  0.4816540000000 1.0
C      1  0.4843690000000  0.4770640000000  0.4516960000000 1.0
C      1  0.5079130000000  0.4829980000000  0.4366100000000 1.0
C      1  0.4594860000000  0.4853550000000  0.4416790000000 1.0
C      1  0.4781740000000  0.5553950000000  0.4615570000000 1.0
C      1  0.5150620000000  0.4463010000000  0.5345240000000 1.0
C      1  0.4577860000000  0.5297540000000  0.5254280000000 1.0
C      1  0.4637250000000  0.5225820000000  0.4979060000000 1.0
C      1  0.5336760000000  0.5192670000000  0.5302600000000 1.0
C      1  0.5550090000000  0.4705220000000  0.5287070000000 1.0
C      1  0.4458680000000  0.4959320000000  0.4627880000000 1.0
C      1  0.4587330000000  0.4952850000000  0.4880370000000 1.0
END
