TITL C-950524-1808-92 -4.09352961563673e-06 125000 -1237.09641850079 0 0 196 (C1) n - 1
REM
REM in /home/bkarasulu/work/CARBON/AIRSS/Generating-Clusters/EDIP-Nigel-Params/with-SteepDescent/Only-C1/SD-CG/HFTN-CG
REM
REM
REM
REM
REM
REM ./C.cell (11c1c37f851c82e70ff6c80c92926a4b)
REM
REM compiler GCC version 9.2.1 20190827 (Red Hat 9.2.1-1)
REM options -cpp -mtune=generic -march=x86-64 -g -O0 -fpre-include=/usr/include/finclude/math-vector-fortran.h
REM seed -519901663 -2130128616 -1347096899 1797046004 -178066996 1387936789 1764701679 845950608 69036179 508626136 442247354 -488517806 1206745660 -48918857 -733154545 -305077361 -898612922 516740894 1373097660 -1655547553 202829683 -556479828 -1414806461 1490874672 -1606742752 181005406 742495439 -397167484 -1561694908 -2124909255 1841366043 -1820364601 -1344345369
REM
CELL 1.54180   50.00000   50.00000   50.00000   90.00000   90.00000   90.00000
LATT -1
SFAC C  
C      1  0.6017110000000  0.5102640000000  0.5427290000000 1.0
C      1  0.4394390000000  0.5117010000000  0.5826650000000 1.0
C      1  0.4026110000000  0.4454370000000  0.5345190000000 1.0
C      1  0.5109640000000  0.5917850000000  0.5530460000000 1.0
C      1  0.4300310000000  0.5162600000000  0.5294150000000 1.0
C      1  0.4738000000000  0.5618160000000  0.4940800000000 1.0
C      1  0.5981700000000  0.4368760000000  0.5406890000000 1.0
C      1  0.5487280000000  0.5887700000000  0.4762010000000 1.0
C      1  0.5010180000000  0.5154250000000  0.4381550000000 1.0
C      1  0.4617460000000  0.5031470000000  0.5653060000000 1.0
C      1  0.5429360000000  0.5370770000000  0.4011020000000 1.0
C      1  0.5481940000000  0.4858340000000  0.4741500000000 1.0
C      1  0.5707520000000  0.5420410000000  0.4021120000000 1.0
C      1  0.5302580000000  0.4039880000000  0.5506110000000 1.0
C      1  0.4713990000000  0.5281290000000  0.5475080000000 1.0
C      1  0.4639060000000  0.5911760000000  0.4906490000000 1.0
C      1  0.3983000000000  0.4885470000000  0.4660390000000 1.0
C      1  0.5273470000000  0.4330530000000  0.5251800000000 1.0
C      1  0.3912460000000  0.4631050000000  0.5539770000000 1.0
C      1  0.5655140000000  0.5584940000000  0.5505680000000 1.0
C      1  0.4470250000000  0.5343630000000  0.5963070000000 1.0
C      1  0.4626610000000  0.4464780000000  0.4902020000000 1.0
C      1  0.4530310000000  0.4628680000000  0.6081050000000 1.0
C      1  0.4863940000000  0.5626430000000  0.5792280000000 1.0
C      1  0.6148350000000  0.4597120000000  0.4874800000000 1.0
C      1  0.4618550000000  0.4585720000000  0.5615160000000 1.0
C      1  0.5397820000000  0.6140650000000  0.4874550000000 1.0
C      1  0.4890620000000  0.4226450000000  0.4465860000000 1.0
C      1  0.4510340000000  0.5521290000000  0.5455720000000 1.0
C      1  0.5605540000000  0.5130680000000  0.5919240000000 1.0
C      1  0.4497390000000  0.4334960000000  0.5132390000000 1.0
C      1  0.5954610000000  0.4231580000000  0.5140580000000 1.0
C      1  0.5206360000000  0.4834350000000  0.6119560000000 1.0
C      1  0.4606810000000  0.4160440000000  0.4374800000000 1.0
C      1  0.5707420000000  0.5502580000000  0.4455060000000 1.0
C      1  0.4835950000000  0.4475190000000  0.4672700000000 1.0
C      1  0.5504540000000  0.5335590000000  0.4606980000000 1.0
C      1  0.4169170000000  0.5818470000000  0.4828530000000 1.0
C      1  0.5443940000000  0.5895450000000  0.4467820000000 1.0
C      1  0.5911120000000  0.4663540000000  0.5377440000000 1.0
C      1  0.4701990000000  0.4842370000000  0.5196220000000 1.0
C      1  0.5016350000000  0.5645960000000  0.5067690000000 1.0
C      1  0.6051600000000  0.5318230000000  0.4853160000000 1.0
C      1  0.5207170000000  0.4726010000000  0.4292460000000 1.0
C      1  0.4135690000000  0.5092950000000  0.5699080000000 1.0
C      1  0.4240360000000  0.4472310000000  0.4448090000000 1.0
C      1  0.5670320000000  0.4781720000000  0.4170250000000 1.0
C      1  0.5526140000000  0.4565700000000  0.4621020000000 1.0
C      1  0.6142100000000  0.5507280000000  0.4667560000000 1.0
C      1  0.4512830000000  0.5525090000000  0.5132720000000 1.0
C      1  0.6100300000000  0.4647220000000  0.4583230000000 1.0
C      1  0.4913060000000  0.6076930000000  0.4844390000000 1.0
C      1  0.4779620000000  0.5593270000000  0.3928230000000 1.0
C      1  0.5185910000000  0.5548990000000  0.4102590000000 1.0
C      1  0.5507310000000  0.5630380000000  0.5753040000000 1.0
C      1  0.5103080000000  0.5698410000000  0.5963170000000 1.0
C      1  0.4819100000000  0.5936680000000  0.5583190000000 1.0
C      1  0.5164270000000  0.6059890000000  0.5013920000000 1.0
C      1  0.5076200000000  0.4024620000000  0.4607670000000 1.0
C      1  0.4475450000000  0.5958010000000  0.5191640000000 1.0
C      1  0.5764450000000  0.5007230000000  0.4359760000000 1.0
C      1  0.5212570000000  0.5438090000000  0.6077080000000 1.0
C      1  0.4537620000000  0.5174100000000  0.4644610000000 1.0
C      1  0.4976420000000  0.4377810000000  0.5298870000000 1.0
C      1  0.5348220000000  0.4290880000000  0.4255690000000 1.0
C      1  0.4201810000000  0.4248590000000  0.4637590000000 1.0
C      1  0.5422120000000  0.5448840000000  0.5087940000000 1.0
C      1  0.4957520000000  0.5412860000000  0.5574130000000 1.0
C      1  0.5978400000000  0.5020220000000  0.4848670000000 1.0
C      1  0.4357850000000  0.5046040000000  0.4016320000000 1.0
C      1  0.4976920000000  0.5246690000000  0.6023490000000 1.0
C      1  0.5548180000000  0.4014880000000  0.4936720000000 1.0
C      1  0.5637950000000  0.4095350000000  0.4665280000000 1.0
C      1  0.5275630000000  0.5646640000000  0.4887700000000 1.0
C      1  0.5755790000000  0.4277130000000  0.5578240000000 1.0
C      1  0.5129860000000  0.5858850000000  0.4126520000000 1.0
C      1  0.5186310000000  0.4795790000000  0.5148830000000 1.0
C      1  0.5366560000000  0.4092900000000  0.4488290000000 1.0
C      1  0.4996730000000  0.3827630000000  0.5095150000000 1.0
C      1  0.3873600000000  0.4792010000000  0.4920750000000 1.0
C      1  0.4052320000000  0.4225750000000  0.4900580000000 1.0
C      1  0.5192490000000  0.4554900000000  0.6033840000000 1.0
C      1  0.5834230000000  0.5215110000000  0.5225840000000 1.0
C      1  0.5171750000000  0.5951590000000  0.4400400000000 1.0
C      1  0.5631020000000  0.4502410000000  0.5726630000000 1.0
C      1  0.4541910000000  0.4868170000000  0.4671600000000 1.0
C      1  0.5779970000000  0.5819150000000  0.4823720000000 1.0
C      1  0.4054710000000  0.5531200000000  0.5248070000000 1.0
C      1  0.5244100000000  0.5224410000000  0.5028080000000 1.0
C      1  0.3881260000000  0.5342650000000  0.5072240000000 1.0
C      1  0.4763310000000  0.4724900000000  0.4527020000000 1.0
C      1  0.4319430000000  0.5221980000000  0.4814760000000 1.0
C      1  0.4209920000000  0.4744380000000  0.4541740000000 1.0
C      1  0.5043380000000  0.3894040000000  0.5383400000000 1.0
C      1  0.4459000000000  0.3824990000000  0.4765600000000 1.0
C      1  0.5462070000000  0.4578030000000  0.4313840000000 1.0
C      1  0.5584090000000  0.5337280000000  0.5336190000000 1.0
C      1  0.5279090000000  0.5826830000000  0.5763820000000 1.0
C      1  0.5910400000000  0.5658480000000  0.4608370000000 1.0
C      1  0.4390890000000  0.5940020000000  0.4202000000000 1.0
C      1  0.4059340000000  0.5182090000000  0.4661390000000 1.0
C      1  0.4972540000000  0.6118490000000  0.4550740000000 1.0
C      1  0.4144700000000  0.5582040000000  0.4409260000000 1.0
C      1  0.4979330000000  0.4594070000000  0.4160600000000 1.0
C      1  0.5422640000000  0.5098310000000  0.5445610000000 1.0
C      1  0.5447620000000  0.5388940000000  0.5906590000000 1.0
C      1  0.4273020000000  0.4725860000000  0.5094990000000 1.0
C      1  0.4936960000000  0.4973730000000  0.6157030000000 1.0
C      1  0.3995370000000  0.5645580000000  0.4662480000000 1.0
C      1  0.5731750000000  0.4035450000000  0.5169470000000 1.0
C      1  0.4651730000000  0.3904080000000  0.4977190000000 1.0
C      1  0.4210600000000  0.3763590000000  0.4894360000000 1.0
C      1  0.5576970000000  0.4908910000000  0.3938890000000 1.0
C      1  0.5699320000000  0.4942700000000  0.4980770000000 1.0
C      1  0.4963540000000  0.5235330000000  0.4918660000000 1.0
C      1  0.4653240000000  0.5414220000000  0.4131730000000 1.0
C      1  0.5760760000000  0.4377450000000  0.4678340000000 1.0
C      1  0.5364990000000  0.4954820000000  0.5892070000000 1.0
C      1  0.5972090000000  0.4912290000000  0.4567840000000 1.0
C      1  0.4753100000000  0.6182950000000  0.4391010000000 1.0
C      1  0.4846080000000  0.5862570000000  0.4038270000000 1.0
C      1  0.5520160000000  0.6023030000000  0.5331180000000 1.0
C      1  0.5179870000000  0.4828770000000  0.4832760000000 1.0
C      1  0.3874150000000  0.5022430000000  0.5125290000000 1.0
C      1  0.5570930000000  0.5700970000000  0.4296000000000 1.0
C      1  0.4597890000000  0.4936760000000  0.4155520000000 1.0
C      1  0.4672520000000  0.5573920000000  0.4399360000000 1.0
C      1  0.4212620000000  0.5776560000000  0.5116580000000 1.0
C      1  0.5410470000000  0.4616130000000  0.5268930000000 1.0
C      1  0.5834450000000  0.5302690000000  0.4255740000000 1.0
C      1  0.4858790000000  0.4125520000000  0.5455400000000 1.0
C      1  0.5709000000000  0.4670830000000  0.5137650000000 1.0
C      1  0.5264970000000  0.5011410000000  0.4293170000000 1.0
C      1  0.4539480000000  0.4744390000000  0.4957720000000 1.0
C      1  0.5089980000000  0.4556710000000  0.4777740000000 1.0
C      1  0.5239480000000  0.5458370000000  0.4650000000000 1.0
C      1  0.4941260000000  0.4671220000000  0.5246820000000 1.0
C      1  0.4467220000000  0.4049830000000  0.5164990000000 1.0
C      1  0.5050190000000  0.4317130000000  0.4218720000000 1.0
C      1  0.5034850000000  0.4887610000000  0.5618400000000 1.0
C      1  0.5242660000000  0.6048920000000  0.5303060000000 1.0
C      1  0.5496470000000  0.5056010000000  0.4505470000000 1.0
C      1  0.5797920000000  0.5683580000000  0.5079980000000 1.0
C      1  0.4692080000000  0.4660090000000  0.4243030000000 1.0
C      1  0.4087720000000  0.4852680000000  0.5531030000000 1.0
C      1  0.5230010000000  0.4190560000000  0.5752440000000 1.0
C      1  0.5374130000000  0.5084240000000  0.4025880000000 1.0
C      1  0.5307000000000  0.4384870000000  0.4738190000000 1.0
C      1  0.4943550000000  0.4422980000000  0.6037370000000 1.0
C      1  0.4520360000000  0.4812300000000  0.5450350000000 1.0
C      1  0.4129340000000  0.4938660000000  0.5256810000000 1.0
C      1  0.5704940000000  0.5810700000000  0.5328040000000 1.0
C      1  0.4172430000000  0.3989720000000  0.5063040000000 1.0
C      1  0.5098380000000  0.5179030000000  0.5735920000000 1.0
C      1  0.5060020000000  0.5529640000000  0.5327170000000 1.0
C      1  0.3926790000000  0.4460160000000  0.5056920000000 1.0
C      1  0.6133210000000  0.4854490000000  0.5313150000000 1.0
C      1  0.4730900000000  0.5433430000000  0.5991570000000 1.0
C      1  0.3870430000000  0.5388330000000  0.4777250000000 1.0
C      1  0.4952870000000  0.5030470000000  0.4677570000000 1.0
C      1  0.5309710000000  0.4191150000000  0.4975810000000 1.0
C      1  0.5775640000000  0.4745590000000  0.5631780000000 1.0
C      1  0.4497700000000  0.4262500000000  0.5950390000000 1.0
C      1  0.5960920000000  0.4427030000000  0.4471930000000 1.0
C      1  0.4754070000000  0.5141110000000  0.5150270000000 1.0
C      1  0.4211280000000  0.5389400000000  0.5468990000000 1.0
C      1  0.5346090000000  0.4812550000000  0.5589050000000 1.0
C      1  0.4432250000000  0.4512340000000  0.5833600000000 1.0
C      1  0.5056760000000  0.5451690000000  0.4395460000000 1.0
C      1  0.4413870000000  0.5899020000000  0.4691940000000 1.0
C      1  0.4572180000000  0.4024510000000  0.5442710000000 1.0
C      1  0.4727990000000  0.5413070000000  0.4660180000000 1.0
C      1  0.4467640000000  0.5245300000000  0.5077720000000 1.0
C      1  0.4407800000000  0.5750790000000  0.4423670000000 1.0
C      1  0.5067270000000  0.4038290000000  0.4904840000000 1.0
C      1  0.4384670000000  0.5343480000000  0.4025990000000 1.0
C      1  0.4792190000000  0.5148680000000  0.4173910000000 1.0
C      1  0.5594660000000  0.4087730000000  0.5426640000000 1.0
C      1  0.6181760000000  0.4860910000000  0.5011470000000 1.0
C      1  0.4687420000000  0.4091300000000  0.5803560000000 1.0
C      1  0.4143740000000  0.5282890000000  0.4393910000000 1.0
C      1  0.4111650000000  0.5107460000000  0.4164490000000 1.0
C      1  0.4581350000000  0.5833120000000  0.5443870000000 1.0
C      1  0.5361270000000  0.4440550000000  0.5824500000000 1.0
C      1  0.5886490000000  0.4458970000000  0.4954430000000 1.0
C      1  0.5962220000000  0.5439060000000  0.5092280000000 1.0
C      1  0.4651880000000  0.6032360000000  0.4180770000000 1.0
C      1  0.4859980000000  0.4690480000000  0.5775380000000 1.0
C      1  0.4960790000000  0.4190140000000  0.5873460000000 1.0
C      1  0.5020630000000  0.5471010000000  0.3869140000000 1.0
C      1  0.5211450000000  0.5063520000000  0.5253690000000 1.0
C      1  0.4485870000000  0.4421000000000  0.4278930000000 1.0
C      1  0.4410190000000  0.4051510000000  0.4572370000000 1.0
C      1  0.5802440000000  0.5027390000000  0.5719980000000 1.0
C      1  0.4322910000000  0.4514830000000  0.5299680000000 1.0
C      1  0.4711050000000  0.4853080000000  0.5984410000000 1.0
END
