TITL C-950522-5749-602 -5.26675324645618e-06 125000 -677.558548781951 0 0 109 (C1) n - 1
REM
REM in /home/bkarasulu/work/CARBON/AIRSS/Generating-Clusters/EDIP-Nigel-Params/with-SteepDescent/Only-C1/SD-CG/HFTN-CG
REM
REM
REM
REM
REM
REM ./C.cell (11c1c37f851c82e70ff6c80c92926a4b)
REM
REM compiler GCC version 9.2.1 20190827 (Red Hat 9.2.1-1)
REM options -cpp -mtune=generic -march=x86-64 -g -O0 -fpre-include=/usr/include/finclude/math-vector-fortran.h
REM seed 1895838039 -780292809 -1871220524 1611726631 -1902894540 -1196910221 1757604228 -446040924 1759561752 1806267425 -1023135315 -427084423 -839873899 -1326433737 1478526624 -280569380 966241276 -808966802 -616579327 1107543389 -1352134377 2019422427 -1276721715 670199916 -1103887814 -1914570136 -16358642 1487030156 -1286983184 -379114711 -1458381668 1257821430 -1254271062
REM
CELL 1.54180   50.00000   50.00000   50.00000   90.00000   90.00000   90.00000
LATT -1
SFAC C  
C      1  0.4919160000000  0.5418730000000  0.5738410000000 1.0
C      1  0.4212200000000  0.5050680000000  0.4861740000000 1.0
C      1  0.5075080000000  0.5290690000000  0.4226100000000 1.0
C      1  0.5094200000000  0.5205890000000  0.5389840000000 1.0
C      1  0.4552000000000  0.5746570000000  0.5116180000000 1.0
C      1  0.4670070000000  0.5474930000000  0.5587610000000 1.0
C      1  0.5729940000000  0.5171110000000  0.4309840000000 1.0
C      1  0.5763080000000  0.4677140000000  0.5025370000000 1.0
C      1  0.4989680000000  0.4976280000000  0.4562890000000 1.0
C      1  0.4564670000000  0.5187830000000  0.5520400000000 1.0
C      1  0.5300560000000  0.4738170000000  0.4849280000000 1.0
C      1  0.4529370000000  0.4873070000000  0.4303610000000 1.0
C      1  0.4322820000000  0.4599130000000  0.4950730000000 1.0
C      1  0.4303090000000  0.4721200000000  0.5206630000000 1.0
C      1  0.5595030000000  0.4366460000000  0.5360390000000 1.0
C      1  0.5460260000000  0.5007600000000  0.4836740000000 1.0
C      1  0.4435120000000  0.5739990000000  0.4669140000000 1.0
C      1  0.5345880000000  0.5857600000000  0.5012330000000 1.0
C      1  0.5101290000000  0.4654120000000  0.5721410000000 1.0
C      1  0.5201060000000  0.4160210000000  0.4602940000000 1.0
C      1  0.5888370000000  0.5156220000000  0.4757420000000 1.0
C      1  0.5738590000000  0.4897210000000  0.4786210000000 1.0
C      1  0.4534000000000  0.4223460000000  0.4658820000000 1.0
C      1  0.4671470000000  0.4496890000000  0.5928460000000 1.0
C      1  0.5218540000000  0.5108360000000  0.4411620000000 1.0
C      1  0.4905130000000  0.5908160000000  0.4798050000000 1.0
C      1  0.4437060000000  0.4333960000000  0.4925410000000 1.0
C      1  0.5082890000000  0.4690790000000  0.4626400000000 1.0
C      1  0.5530910000000  0.4519620000000  0.4621060000000 1.0
C      1  0.4446670000000  0.4686150000000  0.4503600000000 1.0
C      1  0.5326890000000  0.4360800000000  0.4461500000000 1.0
C      1  0.4671070000000  0.5088780000000  0.4444820000000 1.0
C      1  0.5183400000000  0.5510610000000  0.5644980000000 1.0
C      1  0.4630820000000  0.5331620000000  0.4277030000000 1.0
C      1  0.5385530000000  0.5638110000000  0.5213550000000 1.0
C      1  0.4383870000000  0.5448140000000  0.4324950000000 1.0
C      1  0.5556620000000  0.4869950000000  0.5479130000000 1.0
C      1  0.4509930000000  0.5318710000000  0.5042770000000 1.0
C      1  0.4659630000000  0.4473170000000  0.4524540000000 1.0
C      1  0.5029390000000  0.4294800000000  0.5375410000000 1.0
C      1  0.5668540000000  0.5560450000000  0.5281580000000 1.0
C      1  0.4293570000000  0.4588360000000  0.5458730000000 1.0
C      1  0.5098910000000  0.5356690000000  0.4845910000000 1.0
C      1  0.5401740000000  0.5229050000000  0.4631650000000 1.0
C      1  0.5744190000000  0.5585070000000  0.5550470000000 1.0
C      1  0.4192860000000  0.5310900000000  0.4739990000000 1.0
C      1  0.5143010000000  0.4506530000000  0.4293500000000 1.0
C      1  0.4755710000000  0.4621570000000  0.5028360000000 1.0
C      1  0.4670130000000  0.5716520000000  0.4836250000000 1.0
C      1  0.4989800000000  0.4235080000000  0.4781410000000 1.0
C      1  0.5224060000000  0.5724700000000  0.5448680000000 1.0
C      1  0.4881280000000  0.5740950000000  0.4233460000000 1.0
C      1  0.4900540000000  0.4685290000000  0.5956740000000 1.0
C      1  0.4859310000000  0.4220960000000  0.5586560000000 1.0
C      1  0.4809150000000  0.5447920000000  0.4728410000000 1.0
C      1  0.4960710000000  0.4977280000000  0.4057750000000 1.0
C      1  0.5677540000000  0.5329850000000  0.5658570000000 1.0
C      1  0.5011940000000  0.5889310000000  0.4423930000000 1.0
C      1  0.5642520000000  0.4902170000000  0.4279290000000 1.0
C      1  0.4869190000000  0.4519320000000  0.4748640000000 1.0
C      1  0.5389830000000  0.5306690000000  0.5701210000000 1.0
C      1  0.5220570000000  0.4878010000000  0.3993610000000 1.0
C      1  0.5322330000000  0.4959670000000  0.5300670000000 1.0
C      1  0.5381630000000  0.5800830000000  0.4739610000000 1.0
C      1  0.4308350000000  0.4792030000000  0.4739780000000 1.0
C      1  0.4608320000000  0.5201210000000  0.4745780000000 1.0
C      1  0.4789150000000  0.4973220000000  0.5932650000000 1.0
C      1  0.5062030000000  0.4079190000000  0.5184600000000 1.0
C      1  0.5717110000000  0.4739850000000  0.4519610000000 1.0
C      1  0.4976100000000  0.4579450000000  0.5252240000000 1.0
C      1  0.5215670000000  0.4723580000000  0.5143330000000 1.0
C      1  0.4798790000000  0.5383200000000  0.5158360000000 1.0
C      1  0.5065370000000  0.5943500000000  0.5060890000000 1.0
C      1  0.4622130000000  0.4714800000000  0.5614010000000 1.0
C      1  0.4290660000000  0.5195550000000  0.5369610000000 1.0
C      1  0.4628810000000  0.4289730000000  0.5727850000000 1.0
C      1  0.5008070000000  0.5065670000000  0.4843570000000 1.0
C      1  0.5756650000000  0.5108810000000  0.5475320000000 1.0
C      1  0.5363010000000  0.4820070000000  0.5745900000000 1.0
C      1  0.5629760000000  0.4449380000000  0.4896520000000 1.0
C      1  0.4743210000000  0.5631750000000  0.5322770000000 1.0
C      1  0.4755980000000  0.4041210000000  0.4744230000000 1.0
C      1  0.5239730000000  0.5375640000000  0.5125660000000 1.0
C      1  0.4211490000000  0.5454790000000  0.5291340000000 1.0
C      1  0.5716050000000  0.5270650000000  0.5213100000000 1.0
C      1  0.5308470000000  0.4103610000000  0.5050020000000 1.0
C      1  0.4780800000000  0.4053760000000  0.5059760000000 1.0
C      1  0.4616170000000  0.4283260000000  0.5141330000000 1.0
C      1  0.4907240000000  0.4726280000000  0.5500930000000 1.0
C      1  0.4874770000000  0.5475390000000  0.4344290000000 1.0
C      1  0.4412290000000  0.4354690000000  0.5556580000000 1.0
C      1  0.5348950000000  0.4893940000000  0.4249210000000 1.0
C      1  0.5920790000000  0.5260120000000  0.5012440000000 1.0
C      1  0.4293110000000  0.5627640000000  0.5094120000000 1.0
C      1  0.5522020000000  0.4278800000000  0.5101890000000 1.0
C      1  0.4236200000000  0.4996190000000  0.5155500000000 1.0
C      1  0.5682690000000  0.4633990000000  0.5317310000000 1.0
C      1  0.4759000000000  0.4769570000000  0.4145240000000 1.0
C      1  0.5121420000000  0.5752910000000  0.4645860000000 1.0
C      1  0.5699470000000  0.5292250000000  0.4560110000000 1.0
C      1  0.4283580000000  0.5522940000000  0.4571590000000 1.0
C      1  0.4770850000000  0.4962540000000  0.5014240000000 1.0
C      1  0.5271240000000  0.5084720000000  0.5838850000000 1.0
C      1  0.4849470000000  0.4514930000000  0.4274630000000 1.0
C      1  0.4555950000000  0.4977860000000  0.5743070000000 1.0
C      1  0.4799320000000  0.5109670000000  0.5307880000000 1.0
C      1  0.5450510000000  0.5152970000000  0.5107020000000 1.0
C      1  0.4978430000000  0.5828430000000  0.5327400000000 1.0
C      1  0.4986410000000  0.5144180000000  0.5811250000000 1.0
END
