TITL C-950531-5884-73 -1.92676880281758e-06 125000 -973.31294770307 0 0 155 (C1) n - 1
REM
REM in /home/bkarasulu/work/CARBON/AIRSS/Generating-Clusters/EDIP-Nigel-Params/with-SteepDescent/Only-C1/SD-CG/HFTN-CG
REM
REM
REM
REM
REM
REM ./C.cell (11c1c37f851c82e70ff6c80c92926a4b)
REM
REM compiler GCC version 9.2.1 20190827 (Red Hat 9.2.1-1)
REM options -cpp -mtune=generic -march=x86-64 -g -O0 -fpre-include=/usr/include/finclude/math-vector-fortran.h
REM seed 1867311870 -1857611404 -897951449 2085245310 1248300592 1808687945 -1225021606 -210853471 -930430322 -1706295815 1778294269 765337506 1613886028 591768112 -527183768 1838775861 2097091616 435641060 1130223837 2120032194 486163987 1621024007 979568106 1907478345 -1868409169 -1995015143 -1834698922 -1056733999 866326413 1701919468 -1608337420 911140502 2034765386
REM
CELL 1.54180   50.00000   50.00000   50.00000   90.00000   90.00000   90.00000
LATT -1
SFAC C  
C      1  0.4139980000000  0.5097200000000  0.5005760000000 1.0
C      1  0.5394120000000  0.4847150000000  0.5295860000000 1.0
C      1  0.5223230000000  0.3988450000000  0.5185260000000 1.0
C      1  0.4163540000000  0.4598240000000  0.4704670000000 1.0
C      1  0.4917860000000  0.4830410000000  0.4340130000000 1.0
C      1  0.4338070000000  0.5834180000000  0.5071930000000 1.0
C      1  0.4556500000000  0.5376960000000  0.5242370000000 1.0
C      1  0.5049630000000  0.3996020000000  0.4435610000000 1.0
C      1  0.5070800000000  0.4007170000000  0.5438830000000 1.0
C      1  0.4866080000000  0.5500360000000  0.5442050000000 1.0
C      1  0.5245300000000  0.3951860000000  0.4661990000000 1.0
C      1  0.4519950000000  0.4914260000000  0.5391290000000 1.0
C      1  0.5394960000000  0.5223930000000  0.4101630000000 1.0
C      1  0.4585900000000  0.5955350000000  0.4635840000000 1.0
C      1  0.3980780000000  0.5332500000000  0.4614020000000 1.0
C      1  0.4042110000000  0.4644330000000  0.5184310000000 1.0
C      1  0.4131840000000  0.5383210000000  0.5112460000000 1.0
C      1  0.5326730000000  0.5194210000000  0.5988640000000 1.0
C      1  0.6048080000000  0.4865040000000  0.5016650000000 1.0
C      1  0.5415660000000  0.5317320000000  0.5272250000000 1.0
C      1  0.5058420000000  0.5054050000000  0.5520510000000 1.0
C      1  0.4138940000000  0.5780140000000  0.4495670000000 1.0
C      1  0.5929580000000  0.5071810000000  0.4590680000000 1.0
C      1  0.5763570000000  0.5912530000000  0.4975690000000 1.0
C      1  0.5004350000000  0.4268460000000  0.4847390000000 1.0
C      1  0.4833260000000  0.6105750000000  0.5028660000000 1.0
C      1  0.4426630000000  0.4977980000000  0.4958630000000 1.0
C      1  0.4115460000000  0.4852230000000  0.4561880000000 1.0
C      1  0.5803500000000  0.4727420000000  0.5546270000000 1.0
C      1  0.5008550000000  0.5860550000000  0.5735550000000 1.0
C      1  0.4823580000000  0.5863740000000  0.5211340000000 1.0
C      1  0.4753770000000  0.5915300000000  0.5587360000000 1.0
C      1  0.4524080000000  0.4073950000000  0.5010350000000 1.0
C      1  0.5263050000000  0.4665850000000  0.4758880000000 1.0
C      1  0.5158210000000  0.5299190000000  0.5094190000000 1.0
C      1  0.5283040000000  0.4748470000000  0.4013920000000 1.0
C      1  0.5183690000000  0.5178830000000  0.4617390000000 1.0
C      1  0.4041960000000  0.4923740000000  0.5237260000000 1.0
C      1  0.5813650000000  0.4450040000000  0.5118680000000 1.0
C      1  0.5126080000000  0.5475320000000  0.4618940000000 1.0
C      1  0.5030550000000  0.5107600000000  0.4874810000000 1.0
C      1  0.5086560000000  0.4752410000000  0.5899440000000 1.0
C      1  0.6003210000000  0.5142540000000  0.4878490000000 1.0
C      1  0.5514600000000  0.5849080000000  0.5087180000000 1.0
C      1  0.5567120000000  0.5640640000000  0.5302440000000 1.0
C      1  0.5844500000000  0.4425000000000  0.4825150000000 1.0
C      1  0.5025100000000  0.4599140000000  0.3979060000000 1.0
C      1  0.5212400000000  0.5032220000000  0.3999550000000 1.0
C      1  0.5050680000000  0.5095950000000  0.4343150000000 1.0
C      1  0.4554730000000  0.5527580000000  0.4400120000000 1.0
C      1  0.4262660000000  0.4631100000000  0.4983120000000 1.0
C      1  0.5801130000000  0.4810240000000  0.4612410000000 1.0
C      1  0.4569080000000  0.4777490000000  0.3894190000000 1.0
C      1  0.4495220000000  0.5202700000000  0.4064010000000 1.0
C      1  0.4817720000000  0.5175570000000  0.5992980000000 1.0
C      1  0.5645400000000  0.5310460000000  0.4829830000000 1.0
C      1  0.5479920000000  0.5111120000000  0.4670390000000 1.0
C      1  0.4339630000000  0.4338830000000  0.5380110000000 1.0
C      1  0.5653500000000  0.5195500000000  0.5132370000000 1.0
C      1  0.4649040000000  0.4568910000000  0.4665710000000 1.0
C      1  0.5465640000000  0.5752630000000  0.4606300000000 1.0
C      1  0.5427490000000  0.4723360000000  0.4284210000000 1.0
C      1  0.4334310000000  0.4663110000000  0.5706440000000 1.0
C      1  0.5119720000000  0.5565470000000  0.4915880000000 1.0
C      1  0.4748780000000  0.5262250000000  0.4775050000000 1.0
C      1  0.4062150000000  0.5591040000000  0.4686110000000 1.0
C      1  0.4645500000000  0.5423110000000  0.4147340000000 1.0
C      1  0.5605310000000  0.4893400000000  0.5106250000000 1.0
C      1  0.5095040000000  0.3895930000000  0.4922880000000 1.0
C      1  0.5297700000000  0.5489040000000  0.5945590000000 1.0
C      1  0.4795560000000  0.5460750000000  0.5921090000000 1.0
C      1  0.5322190000000  0.5687130000000  0.4358900000000 1.0
C      1  0.5184770000000  0.4699270000000  0.4468770000000 1.0
C      1  0.4568740000000  0.5044990000000  0.5926780000000 1.0
C      1  0.5301060000000  0.5816900000000  0.4870690000000 1.0
C      1  0.5575770000000  0.5096320000000  0.5850410000000 1.0
C      1  0.4968910000000  0.4768540000000  0.5471230000000 1.0
C      1  0.4684210000000  0.4674940000000  0.5400920000000 1.0
C      1  0.5751940000000  0.5205090000000  0.4412670000000 1.0
C      1  0.5574570000000  0.5044270000000  0.4252360000000 1.0
C      1  0.5144400000000  0.4713750000000  0.5234490000000 1.0
C      1  0.5702350000000  0.5571890000000  0.4656430000000 1.0
C      1  0.4409960000000  0.4485900000000  0.4296010000000 1.0
C      1  0.5221660000000  0.5904660000000  0.5533160000000 1.0
C      1  0.5840630000000  0.5303170000000  0.5455720000000 1.0
C      1  0.4831560000000  0.5671790000000  0.4962630000000 1.0
C      1  0.5357560000000  0.4254070000000  0.5138100000000 1.0
C      1  0.4781660000000  0.4053150000000  0.5185460000000 1.0
C      1  0.5836080000000  0.4469650000000  0.5647500000000 1.0
C      1  0.5844140000000  0.4735030000000  0.5220530000000 1.0
C      1  0.4415310000000  0.4934810000000  0.4067920000000 1.0
C      1  0.5078120000000  0.5038900000000  0.5962240000000 1.0
C      1  0.4852540000000  0.4360420000000  0.4596140000000 1.0
C      1  0.5136660000000  0.4185810000000  0.4225970000000 1.0
C      1  0.4938430000000  0.4390610000000  0.4162600000000 1.0
C      1  0.5665910000000  0.5317490000000  0.5685030000000 1.0
C      1  0.4755930000000  0.4690750000000  0.4914260000000 1.0
C      1  0.4203480000000  0.5601540000000  0.4937100000000 1.0
C      1  0.4516450000000  0.5756160000000  0.5631890000000 1.0
C      1  0.4614410000000  0.5081630000000  0.5185050000000 1.0
C      1  0.4566580000000  0.4757250000000  0.5893150000000 1.0
C      1  0.5088730000000  0.5778950000000  0.5308610000000 1.0
C      1  0.5508090000000  0.4085620000000  0.4653460000000 1.0
C      1  0.4839090000000  0.4333920000000  0.5759230000000 1.0
C      1  0.4864990000000  0.5866270000000  0.4631120000000 1.0
C      1  0.4642100000000  0.5491140000000  0.5663950000000 1.0
C      1  0.4324730000000  0.4406720000000  0.4562290000000 1.0
C      1  0.4939010000000  0.5406560000000  0.4142200000000 1.0
C      1  0.4642730000000  0.4829050000000  0.4504600000000 1.0
C      1  0.4831130000000  0.4609600000000  0.5862500000000 1.0
C      1  0.5149840000000  0.4419320000000  0.5266540000000 1.0
C      1  0.5487880000000  0.5762540000000  0.5566190000000 1.0
C      1  0.4901480000000  0.4322770000000  0.5128930000000 1.0
C      1  0.5651760000000  0.4334250000000  0.4597770000000 1.0
C      1  0.5612050000000  0.4326230000000  0.5551420000000 1.0
C      1  0.4654530000000  0.4373600000000  0.4200340000000 1.0
C      1  0.5231860000000  0.5463960000000  0.4190600000000 1.0
C      1  0.4014690000000  0.5077800000000  0.4728420000000 1.0
C      1  0.5890370000000  0.5693280000000  0.4849170000000 1.0
C      1  0.4280710000000  0.5427080000000  0.5364270000000 1.0
C      1  0.4768380000000  0.4068770000000  0.4539960000000 1.0
C      1  0.4831840000000  0.4812620000000  0.3989510000000 1.0
C      1  0.5050140000000  0.6028330000000  0.4816640000000 1.0
C      1  0.4417590000000  0.5784790000000  0.4455560000000 1.0
C      1  0.5553540000000  0.4834100000000  0.5704030000000 1.0
C      1  0.4727830000000  0.3936100000000  0.4813290000000 1.0
C      1  0.4109970000000  0.4502680000000  0.5426280000000 1.0
C      1  0.5339810000000  0.4386090000000  0.5663760000000 1.0
C      1  0.5861530000000  0.5542930000000  0.5302640000000 1.0
C      1  0.5975110000000  0.5482880000000  0.5037270000000 1.0
C      1  0.4217530000000  0.5216860000000  0.5590710000000 1.0
C      1  0.4956060000000  0.5233460000000  0.5313500000000 1.0
C      1  0.5996850000000  0.4673950000000  0.4778450000000 1.0
C      1  0.5410510000000  0.4251960000000  0.4205330000000 1.0
C      1  0.4623780000000  0.5465050000000  0.4965180000000 1.0
C      1  0.5295800000000  0.4353120000000  0.4841740000000 1.0
C      1  0.4690520000000  0.4525690000000  0.5134690000000 1.0
C      1  0.5529920000000  0.5560730000000  0.5777920000000 1.0
C      1  0.4354600000000  0.5205840000000  0.5836200000000 1.0
C      1  0.5533370000000  0.4836600000000  0.4797360000000 1.0
C      1  0.5347230000000  0.4635560000000  0.5817450000000 1.0
C      1  0.4818630000000  0.5494880000000  0.4550070000000 1.0
C      1  0.4527730000000  0.6026740000000  0.4922590000000 1.0
C      1  0.5038880000000  0.4796350000000  0.4941790000000 1.0
C      1  0.4535910000000  0.4463670000000  0.5566520000000 1.0
C      1  0.4393870000000  0.4786860000000  0.4330290000000 1.0
C      1  0.4432850000000  0.4373920000000  0.5096510000000 1.0
C      1  0.4556350000000  0.5054190000000  0.4694460000000 1.0
C      1  0.4312350000000  0.5726630000000  0.5419220000000 1.0
C      1  0.5088900000000  0.4215540000000  0.5651040000000 1.0
C      1  0.5354760000000  0.5077580000000  0.5477940000000 1.0
C      1  0.5627250000000  0.4275000000000  0.5262260000000 1.0
C      1  0.4234040000000  0.4936940000000  0.5481390000000 1.0
C      1  0.5041910000000  0.5584620000000  0.5836670000000 1.0
C      1  0.5578470000000  0.4446690000000  0.4323550000000 1.0
END
