TITL C-950536-5891-521 -1.76438684235052e-06 125000 -442.961067285613 0 0 72 (C1) n - 1
REM
REM in /home/bkarasulu/work/CARBON/AIRSS/Generating-Clusters/EDIP-Nigel-Params/with-SteepDescent/Only-C1/SD-CG/HFTN-CG
REM
REM
REM
REM
REM
REM ./C.cell (11c1c37f851c82e70ff6c80c92926a4b)
REM
REM compiler GCC version 9.2.1 20190827 (Red Hat 9.2.1-1)
REM options -cpp -mtune=generic -march=x86-64 -g -O0 -fpre-include=/usr/include/finclude/math-vector-fortran.h
REM seed 1666823828 999233527 1852460330 -634500706 733347521 -1614295324 1385785145 1645822754 1290953604 -1029718074 -1936004858 -1967246008 -1775223328 1415933062 1182092220 -849815307 -1216198677 -1871005233 -2067576947 -247758519 -2066538776 -109296421 -589721057 -888435934 -77159620 -726524935 1642456212 143140426 -1494492588 -1554965755 -1663655261 1037750448 18413092
REM
CELL 1.54180   50.00000   50.00000   50.00000   90.00000   90.00000   90.00000
LATT -1
SFAC C  
C      1  0.4557050000000  0.4427930000000  0.5058550000000 1.0
C      1  0.4504370000000  0.5355430000000  0.4638660000000 1.0
C      1  0.4970930000000  0.4468770000000  0.5684230000000 1.0
C      1  0.4932000000000  0.5029880000000  0.5287840000000 1.0
C      1  0.4748700000000  0.4330270000000  0.4852750000000 1.0
C      1  0.5707970000000  0.4988320000000  0.5254410000000 1.0
C      1  0.4627790000000  0.4902780000000  0.5651790000000 1.0
C      1  0.5292560000000  0.5219230000000  0.4942680000000 1.0
C      1  0.5690970000000  0.4427920000000  0.5081600000000 1.0
C      1  0.5198480000000  0.4361400000000  0.5093410000000 1.0
C      1  0.5794490000000  0.5027110000000  0.4975360000000 1.0
C      1  0.5505260000000  0.4843120000000  0.4692640000000 1.0
C      1  0.4346780000000  0.4855330000000  0.5261880000000 1.0
C      1  0.5071590000000  0.5274490000000  0.5161440000000 1.0
C      1  0.5748840000000  0.4448780000000  0.5350130000000 1.0
C      1  0.5612030000000  0.5195340000000  0.5412970000000 1.0
C      1  0.4476340000000  0.4621340000000  0.4544040000000 1.0
C      1  0.4634830000000  0.4351290000000  0.5342010000000 1.0
C      1  0.5148950000000  0.4684650000000  0.4400050000000 1.0
C      1  0.5041800000000  0.4472610000000  0.4233150000000 1.0
C      1  0.5140850000000  0.4972130000000  0.4284600000000 1.0
C      1  0.4915950000000  0.4358340000000  0.5435400000000 1.0
C      1  0.4886830000000  0.5711200000000  0.4636710000000 1.0
C      1  0.5350240000000  0.5669480000000  0.4902300000000 1.0
C      1  0.4527530000000  0.5285660000000  0.5400480000000 1.0
C      1  0.4528390000000  0.4742570000000  0.5035100000000 1.0
C      1  0.4311050000000  0.5151130000000  0.5264500000000 1.0
C      1  0.4648940000000  0.4922190000000  0.4377280000000 1.0
C      1  0.5429790000000  0.4386930000000  0.4679210000000 1.0
C      1  0.4862110000000  0.5073730000000  0.4244020000000 1.0
C      1  0.5388220000000  0.5320060000000  0.5522350000000 1.0
C      1  0.4985150000000  0.4917750000000  0.4826850000000 1.0
C      1  0.5218590000000  0.4912360000000  0.5787970000000 1.0
C      1  0.4617990000000  0.5504820000000  0.5227410000000 1.0
C      1  0.5411820000000  0.4616560000000  0.4525430000000 1.0
C      1  0.5121090000000  0.4210580000000  0.5315180000000 1.0
C      1  0.5217680000000  0.5733240000000  0.5167130000000 1.0
C      1  0.4462870000000  0.4477710000000  0.5522720000000 1.0
C      1  0.5194340000000  0.5484610000000  0.5354390000000 1.0
C      1  0.4782570000000  0.5703190000000  0.5386600000000 1.0
C      1  0.4926640000000  0.5299750000000  0.5690930000000 1.0
C      1  0.5764210000000  0.4783850000000  0.4827740000000 1.0
C      1  0.5576600000000  0.5480790000000  0.4938720000000 1.0
C      1  0.5669040000000  0.4714720000000  0.5341460000000 1.0
C      1  0.5451460000000  0.4333880000000  0.4952540000000 1.0
C      1  0.4935400000000  0.5840140000000  0.5159410000000 1.0
C      1  0.4837940000000  0.4829020000000  0.5078740000000 1.0
C      1  0.4773640000000  0.5759060000000  0.4910360000000 1.0
C      1  0.5170980000000  0.5317680000000  0.4662980000000 1.0
C      1  0.4833770000000  0.5387480000000  0.5002080000000 1.0
C      1  0.5308060000000  0.5189080000000  0.4422150000000 1.0
C      1  0.4944070000000  0.4698650000000  0.4616930000000 1.0
C      1  0.5108140000000  0.4669650000000  0.5795030000000 1.0
C      1  0.5203280000000  0.5181750000000  0.5714640000000 1.0
C      1  0.5565920000000  0.5093280000000  0.4533480000000 1.0
C      1  0.5288590000000  0.4922730000000  0.4893670000000 1.0
C      1  0.5174030000000  0.5615720000000  0.4655940000000 1.0
C      1  0.4840230000000  0.5351630000000  0.4290470000000 1.0
C      1  0.4711040000000  0.5511590000000  0.4484480000000 1.0
C      1  0.4750730000000  0.5122270000000  0.5512860000000 1.0
C      1  0.4423240000000  0.4753070000000  0.5530160000000 1.0
C      1  0.4364270000000  0.5471720000000  0.4864070000000 1.0
C      1  0.4730140000000  0.4477760000000  0.4581410000000 1.0
C      1  0.4830170000000  0.4341340000000  0.4345000000000 1.0
C      1  0.4472120000000  0.5723730000000  0.4953920000000 1.0
C      1  0.4979540000000  0.4492340000000  0.4948360000000 1.0
C      1  0.4417760000000  0.4822220000000  0.4752180000000 1.0
C      1  0.4900700000000  0.5205670000000  0.4744170000000 1.0
C      1  0.4513320000000  0.5058020000000  0.4596460000000 1.0
C      1  0.4231610000000  0.5293010000000  0.5034700000000 1.0
C      1  0.4986200000000  0.5562820000000  0.5553930000000 1.0
C      1  0.5703450000000  0.5255310000000  0.4795800000000 1.0
END
