TITL C-950527-2551-674 -3.35671344990847e-08 125000 -541.811602925597 0 0 88 (C1) n - 1
REM
REM in /home/bkarasulu/work/CARBON/AIRSS/Generating-Clusters/EDIP-Nigel-Params/with-SteepDescent/Only-C1/SD-CG/HFTN-CG
REM
REM
REM
REM
REM
REM ./C.cell (11c1c37f851c82e70ff6c80c92926a4b)
REM
REM compiler GCC version 9.2.1 20190827 (Red Hat 9.2.1-1)
REM options -cpp -mtune=generic -march=x86-64 -g -O0 -fpre-include=/usr/include/finclude/math-vector-fortran.h
REM seed 1652475205 -216882831 -401140970 -2086704902 -663763776 -1572980249 1364227074 966510789 -1914189873 491192368 1725283939 1438617098 1178390392 1298912599 -321823153 1111963313 914325656 -1121264988 -1667309590 2073286980 -1961248746 1040931861 -304323469 1602913323 -552869637 -1776214289 1987020036 1751943916 998874922 367386830 886186005 1313893102 872642861
REM
CELL 1.54180   50.00000   50.00000   50.00000   90.00000   90.00000   90.00000
LATT -1
SFAC C  
C      1  0.4932640000000  0.4637440000000  0.4213760000000 1.0
C      1  0.5366780000000  0.5305930000000  0.4925800000000 1.0
C      1  0.4730980000000  0.4825480000000  0.4369200000000 1.0
C      1  0.5349010000000  0.5205980000000  0.5800150000000 1.0
C      1  0.4886320000000  0.5127810000000  0.4750370000000 1.0
C      1  0.4225650000000  0.4511240000000  0.4884960000000 1.0
C      1  0.5821700000000  0.5364410000000  0.4953650000000 1.0
C      1  0.5133010000000  0.4847820000000  0.4174190000000 1.0
C      1  0.5549190000000  0.4549170000000  0.5430170000000 1.0
C      1  0.5442520000000  0.5047650000000  0.5074650000000 1.0
C      1  0.5420030000000  0.5557720000000  0.5105420000000 1.0
C      1  0.4849010000000  0.4320250000000  0.4806190000000 1.0
C      1  0.4596370000000  0.4339410000000  0.5169080000000 1.0
C      1  0.4815850000000  0.5189270000000  0.5696760000000 1.0
C      1  0.4688170000000  0.5639090000000  0.5527020000000 1.0
C      1  0.5316280000000  0.5139640000000  0.4477160000000 1.0
C      1  0.5457160000000  0.5770250000000  0.5549710000000 1.0
C      1  0.5201880000000  0.4737480000000  0.5639720000000 1.0
C      1  0.5089850000000  0.5543270000000  0.4575590000000 1.0
C      1  0.4328410000000  0.5369860000000  0.5189480000000 1.0
C      1  0.4345560000000  0.5128040000000  0.4496650000000 1.0
C      1  0.4882050000000  0.4757070000000  0.5097430000000 1.0
C      1  0.5161760000000  0.5283690000000  0.4686940000000 1.0
C      1  0.4653440000000  0.4171910000000  0.4951550000000 1.0
C      1  0.5879760000000  0.4643290000000  0.5081640000000 1.0
C      1  0.4866630000000  0.5516170000000  0.4383670000000 1.0
C      1  0.4092610000000  0.4763690000000  0.4793950000000 1.0
C      1  0.5612160000000  0.5342620000000  0.4738280000000 1.0
C      1  0.4805210000000  0.4280730000000  0.4520250000000 1.0
C      1  0.5528930000000  0.4262150000000  0.5003760000000 1.0
C      1  0.5755230000000  0.5068780000000  0.5059350000000 1.0
C      1  0.4927880000000  0.4862680000000  0.4607500000000 1.0
C      1  0.4310480000000  0.5340140000000  0.4701560000000 1.0
C      1  0.5208440000000  0.4873030000000  0.4471560000000 1.0
C      1  0.4636860000000  0.5733300000000  0.5260400000000 1.0
C      1  0.5016920000000  0.5721930000000  0.4787200000000 1.0
C      1  0.5241150000000  0.5333030000000  0.5562530000000 1.0
C      1  0.4452890000000  0.5601090000000  0.4782940000000 1.0
C      1  0.5393790000000  0.4715190000000  0.4656790000000 1.0
C      1  0.4190590000000  0.4879220000000  0.4535610000000 1.0
C      1  0.4442750000000  0.5613760000000  0.5085780000000 1.0
C      1  0.4984790000000  0.5281020000000  0.5154040000000 1.0
C      1  0.5248360000000  0.4894300000000  0.5374540000000 1.0
C      1  0.4663710000000  0.5700130000000  0.4478090000000 1.0
C      1  0.4620070000000  0.5369790000000  0.5593270000000 1.0
C      1  0.4561600000000  0.5031760000000  0.4865690000000 1.0
C      1  0.4982570000000  0.5573170000000  0.5294760000000 1.0
C      1  0.5872410000000  0.4878700000000  0.5296660000000 1.0
C      1  0.5224100000000  0.5777040000000  0.4997000000000 1.0
C      1  0.5212460000000  0.4395280000000  0.5184440000000 1.0
C      1  0.5332570000000  0.4475770000000  0.5597680000000 1.0
C      1  0.5641090000000  0.4483750000000  0.5157650000000 1.0
C      1  0.5664590000000  0.4805640000000  0.5490910000000 1.0
C      1  0.4820500000000  0.4633890000000  0.4837030000000 1.0
C      1  0.4896070000000  0.4706530000000  0.5680660000000 1.0
C      1  0.5682620000000  0.4829850000000  0.4610400000000 1.0
C      1  0.5402130000000  0.5527260000000  0.5415090000000 1.0
C      1  0.5071590000000  0.5145820000000  0.5411660000000 1.0
C      1  0.4999100000000  0.5093480000000  0.4120490000000 1.0
C      1  0.4774240000000  0.5044170000000  0.5110970000000 1.0
C      1  0.4769610000000  0.4298630000000  0.5399400000000 1.0
C      1  0.5866400000000  0.4857200000000  0.4852170000000 1.0
C      1  0.4363480000000  0.4794440000000  0.5201390000000 1.0
C      1  0.5158280000000  0.4702950000000  0.5151270000000 1.0
C      1  0.5611480000000  0.5122790000000  0.4528310000000 1.0
C      1  0.5321420000000  0.4813090000000  0.4932930000000 1.0
C      1  0.4488120000000  0.4940140000000  0.5426400000000 1.0
C      1  0.4757660000000  0.5830740000000  0.4714080000000 1.0
C      1  0.5291660000000  0.5954390000000  0.5437470000000 1.0
C      1  0.5284240000000  0.4437340000000  0.4605400000000 1.0
C      1  0.4768260000000  0.4470070000000  0.5614600000000 1.0
C      1  0.5035670000000  0.4428090000000  0.4415290000000 1.0
C      1  0.4537890000000  0.5145950000000  0.4276310000000 1.0
C      1  0.5350580000000  0.4912730000000  0.5844270000000 1.0
C      1  0.4481300000000  0.5227310000000  0.5387670000000 1.0
C      1  0.4529900000000  0.4716590000000  0.4795220000000 1.0
C      1  0.5106230000000  0.5866350000000  0.5245210000000 1.0
C      1  0.4555010000000  0.4386140000000  0.4438110000000 1.0
C      1  0.4168840000000  0.4928780000000  0.5028280000000 1.0
C      1  0.4506200000000  0.4665920000000  0.4489470000000 1.0
C      1  0.4358220000000  0.4511210000000  0.5144880000000 1.0
C      1  0.5714380000000  0.5599180000000  0.5082350000000 1.0
C      1  0.5287870000000  0.4264450000000  0.4840830000000 1.0
C      1  0.5026430000000  0.4224990000000  0.5324070000000 1.0
C      1  0.4808890000000  0.5246770000000  0.4266690000000 1.0
C      1  0.5624260000000  0.4937780000000  0.5743810000000 1.0
C      1  0.4230650000000  0.5214750000000  0.4963620000000 1.0
C      1  0.4736600000000  0.4933210000000  0.5601090000000 1.0
END
