TITL C-951347-9520-283 -1.17391982138719e-06 125000 -705.224159671835 0 0 113 (C1) n - 1
REM
REM in /home/bkarasulu/work/CARBON/AIRSS/Generating-Clusters/EDIP-Nigel-Params/with-SteepDescent/Only-C1/SD-CG/HFTN-CG
REM
REM
REM
REM
REM
REM ./C.cell (11c1c37f851c82e70ff6c80c92926a4b)
REM
REM compiler GCC version 9.2.1 20190827 (Red Hat 9.2.1-1)
REM options -cpp -mtune=generic -march=x86-64 -g -O0 -fpre-include=/usr/include/finclude/math-vector-fortran.h
REM seed 548304624 -1173395799 1581756019 108407289 1445739972 -1740249324 1661838776 1410783777 -375032364 -1165806115 -1727704438 2101216411 -634942410 404659342 -44023562 973888190 -1292823501 -485656224 -957305709 1701470478 1962576151 -1853903400 -1054303898 -1514518869 -1861652318 816172323 1016213229 684892789 1072879411 125185845 71683688 386539040 581883185
REM
CELL 1.54180   50.00000   50.00000   50.00000   90.00000   90.00000   90.00000
LATT -1
SFAC C  
C      1  0.5450110000000  0.5476270000000  0.4300830000000 1.0
C      1  0.4409610000000  0.5094140000000  0.4387560000000 1.0
C      1  0.4375630000000  0.5091160000000  0.5257080000000 1.0
C      1  0.4361170000000  0.4335070000000  0.5087910000000 1.0
C      1  0.4653180000000  0.4204650000000  0.5142170000000 1.0
C      1  0.5088650000000  0.5410050000000  0.5772430000000 1.0
C      1  0.4864760000000  0.5713510000000  0.5222450000000 1.0
C      1  0.4761840000000  0.5563530000000  0.4983630000000 1.0
C      1  0.4310400000000  0.5597220000000  0.5215450000000 1.0
C      1  0.4685380000000  0.5091480000000  0.4768100000000 1.0
C      1  0.4080960000000  0.4775150000000  0.5149580000000 1.0
C      1  0.5514300000000  0.5068790000000  0.4750430000000 1.0
C      1  0.5729820000000  0.4425650000000  0.5187970000000 1.0
C      1  0.5160350000000  0.4640760000000  0.4728610000000 1.0
C      1  0.5065340000000  0.4438180000000  0.5740320000000 1.0
C      1  0.4631850000000  0.4790870000000  0.4972330000000 1.0
C      1  0.5018200000000  0.5636100000000  0.4121340000000 1.0
C      1  0.5455540000000  0.4623780000000  0.5511860000000 1.0
C      1  0.5702500000000  0.4899570000000  0.4590030000000 1.0
C      1  0.4329020000000  0.5511610000000  0.5484640000000 1.0
C      1  0.4925990000000  0.4841090000000  0.5048470000000 1.0
C      1  0.4126240000000  0.5072530000000  0.5099820000000 1.0
C      1  0.4876380000000  0.4353450000000  0.5022680000000 1.0
C      1  0.5369350000000  0.5834460000000  0.5159030000000 1.0
C      1  0.4877690000000  0.4394660000000  0.4406140000000 1.0
C      1  0.4614770000000  0.4584900000000  0.5664370000000 1.0
C      1  0.5256570000000  0.4773570000000  0.5338420000000 1.0
C      1  0.4950960000000  0.5907800000000  0.4606590000000 1.0
C      1  0.4757970000000  0.5930610000000  0.4400230000000 1.0
C      1  0.4506290000000  0.4623580000000  0.4316170000000 1.0
C      1  0.4827070000000  0.4905700000000  0.4532610000000 1.0
C      1  0.5183210000000  0.5056800000000  0.5359550000000 1.0
C      1  0.5241510000000  0.5520850000000  0.4787860000000 1.0
C      1  0.5814280000000  0.4685510000000  0.4776460000000 1.0
C      1  0.5880940000000  0.4853690000000  0.5020440000000 1.0
C      1  0.4506020000000  0.4819370000000  0.5261730000000 1.0
C      1  0.5307040000000  0.4403900000000  0.4596200000000 1.0
C      1  0.5707320000000  0.5493040000000  0.4588550000000 1.0
C      1  0.5638790000000  0.4492220000000  0.4925290000000 1.0
C      1  0.4531450000000  0.5656770000000  0.5631470000000 1.0
C      1  0.4545150000000  0.5293540000000  0.4579930000000 1.0
C      1  0.4705550000000  0.5767370000000  0.5443530000000 1.0
C      1  0.5260460000000  0.5714650000000  0.4282000000000 1.0
C      1  0.4991360000000  0.4639740000000  0.5257100000000 1.0
C      1  0.4206320000000  0.4981230000000  0.4590260000000 1.0
C      1  0.5428570000000  0.5938440000000  0.4694580000000 1.0
C      1  0.5355560000000  0.4819340000000  0.5940960000000 1.0
C      1  0.5826430000000  0.5410880000000  0.5328180000000 1.0
C      1  0.4618200000000  0.4889620000000  0.4303550000000 1.0
C      1  0.4233400000000  0.4702430000000  0.4687260000000 1.0
C      1  0.5325370000000  0.4584040000000  0.5772650000000 1.0
C      1  0.4742060000000  0.4188540000000  0.5415430000000 1.0
C      1  0.4454860000000  0.5582280000000  0.4974170000000 1.0
C      1  0.5243530000000  0.4275550000000  0.5268340000000 1.0
C      1  0.4839940000000  0.5306920000000  0.5824470000000 1.0
C      1  0.5273440000000  0.4155830000000  0.4995240000000 1.0
C      1  0.5457250000000  0.5695850000000  0.5629410000000 1.0
C      1  0.5444110000000  0.5726050000000  0.4889460000000 1.0
C      1  0.5325830000000  0.5450480000000  0.5641350000000 1.0
C      1  0.5372150000000  0.5269600000000  0.5422300000000 1.0
C      1  0.5501720000000  0.4365160000000  0.5377600000000 1.0
C      1  0.4524240000000  0.4321100000000  0.5555980000000 1.0
C      1  0.4757030000000  0.5024940000000  0.5752920000000 1.0
C      1  0.4353640000000  0.4504350000000  0.4518520000000 1.0
C      1  0.5684790000000  0.5089180000000  0.5022900000000 1.0
C      1  0.5490040000000  0.4678990000000  0.4190500000000 1.0
C      1  0.4360570000000  0.4749980000000  0.5709320000000 1.0
C      1  0.5292530000000  0.4995560000000  0.4257500000000 1.0
C      1  0.5873790000000  0.4676210000000  0.5269440000000 1.0
C      1  0.5077860000000  0.4213680000000  0.4543460000000 1.0
C      1  0.4450490000000  0.5032610000000  0.5740840000000 1.0
C      1  0.5227490000000  0.5927770000000  0.4495380000000 1.0
C      1  0.4334250000000  0.5210800000000  0.5517750000000 1.0
C      1  0.5441460000000  0.5354740000000  0.4617090000000 1.0
C      1  0.4289320000000  0.4374900000000  0.5381450000000 1.0
C      1  0.5650160000000  0.5179540000000  0.5396060000000 1.0
C      1  0.4884490000000  0.4613390000000  0.4617270000000 1.0
C      1  0.5067860000000  0.5357660000000  0.4022690000000 1.0
C      1  0.4154330000000  0.5181420000000  0.4809270000000 1.0
C      1  0.5476310000000  0.4284690000000  0.4807140000000 1.0
C      1  0.5821550000000  0.5367790000000  0.5044620000000 1.0
C      1  0.4486980000000  0.4342700000000  0.4719060000000 1.0
C      1  0.5021250000000  0.4143860000000  0.4841370000000 1.0
C      1  0.5024330000000  0.4272930000000  0.5482940000000 1.0
C      1  0.4763620000000  0.5671090000000  0.4280460000000 1.0
C      1  0.5441470000000  0.4463560000000  0.4351080000000 1.0
C      1  0.5725220000000  0.4757700000000  0.5518360000000 1.0
C      1  0.4892450000000  0.4693580000000  0.3982580000000 1.0
C      1  0.4825890000000  0.5266950000000  0.4975860000000 1.0
C      1  0.5736470000000  0.5020600000000  0.5641740000000 1.0
C      1  0.5238910000000  0.4931260000000  0.4746350000000 1.0
C      1  0.4972650000000  0.5103280000000  0.5161020000000 1.0
C      1  0.5106520000000  0.5018950000000  0.4497660000000 1.0
C      1  0.5656310000000  0.4873720000000  0.4305540000000 1.0
C      1  0.4228060000000  0.4607230000000  0.4962370000000 1.0
C      1  0.5519100000000  0.5808330000000  0.5391480000000 1.0
C      1  0.5326810000000  0.5260220000000  0.4124600000000 1.0
C      1  0.4222040000000  0.4665150000000  0.5422940000000 1.0
C      1  0.5726240000000  0.5590130000000  0.4863080000000 1.0
C      1  0.5558740000000  0.4998570000000  0.5861470000000 1.0
C      1  0.4862560000000  0.5172090000000  0.3978770000000 1.0
C      1  0.4701530000000  0.4519870000000  0.4832500000000 1.0
C      1  0.4825570000000  0.4560710000000  0.5876530000000 1.0
C      1  0.4751640000000  0.4926040000000  0.4040110000000 1.0
C      1  0.4865440000000  0.4839080000000  0.5968300000000 1.0
C      1  0.5099040000000  0.5851830000000  0.5196960000000 1.0
C      1  0.4787320000000  0.5469420000000  0.4497420000000 1.0
C      1  0.5121500000000  0.4890280000000  0.6072320000000 1.0
C      1  0.4942670000000  0.5621180000000  0.4717400000000 1.0
C      1  0.4748950000000  0.4771770000000  0.5450660000000 1.0
C      1  0.4641390000000  0.5499450000000  0.5831970000000 1.0
C      1  0.4338950000000  0.5418900000000  0.4758270000000 1.0
C      1  0.4928500000000  0.4480700000000  0.4144150000000 1.0
END
