TITL C-951340-9809-523 -1.2482032460443e-05 125000 -463.33369878977 0 0 76 (C1) n - 1
REM
REM in /home/bkarasulu/work/CARBON/AIRSS/Generating-Clusters/EDIP-Nigel-Params/with-SteepDescent/Only-C1/SD-CG/HFTN-CG
REM
REM
REM
REM
REM
REM ./C.cell (11c1c37f851c82e70ff6c80c92926a4b)
REM
REM compiler GCC version 9.2.1 20190827 (Red Hat 9.2.1-1)
REM options -cpp -mtune=generic -march=x86-64 -g -O0 -fpre-include=/usr/include/finclude/math-vector-fortran.h
REM seed 1824012757 -1937988435 122231400 -955484150 793586591 185335749 -1477949060 1120775004 74444483 -1057407380 -1705998762 -1519387374 -1167729821 837857245 1895590478 346364665 1787740915 -1524938044 -612286887 2120471627 1116530961 429656915 2027586152 2140908949 -1712623860 1599866062 -1722554448 -1206695088 -1461669826 -1514302365 1513607632 820583657 863901729
REM
CELL 1.54180   50.00000   50.00000   50.00000   90.00000   90.00000   90.00000
LATT -1
SFAC C  
C      1  0.5336630000000  0.5305050000000  0.5295180000000 1.0
C      1  0.4594130000000  0.4862340000000  0.5603760000000 1.0
C      1  0.5065360000000  0.5014330000000  0.4633840000000 1.0
C      1  0.5059790000000  0.5663820000000  0.5135740000000 1.0
C      1  0.5720930000000  0.4933210000000  0.5416520000000 1.0
C      1  0.5255000000000  0.5736540000000  0.4808240000000 1.0
C      1  0.4948190000000  0.5242070000000  0.4787950000000 1.0
C      1  0.4729110000000  0.4422080000000  0.5435180000000 1.0
C      1  0.5678210000000  0.5117410000000  0.4667170000000 1.0
C      1  0.4468640000000  0.5474900000000  0.5075820000000 1.0
C      1  0.5367050000000  0.4954850000000  0.5005310000000 1.0
C      1  0.4630890000000  0.5634640000000  0.5591340000000 1.0
C      1  0.5415540000000  0.4626950000000  0.4672140000000 1.0
C      1  0.5333380000000  0.5006010000000  0.5297980000000 1.0
C      1  0.4373330000000  0.4559440000000  0.4909960000000 1.0
C      1  0.4720130000000  0.5801160000000  0.5373320000000 1.0
C      1  0.5653890000000  0.4460710000000  0.5048030000000 1.0
C      1  0.4362720000000  0.4668320000000  0.5191190000000 1.0
C      1  0.4640990000000  0.4457870000000  0.4775770000000 1.0
C      1  0.4843620000000  0.4404330000000  0.4987330000000 1.0
C      1  0.5483340000000  0.5560680000000  0.4818080000000 1.0
C      1  0.4627140000000  0.5723380000000  0.5101980000000 1.0
C      1  0.4809650000000  0.4849800000000  0.5782510000000 1.0
C      1  0.5645820000000  0.4961130000000  0.4925220000000 1.0
C      1  0.4970220000000  0.4709300000000  0.4281770000000 1.0
C      1  0.5305710000000  0.4798730000000  0.5730120000000 1.0
C      1  0.4584590000000  0.5475590000000  0.4571260000000 1.0
C      1  0.5017310000000  0.4056510000000  0.4991380000000 1.0
C      1  0.5149520000000  0.5382540000000  0.5046220000000 1.0
C      1  0.4465970000000  0.5338950000000  0.4811770000000 1.0
C      1  0.5539510000000  0.5357320000000  0.4639380000000 1.0
C      1  0.4312500000000  0.5114760000000  0.4412340000000 1.0
C      1  0.4904490000000  0.5130570000000  0.5213890000000 1.0
C      1  0.5030940000000  0.4625560000000  0.5027220000000 1.0
C      1  0.5018910000000  0.4130580000000  0.4704880000000 1.0
C      1  0.5000470000000  0.5339790000000  0.4313480000000 1.0
C      1  0.5019200000000  0.4641940000000  0.5325190000000 1.0
C      1  0.5232960000000  0.5155400000000  0.4320450000000 1.0
C      1  0.5671390000000  0.4946570000000  0.4445650000000 1.0
C      1  0.5650370000000  0.5562250000000  0.5040430000000 1.0
C      1  0.5761950000000  0.5100620000000  0.5187160000000 1.0
C      1  0.5201100000000  0.4791840000000  0.4827160000000 1.0
C      1  0.5056500000000  0.4935270000000  0.5385210000000 1.0
C      1  0.5552740000000  0.4899130000000  0.5631400000000 1.0
C      1  0.5355260000000  0.4394070000000  0.5406990000000 1.0
C      1  0.5660250000000  0.4657030000000  0.4849220000000 1.0
C      1  0.4815560000000  0.4293850000000  0.4566650000000 1.0
C      1  0.4509510000000  0.5306150000000  0.4336890000000 1.0
C      1  0.4815030000000  0.5395510000000  0.5326180000000 1.0
C      1  0.4834190000000  0.4930430000000  0.4431310000000 1.0
C      1  0.4715810000000  0.5350790000000  0.5614910000000 1.0
C      1  0.5010170000000  0.5281650000000  0.5705130000000 1.0
C      1  0.4983260000000  0.5719900000000  0.4703870000000 1.0
C      1  0.4668580000000  0.5021470000000  0.5101350000000 1.0
C      1  0.4890000000000  0.5458570000000  0.4584500000000 1.0
C      1  0.5452310000000  0.4305320000000  0.5160130000000 1.0
C      1  0.4922750000000  0.4442550000000  0.4355140000000 1.0
C      1  0.5201440000000  0.5442850000000  0.5539150000000 1.0
C      1  0.4350300000000  0.4870350000000  0.4546270000000 1.0
C      1  0.4509860000000  0.5133750000000  0.5532580000000 1.0
C      1  0.5627630000000  0.5368460000000  0.5240580000000 1.0
C      1  0.4217250000000  0.4781620000000  0.4788590000000 1.0
C      1  0.4584430000000  0.4663910000000  0.5389440000000 1.0
C      1  0.4774380000000  0.5820970000000  0.4874250000000 1.0
C      1  0.4764700000000  0.5171190000000  0.4251770000000 1.0
C      1  0.5294930000000  0.4139680000000  0.4982230000000 1.0
C      1  0.5478000000000  0.4743220000000  0.4401280000000 1.0
C      1  0.4768600000000  0.4242010000000  0.5221510000000 1.0
C      1  0.5087670000000  0.5695870000000  0.5433270000000 1.0
C      1  0.4435470000000  0.5143180000000  0.5234490000000 1.0
C      1  0.5243030000000  0.4535020000000  0.5617780000000 1.0
C      1  0.4666910000000  0.5112970000000  0.4831680000000 1.0
C      1  0.5239840000000  0.4858990000000  0.4259780000000 1.0
C      1  0.5048690000000  0.4978620000000  0.5685650000000 1.0
C      1  0.4237200000000  0.4930290000000  0.5141270000000 1.0
C      1  0.4627150000000  0.4875490000000  0.4640240000000 1.0
END
