TITL C-950522-5749-266 -3.48665545800459e-06 125000 -1248.96636799201 0 0 199 (C1) n - 1
REM
REM in /home/bkarasulu/work/CARBON/AIRSS/Generating-Clusters/EDIP-Nigel-Params/with-SteepDescent/Only-C1/SD-CG/HFTN-CG
REM
REM
REM
REM
REM
REM ./C.cell (11c1c37f851c82e70ff6c80c92926a4b)
REM
REM compiler GCC version 9.2.1 20190827 (Red Hat 9.2.1-1)
REM options -cpp -mtune=generic -march=x86-64 -g -O0 -fpre-include=/usr/include/finclude/math-vector-fortran.h
REM seed -582546469 -673640405 1398640354 -1181386097 1571334981 612694453 1469686783 2124549056 -1734218382 -1431708629 -1602200781 -894216128 651381445 -1893016733 -1309536946 281606699 185032259 2058722399 1428187414 -983837484 1233779706 -673677635 226896307 -422609385 -658197128 -1811538546 1167517746 -1242676030 -1233879818 -1505593149 952238575 1687036962 992621030
REM
CELL 1.54180   50.00000   50.00000   50.00000   90.00000   90.00000   90.00000
LATT -1
SFAC C  
C      1  0.5403050000000  0.4603120000000  0.5521100000000 1.0
C      1  0.4413020000000  0.5187250000000  0.5901120000000 1.0
C      1  0.4975960000000  0.5357720000000  0.4090910000000 1.0
C      1  0.4863480000000  0.6035040000000  0.4633090000000 1.0
C      1  0.4775040000000  0.5432120000000  0.6158400000000 1.0
C      1  0.5982860000000  0.5359370000000  0.4496770000000 1.0
C      1  0.4894690000000  0.4053160000000  0.4326260000000 1.0
C      1  0.4532040000000  0.5649630000000  0.4306570000000 1.0
C      1  0.4926610000000  0.5134460000000  0.5371820000000 1.0
C      1  0.5633890000000  0.4776690000000  0.5954670000000 1.0
C      1  0.4429750000000  0.4895040000000  0.5524550000000 1.0
C      1  0.5871780000000  0.5639690000000  0.4508790000000 1.0
C      1  0.4960590000000  0.5001390000000  0.6087060000000 1.0
C      1  0.5495700000000  0.4535430000000  0.4118890000000 1.0
C      1  0.6027620000000  0.5226300000000  0.5470750000000 1.0
C      1  0.4647970000000  0.4474600000000  0.5802480000000 1.0
C      1  0.4642530000000  0.5033180000000  0.3865830000000 1.0
C      1  0.4203410000000  0.5643270000000  0.4630400000000 1.0
C      1  0.5224090000000  0.4450690000000  0.5894180000000 1.0
C      1  0.5160460000000  0.5668480000000  0.5981080000000 1.0
C      1  0.5710560000000  0.5257700000000  0.4871650000000 1.0
C      1  0.3914290000000  0.4868150000000  0.5240090000000 1.0
C      1  0.5189940000000  0.3807770000000  0.4974620000000 1.0
C      1  0.4087040000000  0.5646730000000  0.5410820000000 1.0
C      1  0.5569030000000  0.6028960000000  0.4889320000000 1.0
C      1  0.5079220000000  0.4039870000000  0.4556220000000 1.0
C      1  0.3872000000000  0.5255120000000  0.4828250000000 1.0
C      1  0.4251050000000  0.5409510000000  0.5805290000000 1.0
C      1  0.5749230000000  0.5449580000000  0.4079670000000 1.0
C      1  0.4636920000000  0.3939740000000  0.5125880000000 1.0
C      1  0.4061730000000  0.5592280000000  0.5121920000000 1.0
C      1  0.3919070000000  0.5136590000000  0.4594030000000 1.0
C      1  0.4801390000000  0.5741080000000  0.4216640000000 1.0
C      1  0.4812990000000  0.4076380000000  0.5575960000000 1.0
C      1  0.5369250000000  0.5870680000000  0.5357000000000 1.0
C      1  0.3971140000000  0.4677550000000  0.5472490000000 1.0
C      1  0.4477130000000  0.4242130000000  0.4182270000000 1.0
C      1  0.5173950000000  0.4992470000000  0.5348570000000 1.0
C      1  0.5424250000000  0.4953300000000  0.5994560000000 1.0
C      1  0.5789100000000  0.4280520000000  0.4852490000000 1.0
C      1  0.5173340000000  0.4985780000000  0.5863990000000 1.0
C      1  0.4777320000000  0.5120570000000  0.5131550000000 1.0
C      1  0.4983150000000  0.3819570000000  0.4754050000000 1.0
C      1  0.4205170000000  0.4653190000000  0.5899140000000 1.0
C      1  0.4521960000000  0.4016920000000  0.4643950000000 1.0
C      1  0.5858730000000  0.4885740000000  0.4555500000000 1.0
C      1  0.4912900000000  0.5099170000000  0.3956890000000 1.0
C      1  0.5038250000000  0.4260620000000  0.4754990000000 1.0
C      1  0.6000390000000  0.4639500000000  0.4590210000000 1.0
C      1  0.5154640000000  0.4779390000000  0.5573100000000 1.0
C      1  0.4171100000000  0.4795620000000  0.5662650000000 1.0
C      1  0.4940620000000  0.5933210000000  0.4379630000000 1.0
C      1  0.5585900000000  0.4858640000000  0.4659090000000 1.0
C      1  0.4722720000000  0.5844260000000  0.5811170000000 1.0
C      1  0.4297010000000  0.4450880000000  0.4279380000000 1.0
C      1  0.5511460000000  0.4429790000000  0.4848010000000 1.0
C      1  0.4831270000000  0.5133410000000  0.4519560000000 1.0
C      1  0.5346590000000  0.4029310000000  0.5401080000000 1.0
C      1  0.4320770000000  0.5052740000000  0.5262360000000 1.0
C      1  0.4431280000000  0.5791840000000  0.4539910000000 1.0
C      1  0.4734670000000  0.4831130000000  0.5061730000000 1.0
C      1  0.4827100000000  0.5251330000000  0.5616340000000 1.0
C      1  0.5532380000000  0.4494980000000  0.5921370000000 1.0
C      1  0.5437560000000  0.5114590000000  0.4646930000000 1.0
C      1  0.4629680000000  0.4598480000000  0.4604390000000 1.0
C      1  0.4072870000000  0.4926290000000  0.4504370000000 1.0
C      1  0.5169800000000  0.5728740000000  0.4617110000000 1.0
C      1  0.5598510000000  0.4848260000000  0.5185050000000 1.0
C      1  0.4169850000000  0.5750680000000  0.4898730000000 1.0
C      1  0.5238850000000  0.5425540000000  0.6111820000000 1.0
C      1  0.4559410000000  0.4194500000000  0.5680880000000 1.0
C      1  0.5028060000000  0.4278660000000  0.5502080000000 1.0
C      1  0.5131680000000  0.4925540000000  0.3887590000000 1.0
C      1  0.4567850000000  0.5532550000000  0.5277870000000 1.0
C      1  0.4588930000000  0.5938290000000  0.4734600000000 1.0
C      1  0.4950280000000  0.4502770000000  0.4613740000000 1.0
C      1  0.4477070000000  0.5314640000000  0.4857240000000 1.0
C      1  0.4079540000000  0.5392470000000  0.5565330000000 1.0
C      1  0.5311860000000  0.5092530000000  0.4348900000000 1.0
C      1  0.4490440000000  0.5842070000000  0.5259510000000 1.0
C      1  0.4584850000000  0.5079430000000  0.5697450000000 1.0
C      1  0.5397170000000  0.6131200000000  0.4650540000000 1.0
C      1  0.4432440000000  0.5040360000000  0.4730450000000 1.0
C      1  0.5659740000000  0.5832800000000  0.5421390000000 1.0
C      1  0.4940290000000  0.4591060000000  0.5436260000000 1.0
C      1  0.4955450000000  0.4652590000000  0.5138790000000 1.0
C      1  0.5058880000000  0.4942620000000  0.4445660000000 1.0
C      1  0.4189390000000  0.4131510000000  0.5001840000000 1.0
C      1  0.5425620000000  0.5844610000000  0.4527530000000 1.0
C      1  0.5666390000000  0.4373380000000  0.5685910000000 1.0
C      1  0.5512270000000  0.3947200000000  0.4611110000000 1.0
C      1  0.5871490000000  0.5246630000000  0.4247700000000 1.0
C      1  0.5245670000000  0.4236870000000  0.5699840000000 1.0
C      1  0.5394930000000  0.4999420000000  0.3982700000000 1.0
C      1  0.5066130000000  0.4637070000000  0.3866590000000 1.0
C      1  0.5319740000000  0.4432600000000  0.5263540000000 1.0
C      1  0.5615240000000  0.5453160000000  0.5687680000000 1.0
C      1  0.5192910000000  0.5679350000000  0.4932080000000 1.0
C      1  0.4893490000000  0.5652480000000  0.5008960000000 1.0
C      1  0.6132170000000  0.4556400000000  0.5046140000000 1.0
C      1  0.4761350000000  0.4552140000000  0.3880240000000 1.0
C      1  0.4304870000000  0.4187320000000  0.4731440000000 1.0
C      1  0.4843900000000  0.3917980000000  0.5325580000000 1.0
C      1  0.3930930000000  0.4765340000000  0.4944530000000 1.0
C      1  0.5724510000000  0.5768600000000  0.4765610000000 1.0
C      1  0.4652070000000  0.4830130000000  0.4789010000000 1.0
C      1  0.5367670000000  0.4431230000000  0.4372800000000 1.0
C      1  0.5989130000000  0.5067940000000  0.5708410000000 1.0
C      1  0.5612370000000  0.5747050000000  0.5711960000000 1.0
C      1  0.4697610000000  0.3885090000000  0.4843910000000 1.0
C      1  0.4097120000000  0.4393330000000  0.5106720000000 1.0
C      1  0.4189530000000  0.4940100000000  0.4235800000000 1.0
C      1  0.5977720000000  0.4409770000000  0.5267230000000 1.0
C      1  0.5138140000000  0.4743660000000  0.4689990000000 1.0
C      1  0.4724110000000  0.6037320000000  0.5332140000000 1.0
C      1  0.5110060000000  0.6144680000000  0.5041110000000 1.0
C      1  0.4719520000000  0.5518850000000  0.5528040000000 1.0
C      1  0.5575480000000  0.4825980000000  0.4123620000000 1.0
C      1  0.6030920000000  0.4683690000000  0.5670200000000 1.0
C      1  0.5221490000000  0.5367350000000  0.4271450000000 1.0
C      1  0.6167110000000  0.5066180000000  0.4965330000000 1.0
C      1  0.5302930000000  0.4481190000000  0.3916350000000 1.0
C      1  0.5734240000000  0.5107800000000  0.5132370000000 1.0
C      1  0.5584780000000  0.4828930000000  0.5470340000000 1.0
C      1  0.5812660000000  0.4955630000000  0.4265690000000 1.0
C      1  0.4454420000000  0.5721670000000  0.5723600000000 1.0
C      1  0.5709630000000  0.5553510000000  0.4967860000000 1.0
C      1  0.5334030000000  0.5841940000000  0.5803880000000 1.0
C      1  0.4897290000000  0.5936810000000  0.5564160000000 1.0
C      1  0.5767790000000  0.5376780000000  0.5432200000000 1.0
C      1  0.4352370000000  0.5396580000000  0.4363390000000 1.0
C      1  0.4294150000000  0.4858240000000  0.5026070000000 1.0
C      1  0.5122960000000  0.5279640000000  0.5778810000000 1.0
C      1  0.4031300000000  0.4390920000000  0.5398020000000 1.0
C      1  0.5285090000000  0.4236410000000  0.4937220000000 1.0
C      1  0.4437750000000  0.5210950000000  0.3927170000000 1.0
C      1  0.5125080000000  0.5467400000000  0.4521830000000 1.0
C      1  0.5382490000000  0.5558060000000  0.4092040000000 1.0
C      1  0.5824170000000  0.4194820000000  0.5139900000000 1.0
C      1  0.4860130000000  0.6002960000000  0.5073910000000 1.0
C      1  0.4899870000000  0.5705280000000  0.3945430000000 1.0
C      1  0.5429100000000  0.3963590000000  0.4882700000000 1.0
C      1  0.5174900000000  0.4863530000000  0.5058130000000 1.0
C      1  0.5211010000000  0.5140680000000  0.4881960000000 1.0
C      1  0.4928780000000  0.5278590000000  0.4921780000000 1.0
C      1  0.4489710000000  0.4466120000000  0.5335120000000 1.0
C      1  0.4371690000000  0.4020290000000  0.5216820000000 1.0
C      1  0.4556880000000  0.5074130000000  0.4439270000000 1.0
C      1  0.5926160000000  0.4444580000000  0.5561480000000 1.0
C      1  0.5781300000000  0.5612900000000  0.5254340000000 1.0
C      1  0.5771130000000  0.5701980000000  0.4234030000000 1.0
C      1  0.5964380000000  0.5149440000000  0.4724370000000 1.0
C      1  0.5016660000000  0.5274580000000  0.6229890000000 1.0
C      1  0.6023830000000  0.4453910000000  0.4796480000000 1.0
C      1  0.5118470000000  0.3942420000000  0.5226720000000 1.0
C      1  0.4932290000000  0.4757610000000  0.4229050000000 1.0
C      1  0.5389720000000  0.5202870000000  0.5346270000000 1.0
C      1  0.3943120000000  0.5336470000000  0.5082400000000 1.0
C      1  0.5789590000000  0.4846670000000  0.5702260000000 1.0
C      1  0.4697090000000  0.5516280000000  0.4759150000000 1.0
C      1  0.4848190000000  0.5415370000000  0.4512610000000 1.0
C      1  0.5416970000000  0.4616610000000  0.4627360000000 1.0
C      1  0.4607860000000  0.5163790000000  0.6128420000000 1.0
C      1  0.4931820000000  0.4522540000000  0.5952100000000 1.0
C      1  0.5200650000000  0.6012320000000  0.5588770000000 1.0
C      1  0.5169480000000  0.5625810000000  0.3888340000000 1.0
C      1  0.5060040000000  0.4475590000000  0.4317900000000 1.0
C      1  0.4399270000000  0.5913470000000  0.4973660000000 1.0
C      1  0.4872670000000  0.4725020000000  0.6159640000000 1.0
C      1  0.6268950000000  0.4800610000000  0.4982240000000 1.0
C      1  0.4872900000000  0.5646210000000  0.5969410000000 1.0
C      1  0.5228010000000  0.5600370000000  0.5370020000000 1.0
C      1  0.4349070000000  0.4564220000000  0.5096510000000 1.0
C      1  0.5329090000000  0.5370810000000  0.5066360000000 1.0
C      1  0.4951240000000  0.5674460000000  0.5443850000000 1.0
C      1  0.4627340000000  0.4308160000000  0.3946370000000 1.0
C      1  0.4641620000000  0.4632250000000  0.5525050000000 1.0
C      1  0.5105640000000  0.6188250000000  0.4752210000000 1.0
C      1  0.4080840000000  0.4693860000000  0.4680610000000 1.0
C      1  0.4550210000000  0.4753910000000  0.3896220000000 1.0
C      1  0.5360550000000  0.4111040000000  0.4441850000000 1.0
C      1  0.4297470000000  0.4471080000000  0.4589870000000 1.0
C      1  0.4264650000000  0.5212830000000  0.4144460000000 1.0
C      1  0.4298500000000  0.5840560000000  0.5491470000000 1.0
C      1  0.4028320000000  0.5161140000000  0.5311710000000 1.0
C      1  0.5339850000000  0.5391110000000  0.5578510000000 1.0
C      1  0.4626220000000  0.4777470000000  0.4342020000000 1.0
C      1  0.5504330000000  0.4587430000000  0.5089870000000 1.0
C      1  0.5323820000000  0.5939390000000  0.5060220000000 1.0
C      1  0.6011300000000  0.5068610000000  0.5219930000000 1.0
C      1  0.4516690000000  0.5267520000000  0.5146020000000 1.0
C      1  0.4357810000000  0.4225580000000  0.5444720000000 1.0
C      1  0.5493400000000  0.5808770000000  0.4239620000000 1.0
C      1  0.5593850000000  0.4093000000000  0.5272970000000 1.0
C      1  0.4455110000000  0.4594160000000  0.5998390000000 1.0
C      1  0.4588900000000  0.4785110000000  0.6172120000000 1.0
C      1  0.4628870000000  0.4114510000000  0.4394920000000 1.0
C      1  0.4384870000000  0.4718250000000  0.4160310000000 1.0
C      1  0.4989990000000  0.4245270000000  0.4149390000000 1.0
END
