TITL C-951333-8791-35 8.1496126198526e-07 125000 -390.943621657832 0 0 65 (C1) n - 1
REM
REM in /home/bkarasulu/work/CARBON/AIRSS/Generating-Clusters/EDIP-Nigel-Params/with-SteepDescent/Only-C1/SD-CG/HFTN-CG
REM
REM
REM
REM
REM
REM ./C.cell (11c1c37f851c82e70ff6c80c92926a4b)
REM
REM compiler GCC version 9.2.1 20190827 (Red Hat 9.2.1-1)
REM options -cpp -mtune=generic -march=x86-64 -g -O0 -fpre-include=/usr/include/finclude/math-vector-fortran.h
REM seed 1423706962 -933413806 1518573071 1967034119 -811819935 -1069795001 998686961 -508535660 -166245385 -959259326 -1697258415 588417664 1294124891 1414505122 -1122181014 -367798281 -2029890444 1647389160 1790378806 1222118257 -1299712809 589522727 1686890846 1022477480 1348788239 1892129521 -1107568320 -347567243 1027700342 -289464872 614974816 -972890356 664566105
REM
CELL 1.54180   50.00000   50.00000   50.00000   90.00000   90.00000   90.00000
LATT -1
SFAC C  
C      1  0.5511260000000  0.5443090000000  0.4897210000000 1.0
C      1  0.5560760000000  0.5068920000000  0.5637510000000 1.0
C      1  0.5268420000000  0.4456220000000  0.4779880000000 1.0
C      1  0.5036920000000  0.4623850000000  0.4361320000000 1.0
C      1  0.4853010000000  0.4347700000000  0.4995970000000 1.0
C      1  0.4620340000000  0.4568360000000  0.4691100000000 1.0
C      1  0.5462620000000  0.5239700000000  0.4663850000000 1.0
C      1  0.4456760000000  0.4467790000000  0.5303250000000 1.0
C      1  0.5456000000000  0.5320230000000  0.5716590000000 1.0
C      1  0.4597920000000  0.5203110000000  0.5168290000000 1.0
C      1  0.4376660000000  0.5187500000000  0.4782690000000 1.0
C      1  0.5075280000000  0.5112010000000  0.5185130000000 1.0
C      1  0.5381430000000  0.5368730000000  0.4378370000000 1.0
C      1  0.4340680000000  0.5332770000000  0.4532960000000 1.0
C      1  0.5108660000000  0.4894750000000  0.4636380000000 1.0
C      1  0.5862190000000  0.4933620000000  0.4817680000000 1.0
C      1  0.4861230000000  0.5253790000000  0.5005810000000 1.0
C      1  0.5150680000000  0.4329050000000  0.5019560000000 1.0
C      1  0.5223660000000  0.4740800000000  0.4871140000000 1.0
C      1  0.5377490000000  0.5136050000000  0.5091520000000 1.0
C      1  0.4877150000000  0.5014570000000  0.5566640000000 1.0
C      1  0.5027730000000  0.4618000000000  0.5377180000000 1.0
C      1  0.4847180000000  0.5246820000000  0.4362170000000 1.0
C      1  0.5171030000000  0.5169750000000  0.4710680000000 1.0
C      1  0.5143470000000  0.4411900000000  0.4529320000000 1.0
C      1  0.4382400000000  0.5064960000000  0.5457340000000 1.0
C      1  0.4713950000000  0.4994560000000  0.4477350000000 1.0
C      1  0.5394270000000  0.5441500000000  0.5468480000000 1.0
C      1  0.5757530000000  0.5088190000000  0.5412360000000 1.0
C      1  0.4809210000000  0.4431510000000  0.5482070000000 1.0
C      1  0.4605670000000  0.4898030000000  0.5561940000000 1.0
C      1  0.5101980000000  0.4823920000000  0.5583060000000 1.0
C      1  0.5220330000000  0.5591150000000  0.4526430000000 1.0
C      1  0.5488520000000  0.4884740000000  0.4947060000000 1.0
C      1  0.4759490000000  0.4706460000000  0.4456890000000 1.0
C      1  0.4627100000000  0.5632940000000  0.5203160000000 1.0
C      1  0.4647230000000  0.5046020000000  0.4759050000000 1.0
C      1  0.5756940000000  0.4812780000000  0.5287200000000 1.0
C      1  0.4187440000000  0.4959960000000  0.4853400000000 1.0
C      1  0.5570500000000  0.5310750000000  0.5257820000000 1.0
C      1  0.4317570000000  0.4669790000000  0.4826510000000 1.0
C      1  0.5898470000000  0.4788030000000  0.5046910000000 1.0
C      1  0.4702510000000  0.5610750000000  0.4702520000000 1.0
C      1  0.4994880000000  0.4804560000000  0.5111150000000 1.0
C      1  0.4616410000000  0.5385450000000  0.5420600000000 1.0
C      1  0.5313790000000  0.5656430000000  0.4812400000000 1.0
C      1  0.5616890000000  0.4979080000000  0.4685170000000 1.0
C      1  0.4707590000000  0.4817660000000  0.4979690000000 1.0
C      1  0.5114110000000  0.5429070000000  0.5400420000000 1.0
C      1  0.5489220000000  0.4680530000000  0.5331420000000 1.0
C      1  0.4887870000000  0.5307050000000  0.5531520000000 1.0
C      1  0.4564960000000  0.4603890000000  0.5567890000000 1.0
C      1  0.5090510000000  0.5689610000000  0.4983360000000 1.0
C      1  0.5237820000000  0.4876570000000  0.4351000000000 1.0
C      1  0.4718620000000  0.4303010000000  0.4752870000000 1.0
C      1  0.5001050000000  0.5389710000000  0.4605180000000 1.0
C      1  0.4258990000000  0.4926700000000  0.5211980000000 1.0
C      1  0.4701840000000  0.4287620000000  0.5233960000000 1.0
C      1  0.5266540000000  0.4465840000000  0.5275980000000 1.0
C      1  0.5180620000000  0.5163570000000  0.4264060000000 1.0
C      1  0.4592240000000  0.5453360000000  0.4475040000000 1.0
C      1  0.5376590000000  0.4881050000000  0.5510750000000 1.0
C      1  0.4828730000000  0.5563720000000  0.4975780000000 1.0
C      1  0.4408230000000  0.5383820000000  0.5018850000000 1.0
C      1  0.4442870000000  0.4706600000000  0.5109170000000 1.0
END
