TITL C-950528-5794-447 3.68125334369276e-07 125000 -498.329172092684 0 0 80 (C1) n - 1
REM
REM in /home/bkarasulu/work/CARBON/AIRSS/Generating-Clusters/EDIP-Nigel-Params/with-SteepDescent/Only-C1/SD-CG/HFTN-CG
REM
REM
REM
REM
REM
REM ./C.cell (11c1c37f851c82e70ff6c80c92926a4b)
REM
REM compiler GCC version 9.2.1 20190827 (Red Hat 9.2.1-1)
REM options -cpp -mtune=generic -march=x86-64 -g -O0 -fpre-include=/usr/include/finclude/math-vector-fortran.h
REM seed -1426811352 1057380524 -984850690 -1496300366 -16015566 74611103 -1100377627 1953444302 1837889866 -90834596 -428695290 1877893431 57514943 -1538044946 -296434636 -1995419326 351292860 -385457818 1171900629 1837319618 1288250847 87517291 1307342120 1291253413 -821081209 599199501 876084644 382198817 -1491699986 1798746878 80710219 2044773360 24928281
REM
CELL 1.54180   50.00000   50.00000   50.00000   90.00000   90.00000   90.00000
LATT -1
SFAC C  
C      1  0.4635740000000  0.4733920000000  0.5561320000000 1.0
C      1  0.4260850000000  0.5098060000000  0.5204380000000 1.0
C      1  0.5463000000000  0.4806690000000  0.5539170000000 1.0
C      1  0.5331120000000  0.4725170000000  0.5771570000000 1.0
C      1  0.4809960000000  0.5160910000000  0.5061810000000 1.0
C      1  0.4303930000000  0.4410130000000  0.4915370000000 1.0
C      1  0.4455520000000  0.4961830000000  0.5505970000000 1.0
C      1  0.4761160000000  0.4708450000000  0.4331860000000 1.0
C      1  0.5246290000000  0.5084970000000  0.4279850000000 1.0
C      1  0.4937610000000  0.4802850000000  0.5491930000000 1.0
C      1  0.4381990000000  0.4389350000000  0.5290210000000 1.0
C      1  0.5096560000000  0.5119740000000  0.5131350000000 1.0
C      1  0.4348330000000  0.4865010000000  0.4477920000000 1.0
C      1  0.4898000000000  0.5539750000000  0.4771430000000 1.0
C      1  0.5286020000000  0.4809150000000  0.4403690000000 1.0
C      1  0.4796040000000  0.4306670000000  0.4771980000000 1.0
C      1  0.5236020000000  0.5353030000000  0.5016210000000 1.0
C      1  0.5406740000000  0.5312280000000  0.4377920000000 1.0
C      1  0.5317410000000  0.5724530000000  0.4697050000000 1.0
C      1  0.4702520000000  0.5427060000000  0.4981190000000 1.0
C      1  0.5369430000000  0.4138170000000  0.5204260000000 1.0
C      1  0.4667440000000  0.5574450000000  0.5244260000000 1.0
C      1  0.4606670000000  0.4423250000000  0.5477800000000 1.0
C      1  0.4871160000000  0.4359550000000  0.5323580000000 1.0
C      1  0.5099990000000  0.5011530000000  0.4680430000000 1.0
C      1  0.5639520000000  0.5265930000000  0.4540650000000 1.0
C      1  0.4645520000000  0.4722870000000  0.5064210000000 1.0
C      1  0.5756450000000  0.5493180000000  0.4656040000000 1.0
C      1  0.5086950000000  0.4619120000000  0.5678110000000 1.0
C      1  0.5548330000000  0.4725830000000  0.5057320000000 1.0
C      1  0.5082040000000  0.5758440000000  0.4884530000000 1.0
C      1  0.4520700000000  0.4643480000000  0.4498930000000 1.0
C      1  0.4793730000000  0.5276370000000  0.5716950000000 1.0
C      1  0.4440990000000  0.5379880000000  0.4837050000000 1.0
C      1  0.4968970000000  0.5175620000000  0.4287420000000 1.0
C      1  0.5130830000000  0.5078780000000  0.5430480000000 1.0
C      1  0.4947920000000  0.5461680000000  0.4342270000000 1.0
C      1  0.4373750000000  0.5133950000000  0.4433170000000 1.0
C      1  0.4896510000000  0.4642160000000  0.5210240000000 1.0
C      1  0.5217160000000  0.4907440000000  0.4953290000000 1.0
C      1  0.5161990000000  0.5612890000000  0.5144230000000 1.0
C      1  0.4748650000000  0.4994120000000  0.4251830000000 1.0
C      1  0.5406570000000  0.5617350000000  0.5552480000000 1.0
C      1  0.5135770000000  0.5326990000000  0.4723610000000 1.0
C      1  0.5104680000000  0.4361130000000  0.5530660000000 1.0
C      1  0.5234600000000  0.5558250000000  0.4428410000000 1.0
C      1  0.5200180000000  0.4166840000000  0.4986260000000 1.0
C      1  0.5707650000000  0.4998260000000  0.4629410000000 1.0
C      1  0.5556820000000  0.5595170000000  0.4827490000000 1.0
C      1  0.4944690000000  0.5561590000000  0.5353360000000 1.0
C      1  0.4135150000000  0.4712220000000  0.5022010000000 1.0
C      1  0.4471810000000  0.5379390000000  0.4544660000000 1.0
C      1  0.5747990000000  0.4942450000000  0.5067390000000 1.0
C      1  0.5510560000000  0.5079530000000  0.5475650000000 1.0
C      1  0.4449090000000  0.5442390000000  0.5414300000000 1.0
C      1  0.4023860000000  0.4933470000000  0.5162490000000 1.0
C      1  0.5702830000000  0.5144660000000  0.5271360000000 1.0
C      1  0.5039950000000  0.4405890000000  0.4619230000000 1.0
C      1  0.5533160000000  0.4764500000000  0.4575000000000 1.0
C      1  0.5241270000000  0.5467740000000  0.5708910000000 1.0
C      1  0.4901720000000  0.4183140000000  0.5040210000000 1.0
C      1  0.4386240000000  0.5105910000000  0.4925620000000 1.0
C      1  0.4694440000000  0.5556110000000  0.4452940000000 1.0
C      1  0.5490370000000  0.4608780000000  0.5331740000000 1.0
C      1  0.5114430000000  0.4647360000000  0.5013840000000 1.0
C      1  0.5630280000000  0.5625030000000  0.5114520000000 1.0
C      1  0.5897840000000  0.4984190000000  0.4834920000000 1.0
C      1  0.5405950000000  0.5708240000000  0.5285690000000 1.0
C      1  0.4801510000000  0.4955780000000  0.4633030000000 1.0
C      1  0.5236060000000  0.4430500000000  0.4841770000000 1.0
C      1  0.4537760000000  0.4454960000000  0.4729340000000 1.0
C      1  0.5516460000000  0.4561870000000  0.4795880000000 1.0
C      1  0.5369620000000  0.4341240000000  0.5396600000000 1.0
C      1  0.4551090000000  0.5225870000000  0.5584210000000 1.0
C      1  0.4204350000000  0.5372780000000  0.5282620000000 1.0
C      1  0.5023470000000  0.5346310000000  0.5559830000000 1.0
C      1  0.5028970000000  0.4642160000000  0.4452090000000 1.0
C      1  0.5776320000000  0.5411990000000  0.5228760000000 1.0
C      1  0.4381830000000  0.4670580000000  0.5193440000000 1.0
C      1  0.4655120000000  0.4971120000000  0.4911040000000 1.0
END
