TITL C-950531-5884-715 -2.30054335716208e-06 125000 -1168.32422155313 0 0 186 (C1) n - 1
REM
REM in /home/bkarasulu/work/CARBON/AIRSS/Generating-Clusters/EDIP-Nigel-Params/with-SteepDescent/Only-C1/SD-CG/HFTN-CG
REM
REM
REM
REM
REM
REM ./C.cell (11c1c37f851c82e70ff6c80c92926a4b)
REM
REM compiler GCC version 9.2.1 20190827 (Red Hat 9.2.1-1)
REM options -cpp -mtune=generic -march=x86-64 -g -O0 -fpre-include=/usr/include/finclude/math-vector-fortran.h
REM seed -2131217952 1836734241 -279367085 1482852361 719301442 -1909712643 897271952 -2123125477 -717383225 -2032638140 -1841572815 501466865 487109031 658277070 1142139716 439223767 1083116021 1465665272 -1341854654 -958992323 -729600949 1288067433 -89938619 -877158575 647638559 -166806560 -365926047 460905033 363620774 -309169227 1244583987 134728349 -2073075288
REM
CELL 1.54180   50.00000   50.00000   50.00000   90.00000   90.00000   90.00000
LATT -1
SFAC C  
C      1  0.5294940000000  0.4550670000000  0.4077890000000 1.0
C      1  0.5362170000000  0.4445320000000  0.4727290000000 1.0
C      1  0.4329640000000  0.4078380000000  0.5065970000000 1.0
C      1  0.4918420000000  0.4041820000000  0.5262370000000 1.0
C      1  0.5192230000000  0.4995010000000  0.5377840000000 1.0
C      1  0.5076140000000  0.5026900000000  0.5963930000000 1.0
C      1  0.3923250000000  0.4804580000000  0.4892560000000 1.0
C      1  0.5944630000000  0.4982990000000  0.4471550000000 1.0
C      1  0.5222270000000  0.4044530000000  0.4608400000000 1.0
C      1  0.4140710000000  0.4932580000000  0.5269040000000 1.0
C      1  0.5773050000000  0.4576450000000  0.5578160000000 1.0
C      1  0.4910180000000  0.5264810000000  0.4285090000000 1.0
C      1  0.5021300000000  0.5878970000000  0.4999990000000 1.0
C      1  0.5083670000000  0.5658410000000  0.4622740000000 1.0
C      1  0.5456610000000  0.4162390000000  0.5166700000000 1.0
C      1  0.4101930000000  0.5293720000000  0.4706570000000 1.0
C      1  0.5676860000000  0.4085140000000  0.4754560000000 1.0
C      1  0.5179300000000  0.4848270000000  0.4380710000000 1.0
C      1  0.5365210000000  0.4925520000000  0.4859140000000 1.0
C      1  0.4647000000000  0.4905050000000  0.5159840000000 1.0
C      1  0.4086590000000  0.4973400000000  0.4659300000000 1.0
C      1  0.5874130000000  0.5490870000000  0.4862680000000 1.0
C      1  0.4624550000000  0.4659710000000  0.5339810000000 1.0
C      1  0.5203940000000  0.5506260000000  0.5140270000000 1.0
C      1  0.4800930000000  0.5387420000000  0.4914010000000 1.0
C      1  0.4475850000000  0.4011010000000  0.4809970000000 1.0
C      1  0.5481370000000  0.5531770000000  0.4055010000000 1.0
C      1  0.4936790000000  0.3979060000000  0.4589070000000 1.0
C      1  0.4610270000000  0.5877680000000  0.4540360000000 1.0
C      1  0.5574980000000  0.4374450000000  0.5669250000000 1.0
C      1  0.5907110000000  0.5303680000000  0.5087880000000 1.0
C      1  0.5073820000000  0.4584640000000  0.5575950000000 1.0
C      1  0.5172230000000  0.4212590000000  0.5585040000000 1.0
C      1  0.5284130000000  0.5312530000000  0.5711740000000 1.0
C      1  0.5571940000000  0.4775370000000  0.5032840000000 1.0
C      1  0.5616880000000  0.4261170000000  0.4496040000000 1.0
C      1  0.5496570000000  0.5196550000000  0.5928090000000 1.0
C      1  0.4042440000000  0.4705300000000  0.5503010000000 1.0
C      1  0.3895640000000  0.5288100000000  0.5020760000000 1.0
C      1  0.4747070000000  0.4709560000000  0.4575430000000 1.0
C      1  0.5046400000000  0.3858520000000  0.5080180000000 1.0
C      1  0.4411970000000  0.4634360000000  0.5786970000000 1.0
C      1  0.5560490000000  0.4911020000000  0.5870990000000 1.0
C      1  0.5761140000000  0.5906870000000  0.4646800000000 1.0
C      1  0.5423710000000  0.4715410000000  0.6023780000000 1.0
C      1  0.4221740000000  0.5501880000000  0.4492480000000 1.0
C      1  0.5501180000000  0.4968990000000  0.4205500000000 1.0
C      1  0.4887280000000  0.4899650000000  0.4972120000000 1.0
C      1  0.4487400000000  0.4509860000000  0.4087040000000 1.0
C      1  0.4236050000000  0.4835430000000  0.5926890000000 1.0
C      1  0.6069090000000  0.5383580000000  0.4679630000000 1.0
C      1  0.4339160000000  0.5753140000000  0.4627590000000 1.0
C      1  0.5712640000000  0.5387030000000  0.4330980000000 1.0
C      1  0.5017840000000  0.5793790000000  0.4332230000000 1.0
C      1  0.4634220000000  0.5507870000000  0.5977590000000 1.0
C      1  0.5192020000000  0.5631550000000  0.4118690000000 1.0
C      1  0.4970520000000  0.4326840000000  0.5147480000000 1.0
C      1  0.4656900000000  0.5043820000000  0.6104540000000 1.0
C      1  0.5026100000000  0.5398740000000  0.4048000000000 1.0
C      1  0.4836230000000  0.4342350000000  0.5847080000000 1.0
C      1  0.4677060000000  0.5658810000000  0.5301840000000 1.0
C      1  0.5335650000000  0.3901870000000  0.5059150000000 1.0
C      1  0.4588550000000  0.4957360000000  0.4646410000000 1.0
C      1  0.5711580000000  0.4239140000000  0.5009800000000 1.0
C      1  0.5902140000000  0.5242170000000  0.5575430000000 1.0
C      1  0.5328770000000  0.4736790000000  0.5446690000000 1.0
C      1  0.4221640000000  0.5418080000000  0.5372020000000 1.0
C      1  0.5345800000000  0.5691420000000  0.5774190000000 1.0
C      1  0.5158290000000  0.5159060000000  0.4400010000000 1.0
C      1  0.4739750000000  0.4991150000000  0.3801970000000 1.0
C      1  0.4373370000000  0.4453040000000  0.5298310000000 1.0
C      1  0.5423500000000  0.3919830000000  0.4780580000000 1.0
C      1  0.5497590000000  0.5146450000000  0.4709480000000 1.0
C      1  0.6020630000000  0.5425990000000  0.4384660000000 1.0
C      1  0.5911990000000  0.4682300000000  0.4514620000000 1.0
C      1  0.5356410000000  0.4166320000000  0.4392710000000 1.0
C      1  0.4706630000000  0.5742090000000  0.5805870000000 1.0
C      1  0.5000990000000  0.5628970000000  0.5346930000000 1.0
C      1  0.5641170000000  0.5146590000000  0.5127940000000 1.0
C      1  0.4720410000000  0.5791850000000  0.4288450000000 1.0
C      1  0.4783030000000  0.4014540000000  0.4845360000000 1.0
C      1  0.5295000000000  0.5341360000000  0.4598680000000 1.0
C      1  0.4009390000000  0.5141920000000  0.5692350000000 1.0
C      1  0.4522270000000  0.4067830000000  0.5551050000000 1.0
C      1  0.4599500000000  0.5258390000000  0.4670780000000 1.0
C      1  0.4349790000000  0.4371990000000  0.4311610000000 1.0
C      1  0.4791800000000  0.5314180000000  0.6139250000000 1.0
C      1  0.4762550000000  0.4758790000000  0.6119560000000 1.0
C      1  0.5774620000000  0.5764500000000  0.4887090000000 1.0
C      1  0.5667200000000  0.5598650000000  0.5403600000000 1.0
C      1  0.5092610000000  0.4670910000000  0.3898760000000 1.0
C      1  0.5734710000000  0.5364780000000  0.5806140000000 1.0
C      1  0.4979060000000  0.3998200000000  0.5547220000000 1.0
C      1  0.5384290000000  0.4624320000000  0.5190910000000 1.0
C      1  0.4856190000000  0.5228380000000  0.5719020000000 1.0
C      1  0.5451540000000  0.5993730000000  0.5211230000000 1.0
C      1  0.4284550000000  0.4894620000000  0.4173920000000 1.0
C      1  0.4361620000000  0.5345560000000  0.4881140000000 1.0
C      1  0.4014670000000  0.5497710000000  0.5182010000000 1.0
C      1  0.4165630000000  0.4540900000000  0.4481070000000 1.0
C      1  0.5680320000000  0.4515800000000  0.4866470000000 1.0
C      1  0.5656960000000  0.5073530000000  0.3959630000000 1.0
C      1  0.4954540000000  0.4704670000000  0.4775760000000 1.0
C      1  0.4238920000000  0.4494440000000  0.5566290000000 1.0
C      1  0.4617780000000  0.5386760000000  0.5174610000000 1.0
C      1  0.3999740000000  0.4868450000000  0.5752000000000 1.0
C      1  0.5519310000000  0.5787920000000  0.5017680000000 1.0
C      1  0.4572040000000  0.4790950000000  0.5597750000000 1.0
C      1  0.5193320000000  0.5169010000000  0.3959350000000 1.0
C      1  0.5227190000000  0.4725570000000  0.4669220000000 1.0
C      1  0.5922660000000  0.5148580000000  0.4011090000000 1.0
C      1  0.4498360000000  0.4178840000000  0.5291600000000 1.0
C      1  0.4389950000000  0.5091040000000  0.5989390000000 1.0
C      1  0.4373960000000  0.4941690000000  0.5061770000000 1.0
C      1  0.5186350000000  0.5969610000000  0.5341500000000 1.0
C      1  0.4943660000000  0.5892450000000  0.5776460000000 1.0
C      1  0.4797880000000  0.4530420000000  0.4090410000000 1.0
C      1  0.5071670000000  0.6084080000000  0.4502650000000 1.0
C      1  0.5767810000000  0.5014120000000  0.5409350000000 1.0
C      1  0.4106390000000  0.4547490000000  0.4971620000000 1.0
C      1  0.4596250000000  0.5563210000000  0.4202250000000 1.0
C      1  0.5459450000000  0.5390470000000  0.5262460000000 1.0
C      1  0.5532890000000  0.4674070000000  0.4196190000000 1.0
C      1  0.5935080000000  0.4560780000000  0.5346380000000 1.0
C      1  0.4101370000000  0.4819030000000  0.4388190000000 1.0
C      1  0.4799110000000  0.6109010000000  0.4639060000000 1.0
C      1  0.5450190000000  0.4176860000000  0.5478200000000 1.0
C      1  0.5274120000000  0.4382320000000  0.5056900000000 1.0
C      1  0.5679290000000  0.5890850000000  0.5355280000000 1.0
C      1  0.4349560000000  0.4871850000000  0.4780360000000 1.0
C      1  0.5601720000000  0.4818520000000  0.5588850000000 1.0
C      1  0.4685710000000  0.5144680000000  0.5327410000000 1.0
C      1  0.4760800000000  0.5029830000000  0.4182340000000 1.0
C      1  0.5254540000000  0.5200830000000  0.6137510000000 1.0
C      1  0.4357290000000  0.5170440000000  0.4119020000000 1.0
C      1  0.5948480000000  0.4636350000000  0.4799480000000 1.0
C      1  0.4839510000000  0.6117310000000  0.4938970000000 1.0
C      1  0.5988560000000  0.4887410000000  0.4956620000000 1.0
C      1  0.5117400000000  0.4353210000000  0.5938020000000 1.0
C      1  0.5028490000000  0.4947860000000  0.3839560000000 1.0
C      1  0.5078700000000  0.5302620000000  0.4977970000000 1.0
C      1  0.5135220000000  0.5027750000000  0.5054240000000 1.0
C      1  0.4110770000000  0.4276280000000  0.5066500000000 1.0
C      1  0.5051030000000  0.4761420000000  0.6097450000000 1.0
C      1  0.4216760000000  0.5144960000000  0.5481180000000 1.0
C      1  0.5375970000000  0.4477600000000  0.5874040000000 1.0
C      1  0.4591670000000  0.6097090000000  0.5070460000000 1.0
C      1  0.5927320000000  0.5450090000000  0.5357400000000 1.0
C      1  0.4787870000000  0.4314110000000  0.4904630000000 1.0
C      1  0.4918740000000  0.4283170000000  0.4193830000000 1.0
C      1  0.4886900000000  0.4525910000000  0.5350920000000 1.0
C      1  0.5951590000000  0.4828940000000  0.5254540000000 1.0
C      1  0.5474380000000  0.5554640000000  0.4441780000000 1.0
C      1  0.5055410000000  0.5377260000000  0.6226390000000 1.0
C      1  0.3896020000000  0.5008310000000  0.5109470000000 1.0
C      1  0.5186900000000  0.5902750000000  0.5639860000000 1.0
C      1  0.4752980000000  0.4088180000000  0.5713560000000 1.0
C      1  0.4537330000000  0.5732010000000  0.5567430000000 1.0
C      1  0.5253950000000  0.5916850000000  0.4689230000000 1.0
C      1  0.5667830000000  0.4551910000000  0.4425270000000 1.0
C      1  0.5458980000000  0.5278170000000  0.3896100000000 1.0
C      1  0.5198540000000  0.4322610000000  0.4216830000000 1.0
C      1  0.5508390000000  0.5838070000000  0.4542300000000 1.0
C      1  0.4328220000000  0.5676650000000  0.4920840000000 1.0
C      1  0.4312330000000  0.5555500000000  0.5621810000000 1.0
C      1  0.4438110000000  0.5369200000000  0.4334490000000 1.0
C      1  0.6057160000000  0.5085800000000  0.4728650000000 1.0
C      1  0.4635240000000  0.4525540000000  0.5972140000000 1.0
C      1  0.4066380000000  0.5731940000000  0.5037710000000 1.0
C      1  0.4393920000000  0.5381050000000  0.5866620000000 1.0
C      1  0.5615160000000  0.5606160000000  0.5691510000000 1.0
C      1  0.4330320000000  0.4710320000000  0.3966930000000 1.0
C      1  0.5656650000000  0.5102010000000  0.4443040000000 1.0
C      1  0.4867740000000  0.5662420000000  0.4826400000000 1.0
C      1  0.4527120000000  0.4218510000000  0.4506030000000 1.0
C      1  0.4597880000000  0.4449560000000  0.4697140000000 1.0
C      1  0.5366860000000  0.5203410000000  0.5465060000000 1.0
C      1  0.4308140000000  0.4572750000000  0.4749830000000 1.0
C      1  0.4546090000000  0.5820480000000  0.5085270000000 1.0
C      1  0.4779970000000  0.4120310000000  0.4387460000000 1.0
C      1  0.4549640000000  0.5185170000000  0.3897900000000 1.0
C      1  0.4875740000000  0.4765000000000  0.4295780000000 1.0
C      1  0.4536480000000  0.5087080000000  0.5575670000000 1.0
C      1  0.5025460000000  0.5492630000000  0.5637550000000 1.0
C      1  0.6077370000000  0.5156290000000  0.4244250000000 1.0
C      1  0.4975400000000  0.4957330000000  0.5597640000000 1.0
END
