TITL C-951336-9012-399 -2.09021471169776e-07 125000 -657.778214619802 0 0 107 (C1) n - 1
REM
REM in /home/bkarasulu/work/CARBON/AIRSS/Generating-Clusters/EDIP-Nigel-Params/with-SteepDescent/Only-C1/SD-CG/HFTN-CG
REM
REM
REM
REM
REM
REM ./C.cell (11c1c37f851c82e70ff6c80c92926a4b)
REM
REM compiler GCC version 9.2.1 20190827 (Red Hat 9.2.1-1)
REM options -cpp -mtune=generic -march=x86-64 -g -O0 -fpre-include=/usr/include/finclude/math-vector-fortran.h
REM seed 163261695 2013080742 382674945 32260193 797537572 -1673811203 82162731 -763196073 215413673 -166404045 -347944594 395215930 -298884456 -423641920 860199870 -2034192908 543085562 -1359023408 1349739043 -69466687 -190231475 2072986908 -2140576408 -44424205 -1842566769 1761107487 741656366 -45910289 -1347539672 1977442525 1092161414 -982868572 -684998110
REM
CELL 1.54180   50.00000   50.00000   50.00000   90.00000   90.00000   90.00000
LATT -1
SFAC C  
C      1  0.4715620000000  0.5266540000000  0.5141790000000 1.0
C      1  0.4867980000000  0.5028010000000  0.5045940000000 1.0
C      1  0.4599750000000  0.4317310000000  0.4623010000000 1.0
C      1  0.4870740000000  0.5225040000000  0.4235240000000 1.0
C      1  0.4402700000000  0.4875160000000  0.5029500000000 1.0
C      1  0.4858530000000  0.5516680000000  0.4928880000000 1.0
C      1  0.5609940000000  0.4287530000000  0.5055470000000 1.0
C      1  0.5138190000000  0.5790860000000  0.4678680000000 1.0
C      1  0.5344260000000  0.5810970000000  0.5110350000000 1.0
C      1  0.5001200000000  0.4227620000000  0.5267160000000 1.0
C      1  0.5384150000000  0.4230570000000  0.4881610000000 1.0
C      1  0.5017660000000  0.4963080000000  0.4166100000000 1.0
C      1  0.4796600000000  0.5807960000000  0.5255200000000 1.0
C      1  0.5257790000000  0.5348940000000  0.5517270000000 1.0
C      1  0.5613860000000  0.5219270000000  0.4668070000000 1.0
C      1  0.5113560000000  0.4479080000000  0.5127570000000 1.0
C      1  0.5368890000000  0.4664420000000  0.4281590000000 1.0
C      1  0.4716380000000  0.4194860000000  0.5186130000000 1.0
C      1  0.4180600000000  0.5090640000000  0.4672130000000 1.0
C      1  0.5424560000000  0.4454450000000  0.5602550000000 1.0
C      1  0.6063070000000  0.5374590000000  0.4791420000000 1.0
C      1  0.4891280000000  0.5816500000000  0.4978220000000 1.0
C      1  0.4887430000000  0.4293310000000  0.4684240000000 1.0
C      1  0.4798120000000  0.5199800000000  0.5443180000000 1.0
C      1  0.4957570000000  0.5667460000000  0.4476810000000 1.0
C      1  0.5610560000000  0.4874310000000  0.5551820000000 1.0
C      1  0.5054970000000  0.5070710000000  0.4640180000000 1.0
C      1  0.4276390000000  0.4733060000000  0.5419140000000 1.0
C      1  0.3936500000000  0.5244420000000  0.5162740000000 1.0
C      1  0.4369830000000  0.5271620000000  0.4803360000000 1.0
C      1  0.5975080000000  0.5469100000000  0.4542680000000 1.0
C      1  0.4163680000000  0.4449110000000  0.5035250000000 1.0
C      1  0.4065640000000  0.4596060000000  0.4827410000000 1.0
C      1  0.4550370000000  0.5659940000000  0.5267830000000 1.0
C      1  0.5025660000000  0.5148590000000  0.5902610000000 1.0
C      1  0.4659540000000  0.4078820000000  0.4923030000000 1.0
C      1  0.5647710000000  0.4541900000000  0.5179780000000 1.0
C      1  0.4504480000000  0.5634410000000  0.4581800000000 1.0
C      1  0.4551660000000  0.4351940000000  0.5358190000000 1.0
C      1  0.5794900000000  0.5263170000000  0.4413090000000 1.0
C      1  0.5135380000000  0.5409000000000  0.4956600000000 1.0
C      1  0.5151070000000  0.4927180000000  0.5724770000000 1.0
C      1  0.4422650000000  0.5187980000000  0.5079700000000 1.0
C      1  0.4944070000000  0.4018500000000  0.4813950000000 1.0
C      1  0.5099240000000  0.5084270000000  0.5463130000000 1.0
C      1  0.4234620000000  0.5392760000000  0.5514610000000 1.0
C      1  0.5639140000000  0.5566710000000  0.5309520000000 1.0
C      1  0.4960250000000  0.4532320000000  0.4863350000000 1.0
C      1  0.5316930000000  0.5127800000000  0.4483060000000 1.0
C      1  0.4722900000000  0.5147990000000  0.5871190000000 1.0
C      1  0.4345340000000  0.5555370000000  0.4790280000000 1.0
C      1  0.3943970000000  0.4968990000000  0.5116450000000 1.0
C      1  0.5590490000000  0.5506620000000  0.4329060000000 1.0
C      1  0.4663160000000  0.4627150000000  0.5799540000000 1.0
C      1  0.5304300000000  0.4953660000000  0.4237590000000 1.0
C      1  0.5436780000000  0.4916130000000  0.5768810000000 1.0
C      1  0.5619550000000  0.4598180000000  0.5463310000000 1.0
C      1  0.4972370000000  0.4324440000000  0.5564360000000 1.0
C      1  0.4604290000000  0.4781620000000  0.4786460000000 1.0
C      1  0.5005340000000  0.5738250000000  0.5443100000000 1.0
C      1  0.4622220000000  0.4712730000000  0.4319340000000 1.0
C      1  0.4703070000000  0.4427700000000  0.5600340000000 1.0
C      1  0.5356500000000  0.4713880000000  0.4772270000000 1.0
C      1  0.5643260000000  0.5101050000000  0.5369360000000 1.0
C      1  0.4551140000000  0.5005030000000  0.4322420000000 1.0
C      1  0.5067620000000  0.5481560000000  0.4264790000000 1.0
C      1  0.4933940000000  0.5595180000000  0.5695530000000 1.0
C      1  0.5595300000000  0.5530020000000  0.4798420000000 1.0
C      1  0.5677750000000  0.5002010000000  0.4883120000000 1.0
C      1  0.5731540000000  0.5672090000000  0.4556210000000 1.0
C      1  0.4197440000000  0.5305810000000  0.5252280000000 1.0
C      1  0.5316510000000  0.5415950000000  0.4403660000000 1.0
C      1  0.4125770000000  0.4874760000000  0.4893650000000 1.0
C      1  0.5148550000000  0.5413020000000  0.5791500000000 1.0
C      1  0.4631000000000  0.4896310000000  0.5723660000000 1.0
C      1  0.5842600000000  0.4761640000000  0.4788030000000 1.0
C      1  0.5308000000000  0.5637110000000  0.4876580000000 1.0
C      1  0.5155020000000  0.4553770000000  0.5603090000000 1.0
C      1  0.4795720000000  0.5211620000000  0.4531380000000 1.0
C      1  0.4539300000000  0.4909750000000  0.5438560000000 1.0
C      1  0.5551640000000  0.5356020000000  0.5472710000000 1.0
C      1  0.5822720000000  0.5107930000000  0.5128490000000 1.0
C      1  0.4387720000000  0.5675080000000  0.5040400000000 1.0
C      1  0.4472390000000  0.5533240000000  0.5518170000000 1.0
C      1  0.5757700000000  0.5570710000000  0.5054740000000 1.0
C      1  0.5100770000000  0.4713470000000  0.5336800000000 1.0
C      1  0.4807070000000  0.4804710000000  0.5237360000000 1.0
C      1  0.5170730000000  0.4059260000000  0.4996480000000 1.0
C      1  0.4284350000000  0.5034640000000  0.4419610000000 1.0
C      1  0.5130390000000  0.4487160000000  0.4248560000000 1.0
C      1  0.4508860000000  0.4590830000000  0.4569330000000 1.0
C      1  0.5260420000000  0.5834190000000  0.5371370000000 1.0
C      1  0.4761860000000  0.5504240000000  0.4631600000000 1.0
C      1  0.5868570000000  0.4573960000000  0.5003230000000 1.0
C      1  0.5771710000000  0.4636530000000  0.4548910000000 1.0
C      1  0.4329980000000  0.4503470000000  0.5255740000000 1.0
C      1  0.4027560000000  0.4842370000000  0.5350280000000 1.0
C      1  0.5488640000000  0.4583240000000  0.4548990000000 1.0
C      1  0.4925270000000  0.4715420000000  0.4325840000000 1.0
C      1  0.5128550000000  0.5111450000000  0.4924190000000 1.0
C      1  0.5383160000000  0.4929180000000  0.4949400000000 1.0
C      1  0.5412630000000  0.4293920000000  0.4588500000000 1.0
C      1  0.5958230000000  0.5366200000000  0.5050500000000 1.0
C      1  0.4704660000000  0.5403290000000  0.5660730000000 1.0
C      1  0.4962150000000  0.4784910000000  0.4619450000000 1.0
C      1  0.5205410000000  0.4253660000000  0.4395250000000 1.0
C      1  0.4695400000000  0.4607190000000  0.5033330000000 1.0
END
