TITL C-951333-8791-655 -7.56754482833381e-08 125000 -250.675267233514 0 0 42 (C1) n - 1
REM
REM in /home/bkarasulu/work/CARBON/AIRSS/Generating-Clusters/EDIP-Nigel-Params/with-SteepDescent/Only-C1/SD-CG/HFTN-CG
REM
REM
REM
REM
REM
REM ./C.cell (11c1c37f851c82e70ff6c80c92926a4b)
REM
REM compiler GCC version 9.2.1 20190827 (Red Hat 9.2.1-1)
REM options -cpp -mtune=generic -march=x86-64 -g -O0 -fpre-include=/usr/include/finclude/math-vector-fortran.h
REM seed -2022385566 1792424313 -496661631 -838977688 1933566389 -853146332 -520065205 -2003679343 -1558049482 1180005586 -1225579838 -1429112859 1281758077 1497999378 -1600831762 911270743 820099291 -1748919964 286276633 -638436188 2013504804 -81261446 521049605 -649279258 581709213 1270150538 1021899371 875207133 1286532902 -158476859 -1387659624 -942436355 2081007931
REM
CELL 1.54180   50.00000   50.00000   50.00000   90.00000   90.00000   90.00000
LATT -1
SFAC C  
C      1  0.5206960000000  0.5179810000000  0.4423270000000 1.0
C      1  0.4659440000000  0.5018910000000  0.4639770000000 1.0
C      1  0.5048100000000  0.4960130000000  0.4295220000000 1.0
C      1  0.5095730000000  0.4447550000000  0.5546530000000 1.0
C      1  0.4327270000000  0.5139450000000  0.5046250000000 1.0
C      1  0.5473920000000  0.4580740000000  0.5042900000000 1.0
C      1  0.5177540000000  0.4437530000000  0.4746940000000 1.0
C      1  0.4753980000000  0.4721270000000  0.5188700000000 1.0
C      1  0.4792960000000  0.5278150000000  0.4688250000000 1.0
C      1  0.5483990000000  0.5073580000000  0.4519270000000 1.0
C      1  0.5135900000000  0.5698200000000  0.4835210000000 1.0
C      1  0.5121700000000  0.4928280000000  0.4851800000000 1.0
C      1  0.5055680000000  0.4355980000000  0.5282050000000 1.0
C      1  0.4916090000000  0.5660240000000  0.5010150000000 1.0
C      1  0.4694680000000  0.5474880000000  0.4895800000000 1.0
C      1  0.4819620000000  0.4443180000000  0.5159770000000 1.0
C      1  0.4568540000000  0.5053980000000  0.5495250000000 1.0
C      1  0.5042610000000  0.4724300000000  0.5529000000000 1.0
C      1  0.4345340000000  0.4961820000000  0.5313880000000 1.0
C      1  0.5561740000000  0.5204050000000  0.4763600000000 1.0
C      1  0.4982380000000  0.5630560000000  0.5318450000000 1.0
C      1  0.5417490000000  0.4855010000000  0.5158410000000 1.0
C      1  0.4433170000000  0.4943080000000  0.4817420000000 1.0
C      1  0.4840440000000  0.4799710000000  0.4500560000000 1.0
C      1  0.5462810000000  0.4553960000000  0.4743040000000 1.0
C      1  0.4748600000000  0.5554930000000  0.5473450000000 1.0
C      1  0.4685640000000  0.5297520000000  0.5339840000000 1.0
C      1  0.4992500000000  0.4926990000000  0.5141050000000 1.0
C      1  0.4980850000000  0.4670750000000  0.4745380000000 1.0
C      1  0.4514810000000  0.5363260000000  0.5105670000000 1.0
C      1  0.5156150000000  0.5375630000000  0.5321690000000 1.0
C      1  0.5085860000000  0.5216520000000  0.4698720000000 1.0
C      1  0.5254200000000  0.5439280000000  0.4828620000000 1.0
C      1  0.5192530000000  0.4719460000000  0.4359760000000 1.0
C      1  0.5266280000000  0.4871220000000  0.5410200000000 1.0
C      1  0.5370100000000  0.4798820000000  0.4583440000000 1.0
C      1  0.5481080000000  0.5119780000000  0.5030180000000 1.0
C      1  0.5281320000000  0.4354430000000  0.5095280000000 1.0
C      1  0.4762030000000  0.4830370000000  0.5558210000000 1.0
C      1  0.4941550000000  0.5199690000000  0.5230630000000 1.0
C      1  0.5403100000000  0.5360450000000  0.5172850000000 1.0
C      1  0.4465330000000  0.4776540000000  0.5093520000000 1.0
END
