TITL C-951333-8791-483 0.00478885403577065 125000 -76.7629860384652 0 0 14 (Cs) n - 1
REM
REM in /home/bkarasulu/work/CARBON/AIRSS/Generating-Clusters/EDIP-Nigel-Params/with-SteepDescent/Only-C1/SD-CG/HFTN-CG
REM
REM
REM
REM
REM
REM ./C.cell (11c1c37f851c82e70ff6c80c92926a4b)
REM
REM compiler GCC version 9.2.1 20190827 (Red Hat 9.2.1-1)
REM options -cpp -mtune=generic -march=x86-64 -g -O0 -fpre-include=/usr/include/finclude/math-vector-fortran.h
REM seed -631177523 282492892 -320368180 -760117519 -1519863367 -959194538 1422386578 -484695270 2023174108 1813640112 1374205434 417520892 149844043 -1669753598 1865404440 -552231378 -1304562067 -1685144187 266464356 -442400998 -2010219911 -1534844461 -1401471045 -298552308 -103872553 -1826993790 2005637192 -1807858910 2121627950 -1616978847 -893609555 -1759279453 687061387
REM
CELL 1.54180   50.00000   50.00000   50.00000   90.00000   90.00000   90.00000
LATT -1
SFAC C  
C      1  0.5078550000000  0.4866700000000  0.4950390000000 1.0
C      1  0.5123220000000  0.5594790000000  0.5064750000000 1.0
C      1  0.5382920000000  0.5607830000000  0.4981200000000 1.0
C      1  0.4663530000000  0.5035470000000  0.5117540000000 1.0
C      1  0.5008190000000  0.5343520000000  0.5058220000000 1.0
C      1  0.5435710000000  0.5206740000000  0.4892610000000 1.0
C      1  0.5232840000000  0.4670360000000  0.4864550000000 1.0
C      1  0.4585160000000  0.4329360000000  0.5018210000000 1.0
C      1  0.5175990000000  0.5134010000000  0.4965580000000 1.0
C      1  0.4809840000000  0.4817930000000  0.5030580000000 1.0
C      1  0.5575500000000  0.5439690000000  0.4887710000000 1.0
C      1  0.4747250000000  0.5290490000000  0.5135090000000 1.0
C      1  0.4701170000000  0.4566790000000  0.5021970000000 1.0
C      1  0.4480120000000  0.4096320000000  0.5011610000000 1.0
END
