TITL C-950535-5962-160 9.40560192589292e-07 125000 -263.678550851557 0 0 44 (C1) n - 1
REM
REM in /home/bkarasulu/work/CARBON/AIRSS/Generating-Clusters/EDIP-Nigel-Params/with-SteepDescent/Only-C1/SD-CG/HFTN-CG
REM
REM
REM
REM
REM
REM ./C.cell (11c1c37f851c82e70ff6c80c92926a4b)
REM
REM compiler GCC version 9.2.1 20190827 (Red Hat 9.2.1-1)
REM options -cpp -mtune=generic -march=x86-64 -g -O0 -fpre-include=/usr/include/finclude/math-vector-fortran.h
REM seed 1459185079 -2003152706 -1315081993 -1322678213 -396975968 59955338 278303646 1903386948 -1888630818 946925813 1345328760 -1415498690 -1260617188 -756473861 -1320222769 -1625912085 238164293 130041243 1048753811 -943441160 -203994253 146602462 -428959919 495786548 1823910492 -1516106138 1232727332 -2000755525 323716543 1966514940 1201743979 1769453623 1106037128
REM
CELL 1.54180   50.00000   50.00000   50.00000   90.00000   90.00000   90.00000
LATT -1
SFAC C  
C      1  0.5470530000000  0.5109870000000  0.5495950000000 1.0
C      1  0.5348670000000  0.5332320000000  0.4758620000000 1.0
C      1  0.5412110000000  0.4689910000000  0.4683890000000 1.0
C      1  0.4860800000000  0.4631740000000  0.4818400000000 1.0
C      1  0.5302460000000  0.4703900000000  0.4966580000000 1.0
C      1  0.5525200000000  0.4845630000000  0.5123330000000 1.0
C      1  0.5393540000000  0.5139890000000  0.4317600000000 1.0
C      1  0.4514170000000  0.4927800000000  0.5388990000000 1.0
C      1  0.5193250000000  0.5372570000000  0.5501200000000 1.0
C      1  0.5097150000000  0.4667110000000  0.5670810000000 1.0
C      1  0.5377210000000  0.5336320000000  0.5051220000000 1.0
C      1  0.4952280000000  0.4908500000000  0.5620240000000 1.0
C      1  0.5206870000000  0.4444410000000  0.5105430000000 1.0
C      1  0.4878970000000  0.5463210000000  0.5110090000000 1.0
C      1  0.5250140000000  0.5564670000000  0.4644050000000 1.0
C      1  0.5161770000000  0.4979870000000  0.4348840000000 1.0
C      1  0.4540200000000  0.5361000000000  0.4580400000000 1.0
C      1  0.4780080000000  0.4544690000000  0.5311220000000 1.0
C      1  0.4549000000000  0.5567100000000  0.4773180000000 1.0
C      1  0.5350130000000  0.5077470000000  0.5210190000000 1.0
C      1  0.5158570000000  0.5476010000000  0.5222480000000 1.0
C      1  0.4815560000000  0.5613970000000  0.4863960000000 1.0
C      1  0.4654970000000  0.5384610000000  0.5264860000000 1.0
C      1  0.4397810000000  0.4770030000000  0.4979960000000 1.0
C      1  0.4422620000000  0.4677460000000  0.5251490000000 1.0
C      1  0.4966900000000  0.4550210000000  0.4561590000000 1.0
C      1  0.5186310000000  0.4715600000000  0.4492980000000 1.0
C      1  0.4464930000000  0.5175330000000  0.5229210000000 1.0
C      1  0.5592430000000  0.4904960000000  0.4655890000000 1.0
C      1  0.4574240000000  0.4659890000000  0.4799000000000 1.0
C      1  0.5231960000000  0.4428370000000  0.5395440000000 1.0
C      1  0.4915020000000  0.4448810000000  0.5049840000000 1.0
C      1  0.5055460000000  0.5166410000000  0.5629360000000 1.0
C      1  0.4382750000000  0.5185590000000  0.4726570000000 1.0
C      1  0.4974610000000  0.4446570000000  0.5526770000000 1.0
C      1  0.4808380000000  0.4859500000000  0.5370370000000 1.0
C      1  0.4971460000000  0.5527950000000  0.4628550000000 1.0
C      1  0.4819640000000  0.5299200000000  0.4517560000000 1.0
C      1  0.5035760000000  0.4860930000000  0.4924720000000 1.0
C      1  0.4441030000000  0.5052290000000  0.4966700000000 1.0
C      1  0.5615720000000  0.4867770000000  0.5407860000000 1.0
C      1  0.4933890000000  0.4987980000000  0.5149790000000 1.0
C      1  0.5500040000000  0.5157810000000  0.4576660000000 1.0
C      1  0.4915410000000  0.5114770000000  0.4328180000000 1.0
END
