TITL C-950521-2237-549 -2.74205185133067e-06 125000 -783.545429379311 0 0 127 (C1) n - 1
REM
REM in /home/bkarasulu/work/CARBON/AIRSS/Generating-Clusters/EDIP-Nigel-Params/with-SteepDescent/Only-C1/SD-CG/HFTN-CG
REM
REM
REM
REM
REM
REM ./C.cell (11c1c37f851c82e70ff6c80c92926a4b)
REM
REM compiler GCC version 9.2.1 20190827 (Red Hat 9.2.1-1)
REM options -cpp -mtune=generic -march=x86-64 -g -O0 -fpre-include=/usr/include/finclude/math-vector-fortran.h
REM seed -117972946 -267775499 1699330326 1610636641 -68270422 1292328267 -1355081553 -2062499389 1434917341 -138806319 -1155735134 -143425623 587681886 -296118128 1548922267 -1436424544 -1711606570 1948776383 -536132600 1678884809 1011224493 255385948 -2132852310 -596040691 -1508725751 -868758730 -148027080 1272073076 2138579020 -2026560990 1344010517 -953715185 -24531242
REM
CELL 1.54180   50.00000   50.00000   50.00000   90.00000   90.00000   90.00000
LATT -1
SFAC C  
C      1  0.4479980000000  0.5702710000000  0.4788460000000 1.0
C      1  0.5504490000000  0.4359690000000  0.5348490000000 1.0
C      1  0.5346710000000  0.5036580000000  0.3921720000000 1.0
C      1  0.4269620000000  0.4881230000000  0.5787050000000 1.0
C      1  0.4025870000000  0.4959330000000  0.4899680000000 1.0
C      1  0.4713380000000  0.4078630000000  0.4598690000000 1.0
C      1  0.4605330000000  0.5609990000000  0.4335270000000 1.0
C      1  0.4992150000000  0.4544280000000  0.5367860000000 1.0
C      1  0.5301710000000  0.4028390000000  0.5017790000000 1.0
C      1  0.4505790000000  0.3944500000000  0.4723240000000 1.0
C      1  0.5663710000000  0.5752560000000  0.5068240000000 1.0
C      1  0.4585770000000  0.5321820000000  0.5985330000000 1.0
C      1  0.5300170000000  0.5481880000000  0.4142120000000 1.0
C      1  0.4310080000000  0.4988190000000  0.4250680000000 1.0
C      1  0.4743490000000  0.4372980000000  0.5688480000000 1.0
C      1  0.4208700000000  0.5102010000000  0.5352900000000 1.0
C      1  0.5358400000000  0.5778640000000  0.5577740000000 1.0
C      1  0.5828210000000  0.5102210000000  0.5354650000000 1.0
C      1  0.4965620000000  0.4191730000000  0.5600150000000 1.0
C      1  0.4530280000000  0.4661830000000  0.4521010000000 1.0
C      1  0.4334580000000  0.5501700000000  0.4368740000000 1.0
C      1  0.5777470000000  0.4448860000000  0.5404120000000 1.0
C      1  0.5316850000000  0.4638290000000  0.5717050000000 1.0
C      1  0.4760020000000  0.5898150000000  0.5139670000000 1.0
C      1  0.4938320000000  0.5026250000000  0.4459390000000 1.0
C      1  0.5281620000000  0.4746110000000  0.3928410000000 1.0
C      1  0.4707730000000  0.4697610000000  0.4276190000000 1.0
C      1  0.5453000000000  0.4188920000000  0.4615460000000 1.0
C      1  0.4431890000000  0.5565750000000  0.5278700000000 1.0
C      1  0.5771660000000  0.5202660000000  0.5640680000000 1.0
C      1  0.5755440000000  0.4849310000000  0.4750570000000 1.0
C      1  0.4924350000000  0.5827730000000  0.5353030000000 1.0
C      1  0.5312690000000  0.4992950000000  0.5305440000000 1.0
C      1  0.5977430000000  0.4841420000000  0.5382430000000 1.0
C      1  0.5471950000000  0.5481640000000  0.5294970000000 1.0
C      1  0.5751820000000  0.5494380000000  0.5631570000000 1.0
C      1  0.5484890000000  0.4231530000000  0.5090840000000 1.0
C      1  0.5222990000000  0.5692520000000  0.4830900000000 1.0
C      1  0.5219370000000  0.5836100000000  0.5337370000000 1.0
C      1  0.4846400000000  0.5244520000000  0.5541340000000 1.0
C      1  0.5071790000000  0.4799000000000  0.4351670000000 1.0
C      1  0.5539510000000  0.5087760000000  0.5770300000000 1.0
C      1  0.5530280000000  0.4912130000000  0.4571510000000 1.0
C      1  0.5809280000000  0.4679550000000  0.5597180000000 1.0
C      1  0.4665010000000  0.4905470000000  0.5213280000000 1.0
C      1  0.4484570000000  0.4459010000000  0.5566060000000 1.0
C      1  0.4156690000000  0.4558480000000  0.5148900000000 1.0
C      1  0.4832270000000  0.5201180000000  0.6052210000000 1.0
C      1  0.4807130000000  0.5535700000000  0.4129550000000 1.0
C      1  0.4882360000000  0.4696340000000  0.6087460000000 1.0
C      1  0.5250060000000  0.5374000000000  0.4861720000000 1.0
C      1  0.5597190000000  0.4986460000000  0.4106450000000 1.0
C      1  0.4104420000000  0.4511580000000  0.4864830000000 1.0
C      1  0.4796080000000  0.4492320000000  0.5934460000000 1.0
C      1  0.4927050000000  0.4045800000000  0.5351900000000 1.0
C      1  0.4336650000000  0.4631120000000  0.5723060000000 1.0
C      1  0.5061140000000  0.4465500000000  0.4739820000000 1.0
C      1  0.5263940000000  0.5276940000000  0.5401590000000 1.0
C      1  0.4841870000000  0.5421240000000  0.4662300000000 1.0
C      1  0.4548850000000  0.5729900000000  0.5071100000000 1.0
C      1  0.5955730000000  0.5330140000000  0.4939320000000 1.0
C      1  0.5039390000000  0.5338250000000  0.5868180000000 1.0
C      1  0.5169190000000  0.5238130000000  0.4041640000000 1.0
C      1  0.5483900000000  0.5570900000000  0.5728220000000 1.0
C      1  0.5909930000000  0.5068300000000  0.4837110000000 1.0
C      1  0.4135220000000  0.5211460000000  0.4811430000000 1.0
C      1  0.4807540000000  0.4249800000000  0.5198720000000 1.0
C      1  0.5594940000000  0.5121340000000  0.4376190000000 1.0
C      1  0.4538660000000  0.4239570000000  0.4166350000000 1.0
C      1  0.5909060000000  0.4604690000000  0.5172420000000 1.0
C      1  0.4918150000000  0.4744500000000  0.5139760000000 1.0
C      1  0.4880230000000  0.5287740000000  0.3978560000000 1.0
C      1  0.5306460000000  0.3978830000000  0.4740600000000 1.0
C      1  0.5365540000000  0.5825760000000  0.5071070000000 1.0
C      1  0.5136470000000  0.3923030000000  0.5215420000000 1.0
C      1  0.4550200000000  0.4896400000000  0.4106850000000 1.0
C      1  0.4268230000000  0.5262870000000  0.4242830000000 1.0
C      1  0.4947900000000  0.5861640000000  0.4655070000000 1.0
C      1  0.5452070000000  0.5479640000000  0.4404320000000 1.0
C      1  0.4290610000000  0.5117200000000  0.5643230000000 1.0
C      1  0.5580210000000  0.5067360000000  0.5173300000000 1.0
C      1  0.5382660000000  0.5741140000000  0.4559030000000 1.0
C      1  0.4687220000000  0.5087330000000  0.3955330000000 1.0
C      1  0.4684490000000  0.5213960000000  0.4807070000000 1.0
C      1  0.5725130000000  0.5511020000000  0.4888210000000 1.0
C      1  0.4943090000000  0.5589330000000  0.5781210000000 1.0
C      1  0.4857030000000  0.4568090000000  0.4896860000000 1.0
C      1  0.5982940000000  0.5333190000000  0.5235040000000 1.0
C      1  0.5842790000000  0.5569850000000  0.5356650000000 1.0
C      1  0.4715760000000  0.5678500000000  0.4607740000000 1.0
C      1  0.4658450000000  0.4746650000000  0.4772350000000 1.0
C      1  0.5354910000000  0.4708030000000  0.4420100000000 1.0
C      1  0.4383730000000  0.5168850000000  0.4649760000000 1.0
C      1  0.5137250000000  0.5853640000000  0.4431690000000 1.0
C      1  0.4285500000000  0.5340010000000  0.5205050000000 1.0
C      1  0.4729220000000  0.4439210000000  0.4134300000000 1.0
C      1  0.4931030000000  0.4966830000000  0.5659690000000 1.0
C      1  0.4860640000000  0.4933670000000  0.5938730000000 1.0
C      1  0.5349150000000  0.5321490000000  0.5830440000000 1.0
C      1  0.5551370000000  0.4806130000000  0.5676760000000 1.0
C      1  0.4730290000000  0.4107060000000  0.4317110000000 1.0
C      1  0.5729000000000  0.4626820000000  0.4935170000000 1.0
C      1  0.5012420000000  0.5221720000000  0.5013890000000 1.0
C      1  0.4813990000000  0.4977990000000  0.4708760000000 1.0
C      1  0.4067530000000  0.4746150000000  0.4697400000000 1.0
C      1  0.5068990000000  0.5639650000000  0.4229670000000 1.0
C      1  0.5601610000000  0.4361530000000  0.4854540000000 1.0
C      1  0.4263310000000  0.5540020000000  0.4656430000000 1.0
C      1  0.4788730000000  0.5704930000000  0.5583660000000 1.0
C      1  0.5513850000000  0.5335650000000  0.5021080000000 1.0
C      1  0.4385690000000  0.4419600000000  0.5288190000000 1.0
C      1  0.5131530000000  0.4788710000000  0.5530230000000 1.0
C      1  0.4529750000000  0.4226450000000  0.5133550000000 1.0
C      1  0.4483680000000  0.4866530000000  0.4999230000000 1.0
C      1  0.5021740000000  0.5314970000000  0.4441940000000 1.0
C      1  0.4305140000000  0.4863100000000  0.4524990000000 1.0
C      1  0.5480130000000  0.4684380000000  0.4142530000000 1.0
C      1  0.4203830000000  0.4863070000000  0.5123880000000 1.0
C      1  0.5127530000000  0.4948170000000  0.5076300000000 1.0
C      1  0.4463280000000  0.5339890000000  0.5731710000000 1.0
C      1  0.5292240000000  0.4377800000000  0.5559000000000 1.0
C      1  0.5003270000000  0.5338440000000  0.5296980000000 1.0
C      1  0.4540450000000  0.5557690000000  0.5545010000000 1.0
C      1  0.4454840000000  0.4180500000000  0.4860270000000 1.0
C      1  0.5310490000000  0.4459730000000  0.4607600000000 1.0
C      1  0.5289690000000  0.5273780000000  0.4571760000000 1.0
C      1  0.4598980000000  0.5166150000000  0.5350770000000 1.0
END
