TITL C-950524-1808-51 -4.23393025931792e-06 125000 -995.945733113891 0 0 158 (C1) n - 1
REM
REM in /home/bkarasulu/work/CARBON/AIRSS/Generating-Clusters/EDIP-Nigel-Params/with-SteepDescent/Only-C1/SD-CG/HFTN-CG
REM
REM
REM
REM
REM
REM ./C.cell (11c1c37f851c82e70ff6c80c92926a4b)
REM
REM compiler GCC version 9.2.1 20190827 (Red Hat 9.2.1-1)
REM options -cpp -mtune=generic -march=x86-64 -g -O0 -fpre-include=/usr/include/finclude/math-vector-fortran.h
REM seed -668410949 302883216 -1532048714 1727853062 529021028 2090719782 1973725939 2112758807 194291973 -545315783 1407326724 -1997085052 -943087700 -5561050 -813380690 -141791532 2071976952 964221415 1253832568 -899577166 -1198450729 333385227 1974845644 1630313917 170748724 -1790674741 1050015279 942800671 1649189566 736997714 688204084 1723025650 -434327156
REM
CELL 1.54180   50.00000   50.00000   50.00000   90.00000   90.00000   90.00000
LATT -1
SFAC C  
C      1  0.5131270000000  0.3884100000000  0.5203630000000 1.0
C      1  0.5864410000000  0.5011710000000  0.4549340000000 1.0
C      1  0.5200030000000  0.6087570000000  0.5001550000000 1.0
C      1  0.5837020000000  0.4270050000000  0.5412720000000 1.0
C      1  0.5236960000000  0.4842130000000  0.5584730000000 1.0
C      1  0.5139250000000  0.6048580000000  0.5297600000000 1.0
C      1  0.4836120000000  0.4292390000000  0.5747730000000 1.0
C      1  0.4592750000000  0.5455260000000  0.4174620000000 1.0
C      1  0.5968500000000  0.4724250000000  0.5552820000000 1.0
C      1  0.4273080000000  0.4399240000000  0.4217760000000 1.0
C      1  0.4093390000000  0.4979440000000  0.4752770000000 1.0
C      1  0.4595780000000  0.5697450000000  0.4347550000000 1.0
C      1  0.5495270000000  0.5542640000000  0.5728780000000 1.0
C      1  0.5337240000000  0.4332170000000  0.5790390000000 1.0
C      1  0.5852590000000  0.4574310000000  0.5038710000000 1.0
C      1  0.5004780000000  0.5300290000000  0.6072860000000 1.0
C      1  0.5823860000000  0.5597800000000  0.5035230000000 1.0
C      1  0.3910540000000  0.5138110000000  0.4882640000000 1.0
C      1  0.4497150000000  0.4611710000000  0.4713930000000 1.0
C      1  0.5074890000000  0.5523740000000  0.4083010000000 1.0
C      1  0.4706010000000  0.6002390000000  0.4908620000000 1.0
C      1  0.5211580000000  0.4349160000000  0.5128310000000 1.0
C      1  0.5681440000000  0.4713650000000  0.4843930000000 1.0
C      1  0.5677830000000  0.5543030000000  0.4557200000000 1.0
C      1  0.4521840000000  0.4861190000000  0.5280070000000 1.0
C      1  0.4295750000000  0.4639270000000  0.5165780000000 1.0
C      1  0.5867890000000  0.5141470000000  0.4835610000000 1.0
C      1  0.4109740000000  0.5713290000000  0.5518990000000 1.0
C      1  0.4203490000000  0.5511540000000  0.4550280000000 1.0
C      1  0.4860140000000  0.6047110000000  0.5385410000000 1.0
C      1  0.5402610000000  0.4189490000000  0.4568300000000 1.0
C      1  0.5286750000000  0.5253630000000  0.5295190000000 1.0
C      1  0.5225450000000  0.5149620000000  0.5561320000000 1.0
C      1  0.4360480000000  0.4986020000000  0.4075080000000 1.0
C      1  0.5303660000000  0.5346510000000  0.4162160000000 1.0
C      1  0.4736060000000  0.5035060000000  0.4884160000000 1.0
C      1  0.4923980000000  0.4980910000000  0.4676280000000 1.0
C      1  0.4619990000000  0.4887550000000  0.3968730000000 1.0
C      1  0.4327330000000  0.4477310000000  0.5410900000000 1.0
C      1  0.4540460000000  0.4679920000000  0.4420230000000 1.0
C      1  0.4500160000000  0.5266640000000  0.4560840000000 1.0
C      1  0.4575330000000  0.3938890000000  0.4537400000000 1.0
C      1  0.4034400000000  0.4538960000000  0.4644280000000 1.0
C      1  0.5017690000000  0.4637390000000  0.4509640000000 1.0
C      1  0.5806930000000  0.4480130000000  0.5602410000000 1.0
C      1  0.4890390000000  0.5510610000000  0.5168360000000 1.0
C      1  0.5598940000000  0.4941280000000  0.5281550000000 1.0
C      1  0.5565370000000  0.4523330000000  0.5767420000000 1.0
C      1  0.4840470000000  0.4005790000000  0.4576730000000 1.0
C      1  0.4351170000000  0.5286270000000  0.4143300000000 1.0
C      1  0.4844740000000  0.5072710000000  0.3998110000000 1.0
C      1  0.4048250000000  0.5265350000000  0.5091010000000 1.0
C      1  0.4484470000000  0.4587300000000  0.5630340000000 1.0
C      1  0.5034080000000  0.5945030000000  0.4517380000000 1.0
C      1  0.5026340000000  0.4720150000000  0.5951120000000 1.0
C      1  0.4685650000000  0.6100290000000  0.5172190000000 1.0
C      1  0.4792870000000  0.5154150000000  0.4427810000000 1.0
C      1  0.4530600000000  0.5800060000000  0.5707010000000 1.0
C      1  0.4178030000000  0.5767100000000  0.5236510000000 1.0
C      1  0.5154440000000  0.4087520000000  0.4998420000000 1.0
C      1  0.5973240000000  0.5194140000000  0.5332650000000 1.0
C      1  0.5851040000000  0.4722860000000  0.4595760000000 1.0
C      1  0.5023600000000  0.4809280000000  0.5156870000000 1.0
C      1  0.5334190000000  0.5071300000000  0.4023560000000 1.0
C      1  0.4567090000000  0.5334980000000  0.5989120000000 1.0
C      1  0.4217360000000  0.5210570000000  0.5495730000000 1.0
C      1  0.5024180000000  0.4631450000000  0.4043030000000 1.0
C      1  0.5190220000000  0.4432400000000  0.5406690000000 1.0
C      1  0.5800180000000  0.4300200000000  0.5134540000000 1.0
C      1  0.5155950000000  0.5245990000000  0.4420070000000 1.0
C      1  0.4858510000000  0.4154110000000  0.5490950000000 1.0
C      1  0.5715760000000  0.4541430000000  0.4396540000000 1.0
C      1  0.4247350000000  0.5069250000000  0.4521180000000 1.0
C      1  0.5478660000000  0.6044120000000  0.4936670000000 1.0
C      1  0.5159530000000  0.5480320000000  0.4592230000000 1.0
C      1  0.4310830000000  0.5920070000000  0.5568230000000 1.0
C      1  0.5513170000000  0.4803220000000  0.5861040000000 1.0
C      1  0.4217560000000  0.5456390000000  0.5658560000000 1.0
C      1  0.4473400000000  0.5180140000000  0.5313860000000 1.0
C      1  0.4755250000000  0.5120400000000  0.6086750000000 1.0
C      1  0.5645790000000  0.4326480000000  0.4567420000000 1.0
C      1  0.4708450000000  0.4589790000000  0.4899560000000 1.0
C      1  0.5419040000000  0.4737980000000  0.5373380000000 1.0
C      1  0.6077610000000  0.4753660000000  0.5126090000000 1.0
C      1  0.4899130000000  0.5429350000000  0.5812430000000 1.0
C      1  0.4479700000000  0.5514010000000  0.5770770000000 1.0
C      1  0.5695870000000  0.5608650000000  0.5504660000000 1.0
C      1  0.5196850000000  0.4258380000000  0.4368070000000 1.0
C      1  0.5503800000000  0.5605340000000  0.4326630000000 1.0
C      1  0.4889700000000  0.4153790000000  0.4832990000000 1.0
C      1  0.5285350000000  0.5810440000000  0.5406980000000 1.0
C      1  0.4296830000000  0.4840800000000  0.4331610000000 1.0
C      1  0.5171490000000  0.4572350000000  0.4958220000000 1.0
C      1  0.5102670000000  0.4005090000000  0.5455210000000 1.0
C      1  0.5269030000000  0.4868490000000  0.6021730000000 1.0
C      1  0.5348770000000  0.5041570000000  0.4557910000000 1.0
C      1  0.5083930000000  0.4919190000000  0.4008600000000 1.0
C      1  0.4351330000000  0.5324710000000  0.5066230000000 1.0
C      1  0.4945220000000  0.4478450000000  0.4775480000000 1.0
C      1  0.4947500000000  0.5241710000000  0.5582790000000 1.0
C      1  0.4553410000000  0.5739750000000  0.4860390000000 1.0
C      1  0.5066450000000  0.4453360000000  0.5829910000000 1.0
C      1  0.5247220000000  0.4474350000000  0.4170950000000 1.0
C      1  0.4805250000000  0.5880470000000  0.4369520000000 1.0
C      1  0.4547380000000  0.4403480000000  0.4158160000000 1.0
C      1  0.5552520000000  0.4928060000000  0.4154950000000 1.0
C      1  0.5583950000000  0.5796140000000  0.5059430000000 1.0
C      1  0.5334240000000  0.4123030000000  0.5585680000000 1.0
C      1  0.4421420000000  0.5696820000000  0.4579510000000 1.0
C      1  0.4977790000000  0.4092850000000  0.4354610000000 1.0
C      1  0.4623110000000  0.4114190000000  0.5313040000000 1.0
C      1  0.5574060000000  0.5836260000000  0.5356500000000 1.0
C      1  0.4368550000000  0.4199150000000  0.5398850000000 1.0
C      1  0.5622580000000  0.4995470000000  0.4969390000000 1.0
C      1  0.4276530000000  0.4483180000000  0.4864230000000 1.0
C      1  0.4740100000000  0.4822210000000  0.5068220000000 1.0
C      1  0.4374700000000  0.5626440000000  0.5087330000000 1.0
C      1  0.5423880000000  0.5248990000000  0.5776170000000 1.0
C      1  0.5400880000000  0.4055920000000  0.4831660000000 1.0
C      1  0.5191290000000  0.5541590000000  0.5229940000000 1.0
C      1  0.4714800000000  0.4596060000000  0.4004160000000 1.0
C      1  0.4987600000000  0.5988620000000  0.4811750000000 1.0
C      1  0.5201790000000  0.5701210000000  0.4397660000000 1.0
C      1  0.3977140000000  0.5186220000000  0.5350260000000 1.0
C      1  0.5467240000000  0.4663380000000  0.4279860000000 1.0
C      1  0.5272190000000  0.5744730000000  0.5691540000000 1.0
C      1  0.5820480000000  0.5444280000000  0.5288700000000 1.0
C      1  0.5306980000000  0.4739040000000  0.4525960000000 1.0
C      1  0.4797900000000  0.5865450000000  0.5615280000000 1.0
C      1  0.4110920000000  0.4591920000000  0.4349430000000 1.0
C      1  0.5615730000000  0.5093210000000  0.4400050000000 1.0
C      1  0.5348260000000  0.5623270000000  0.4996070000000 1.0
C      1  0.5362370000000  0.5129620000000  0.4860990000000 1.0
C      1  0.6058480000000  0.5056260000000  0.5073310000000 1.0
C      1  0.5630440000000  0.4128110000000  0.4984950000000 1.0
C      1  0.4633230000000  0.4124610000000  0.5016980000000 1.0
C      1  0.4982550000000  0.4708520000000  0.5452380000000 1.0
C      1  0.4993350000000  0.5710120000000  0.5768810000000 1.0
C      1  0.4762110000000  0.5518690000000  0.4899190000000 1.0
C      1  0.4833520000000  0.5365660000000  0.4044200000000 1.0
C      1  0.4799410000000  0.4826720000000  0.4367760000000 1.0
C      1  0.4584950000000  0.4398590000000  0.5808510000000 1.0
C      1  0.5382010000000  0.5436150000000  0.4779370000000 1.0
C      1  0.3901050000000  0.4776460000000  0.4733940000000 1.0
C      1  0.4819380000000  0.5256800000000  0.5308220000000 1.0
C      1  0.5270820000000  0.5167620000000  0.6033260000000 1.0
C      1  0.4782560000000  0.4876240000000  0.5923230000000 1.0
C      1  0.4580960000000  0.5278390000000  0.4853290000000 1.0
C      1  0.4678240000000  0.4799350000000  0.5562970000000 1.0
C      1  0.5820130000000  0.5436810000000  0.4794800000000 1.0
C      1  0.5662250000000  0.5053390000000  0.5755230000000 1.0
C      1  0.4348820000000  0.4033910000000  0.4646000000000 1.0
C      1  0.5812000000000  0.4984630000000  0.5495020000000 1.0
C      1  0.5115580000000  0.5105270000000  0.5097000000000 1.0
C      1  0.6187920000000  0.4687140000000  0.5378130000000 1.0
C      1  0.4133410000000  0.5374890000000  0.4311810000000 1.0
C      1  0.4363760000000  0.4179130000000  0.4885830000000 1.0
C      1  0.5421550000000  0.4584980000000  0.4758140000000 1.0
END
