TITL C-951336-9012-537 -2.40046793039105e-06 125000 -586.384378527437 0 0 96 (C1) n - 1
REM
REM in /home/bkarasulu/work/CARBON/AIRSS/Generating-Clusters/EDIP-Nigel-Params/with-SteepDescent/Only-C1/SD-CG/HFTN-CG
REM
REM
REM
REM
REM
REM ./C.cell (11c1c37f851c82e70ff6c80c92926a4b)
REM
REM compiler GCC version 9.2.1 20190827 (Red Hat 9.2.1-1)
REM options -cpp -mtune=generic -march=x86-64 -g -O0 -fpre-include=/usr/include/finclude/math-vector-fortran.h
REM seed 1145119406 -1136881870 1590061243 -1939190725 1882608786 -421954646 -1274754558 -525903209 1752595274 -1586932488 1513244611 998028200 -753368182 -1754108487 -181394385 1538370102 1809912535 -954631545 -1260960143 -648434018 142701083 1759421694 -186797940 -1434112434 -1918812405 -110166230 -1219844826 1768014325 16061741 -1801244641 -44778811 259716059 150464813
REM
CELL 1.54180   50.00000   50.00000   50.00000   90.00000   90.00000   90.00000
LATT -1
SFAC C  
C      1  0.5741940000000  0.4751050000000  0.4813270000000 1.0
C      1  0.5019420000000  0.4713910000000  0.5716250000000 1.0
C      1  0.5511540000000  0.4541690000000  0.5475920000000 1.0
C      1  0.5576230000000  0.4414510000000  0.4479890000000 1.0
C      1  0.4887290000000  0.3984500000000  0.5008900000000 1.0
C      1  0.5314130000000  0.4549540000000  0.5135430000000 1.0
C      1  0.4539940000000  0.4440160000000  0.5706410000000 1.0
C      1  0.5046540000000  0.5904230000000  0.4857270000000 1.0
C      1  0.4768510000000  0.5029910000000  0.4089910000000 1.0
C      1  0.5266490000000  0.5405200000000  0.5697740000000 1.0
C      1  0.5721900000000  0.4619000000000  0.5274530000000 1.0
C      1  0.5674400000000  0.4546170000000  0.5005390000000 1.0
C      1  0.4899660000000  0.5165940000000  0.5010710000000 1.0
C      1  0.5363570000000  0.4490720000000  0.4310130000000 1.0
C      1  0.4807240000000  0.4944510000000  0.4585170000000 1.0
C      1  0.4562240000000  0.5677470000000  0.4950200000000 1.0
C      1  0.4787940000000  0.5841050000000  0.4686440000000 1.0
C      1  0.4679180000000  0.5175640000000  0.4795590000000 1.0
C      1  0.5249220000000  0.4897620000000  0.5734940000000 1.0
C      1  0.4709910000000  0.5331630000000  0.5838620000000 1.0
C      1  0.5682180000000  0.4922130000000  0.5303160000000 1.0
C      1  0.4826360000000  0.4479940000000  0.5319310000000 1.0
C      1  0.4377590000000  0.5457970000000  0.4526560000000 1.0
C      1  0.4866410000000  0.4730240000000  0.4791240000000 1.0
C      1  0.4982300000000  0.5667110000000  0.4199100000000 1.0
C      1  0.5102980000000  0.4891670000000  0.4209730000000 1.0
C      1  0.4673560000000  0.4114120000000  0.4885540000000 1.0
C      1  0.5712310000000  0.4977150000000  0.5595100000000 1.0
C      1  0.4720470000000  0.4205610000000  0.4618110000000 1.0
C      1  0.4919160000000  0.4638800000000  0.4228180000000 1.0
C      1  0.4424950000000  0.4988390000000  0.4856470000000 1.0
C      1  0.5739690000000  0.5055270000000  0.4828890000000 1.0
C      1  0.4976750000000  0.4215560000000  0.4496240000000 1.0
C      1  0.4962330000000  0.5680590000000  0.4488630000000 1.0
C      1  0.5083390000000  0.4456070000000  0.4384290000000 1.0
C      1  0.4806400000000  0.4342970000000  0.5589480000000 1.0
C      1  0.4238590000000  0.5074190000000  0.5066850000000 1.0
C      1  0.5344250000000  0.4125290000000  0.5227370000000 1.0
C      1  0.4911170000000  0.4741220000000  0.5431120000000 1.0
C      1  0.5666840000000  0.5126300000000  0.4549120000000 1.0
C      1  0.5098260000000  0.4448810000000  0.5817070000000 1.0
C      1  0.4952950000000  0.4446620000000  0.4805740000000 1.0
C      1  0.5461260000000  0.5543660000000  0.4699100000000 1.0
C      1  0.5268700000000  0.5300770000000  0.5321190000000 1.0
C      1  0.4653010000000  0.5288140000000  0.4134400000000 1.0
C      1  0.4711110000000  0.5483190000000  0.5383750000000 1.0
C      1  0.5393810000000  0.4768410000000  0.4207410000000 1.0
C      1  0.5505210000000  0.5680520000000  0.5121790000000 1.0
C      1  0.5503480000000  0.5425400000000  0.5483580000000 1.0
C      1  0.5047790000000  0.4381880000000  0.5097820000000 1.0
C      1  0.4629370000000  0.5484520000000  0.4692920000000 1.0
C      1  0.4842900000000  0.5222520000000  0.5298520000000 1.0
C      1  0.5241530000000  0.5579840000000  0.4131390000000 1.0
C      1  0.4362390000000  0.4504200000000  0.5454970000000 1.0
C      1  0.4337660000000  0.5035250000000  0.5355590000000 1.0
C      1  0.4285290000000  0.4917760000000  0.4624320000000 1.0
C      1  0.5135360000000  0.3981830000000  0.5119030000000 1.0
C      1  0.4250940000000  0.4791370000000  0.5509000000000 1.0
C      1  0.4665480000000  0.4974440000000  0.5710540000000 1.0
C      1  0.4766450000000  0.5683490000000  0.5173010000000 1.0
C      1  0.4507690000000  0.4275340000000  0.5040720000000 1.0
C      1  0.5371830000000  0.4268080000000  0.5469480000000 1.0
C      1  0.4383020000000  0.4970300000000  0.4370300000000 1.0
C      1  0.5250340000000  0.5522590000000  0.5097590000000 1.0
C      1  0.5180650000000  0.5157580000000  0.5845310000000 1.0
C      1  0.5221230000000  0.5772970000000  0.4634940000000 1.0
C      1  0.5703940000000  0.4659170000000  0.4540540000000 1.0
C      1  0.5511670000000  0.4776110000000  0.5680810000000 1.0
C      1  0.5068570000000  0.5014110000000  0.4479680000000 1.0
C      1  0.4160670000000  0.5398670000000  0.4695770000000 1.0
C      1  0.5334720000000  0.5359830000000  0.4285200000000 1.0
C      1  0.5401320000000  0.5032600000000  0.5218870000000 1.0
C      1  0.5752280000000  0.5292890000000  0.5372780000000 1.0
C      1  0.4326220000000  0.5557590000000  0.5111600000000 1.0
C      1  0.4797750000000  0.5546090000000  0.5664980000000 1.0
C      1  0.5242890000000  0.4828830000000  0.5090550000000 1.0
C      1  0.5661060000000  0.5540730000000  0.4934920000000 1.0
C      1  0.4545930000000  0.4485050000000  0.5217860000000 1.0
C      1  0.4443930000000  0.4752030000000  0.5753990000000 1.0
C      1  0.4660770000000  0.4851640000000  0.4316920000000 1.0
C      1  0.4412800000000  0.5471540000000  0.5377130000000 1.0
C      1  0.4266580000000  0.5269630000000  0.5505070000000 1.0
C      1  0.5148420000000  0.5281540000000  0.4514760000000 1.0
C      1  0.5162920000000  0.4225780000000  0.5657850000000 1.0
C      1  0.5067730000000  0.5609850000000  0.5701750000000 1.0
C      1  0.5621600000000  0.4884290000000  0.4376450000000 1.0
C      1  0.5732900000000  0.5273990000000  0.5046380000000 1.0
C      1  0.4160110000000  0.5356260000000  0.4976010000000 1.0
C      1  0.5040890000000  0.5743360000000  0.5104570000000 1.0
C      1  0.5573040000000  0.5394910000000  0.4459210000000 1.0
C      1  0.4773280000000  0.5532710000000  0.4074900000000 1.0
C      1  0.5237020000000  0.5360600000000  0.4798380000000 1.0
C      1  0.4417720000000  0.5260180000000  0.4305280000000 1.0
C      1  0.4719790000000  0.4974830000000  0.5410700000000 1.0
C      1  0.4909180000000  0.5158060000000  0.5943610000000 1.0
C      1  0.4971620000000  0.4882590000000  0.5016820000000 1.0
END
