TITL C-950523-3027-748 -1.11548823791193e-06 125000 -504.403920660664 0 0 82 (C1) n - 1
REM
REM in /home/bkarasulu/work/CARBON/AIRSS/Generating-Clusters/EDIP-Nigel-Params/with-SteepDescent/Only-C1/SD-CG/HFTN-CG
REM
REM
REM
REM
REM
REM ./C.cell (11c1c37f851c82e70ff6c80c92926a4b)
REM
REM compiler GCC version 9.2.1 20190827 (Red Hat 9.2.1-1)
REM options -cpp -mtune=generic -march=x86-64 -g -O0 -fpre-include=/usr/include/finclude/math-vector-fortran.h
REM seed -1476513079 -700956047 2027520503 1573988847 -840111514 387024756 -701925112 -1595186675 -2076132692 753162445 1271242808 -1361695356 -1602323887 1694386288 -124706375 -1145194131 -1120288518 -636049853 -1930778392 -464936433 1064238272 834763893 -697216948 398509968 744562605 -1011426835 -161596581 -823940369 812481093 1770765470 -1597294114 -1994638253 1351859823
REM
CELL 1.54180   50.00000   50.00000   50.00000   90.00000   90.00000   90.00000
LATT -1
SFAC C  
C      1  0.5278360000000  0.5766360000000  0.4951390000000 1.0
C      1  0.5596510000000  0.5514660000000  0.5178780000000 1.0
C      1  0.4924040000000  0.4881560000000  0.5220920000000 1.0
C      1  0.5231820000000  0.4281610000000  0.5182670000000 1.0
C      1  0.4801060000000  0.5175070000000  0.4286830000000 1.0
C      1  0.5038180000000  0.5895800000000  0.4904540000000 1.0
C      1  0.4665410000000  0.5661890000000  0.4836870000000 1.0
C      1  0.5190060000000  0.5636940000000  0.5444560000000 1.0
C      1  0.4775640000000  0.4706330000000  0.4765620000000 1.0
C      1  0.4665120000000  0.4355400000000  0.4522110000000 1.0
C      1  0.4605990000000  0.5270120000000  0.5445670000000 1.0
C      1  0.5784350000000  0.4999920000000  0.5014020000000 1.0
C      1  0.4969410000000  0.5249790000000  0.5779860000000 1.0
C      1  0.5186690000000  0.4591460000000  0.4954070000000 1.0
C      1  0.4205320000000  0.5095360000000  0.5101040000000 1.0
C      1  0.4887440000000  0.4628710000000  0.5072180000000 1.0
C      1  0.5650860000000  0.4697220000000  0.5499060000000 1.0
C      1  0.4518890000000  0.4523830000000  0.5273090000000 1.0
C      1  0.5116760000000  0.5044770000000  0.5650790000000 1.0
C      1  0.4742360000000  0.5501470000000  0.5282070000000 1.0
C      1  0.4249460000000  0.4639770000000  0.4896650000000 1.0
C      1  0.5509020000000  0.4900790000000  0.4326190000000 1.0
C      1  0.5646060000000  0.5461700000000  0.4884390000000 1.0
C      1  0.4726370000000  0.4999440000000  0.4803020000000 1.0
C      1  0.4647430000000  0.4288680000000  0.4809640000000 1.0
C      1  0.5155190000000  0.4154290000000  0.4938430000000 1.0
C      1  0.5090170000000  0.4562370000000  0.4405010000000 1.0
C      1  0.5095250000000  0.5558580000000  0.4563980000000 1.0
C      1  0.4916780000000  0.5672100000000  0.5430170000000 1.0
C      1  0.5109630000000  0.4587480000000  0.5560240000000 1.0
C      1  0.4694870000000  0.5169750000000  0.5713430000000 1.0
C      1  0.5435540000000  0.5629390000000  0.4731480000000 1.0
C      1  0.4662780000000  0.4874320000000  0.5633660000000 1.0
C      1  0.4880020000000  0.5342400000000  0.5050680000000 1.0
C      1  0.4943130000000  0.4841780000000  0.5520740000000 1.0
C      1  0.4629170000000  0.4984840000000  0.4174920000000 1.0
C      1  0.5536850000000  0.5348480000000  0.5637420000000 1.0
C      1  0.5547240000000  0.4682240000000  0.4501660000000 1.0
C      1  0.4446040000000  0.4803390000000  0.5426070000000 1.0
C      1  0.5302760000000  0.5564790000000  0.5173590000000 1.0
C      1  0.5726040000000  0.4571760000000  0.5257540000000 1.0
C      1  0.4541060000000  0.4603570000000  0.4473400000000 1.0
C      1  0.4288530000000  0.4964850000000  0.4500780000000 1.0
C      1  0.4876500000000  0.4151090000000  0.4900380000000 1.0
C      1  0.4757860000000  0.4360800000000  0.5322840000000 1.0
C      1  0.5662300000000  0.5316750000000  0.5379510000000 1.0
C      1  0.5041640000000  0.4360200000000  0.5386540000000 1.0
C      1  0.4662270000000  0.5317770000000  0.4502410000000 1.0
C      1  0.4837900000000  0.5469000000000  0.4686650000000 1.0
C      1  0.5353700000000  0.4831110000000  0.4098870000000 1.0
C      1  0.5795220000000  0.4942930000000  0.5584340000000 1.0
C      1  0.5307080000000  0.5088560000000  0.4905840000000 1.0
C      1  0.4172330000000  0.4764740000000  0.4658060000000 1.0
C      1  0.5172020000000  0.5306210000000  0.5084320000000 1.0
C      1  0.4477800000000  0.4477500000000  0.4982000000000 1.0
C      1  0.4375630000000  0.5624570000000  0.5241010000000 1.0
C      1  0.4352710000000  0.5265520000000  0.4902500000000 1.0
C      1  0.4209130000000  0.4804520000000  0.5120590000000 1.0
C      1  0.5639770000000  0.4753510000000  0.5059150000000 1.0
C      1  0.5392030000000  0.4661770000000  0.5647480000000 1.0
C      1  0.5065430000000  0.4700750000000  0.4672470000000 1.0
C      1  0.5599930000000  0.5089410000000  0.5768620000000 1.0
C      1  0.5310750000000  0.5421500000000  0.4430320000000 1.0
C      1  0.5438680000000  0.5162440000000  0.4441040000000 1.0
C      1  0.4909560000000  0.4344440000000  0.4383050000000 1.0
C      1  0.5873020000000  0.5122210000000  0.5360190000000 1.0
C      1  0.4245120000000  0.5141760000000  0.5389080000000 1.0
C      1  0.5606160000000  0.5169050000000  0.4848480000000 1.0
C      1  0.5075970000000  0.5062570000000  0.4357000000000 1.0
C      1  0.4763170000000  0.5077300000000  0.5083350000000 1.0
C      1  0.5458020000000  0.4456650000000  0.4625590000000 1.0
C      1  0.4444800000000  0.4817170000000  0.4302290000000 1.0
C      1  0.5267690000000  0.5459340000000  0.5657630000000 1.0
C      1  0.5349230000000  0.4923430000000  0.5781990000000 1.0
C      1  0.4483650000000  0.5136670000000  0.4663770000000 1.0
C      1  0.5318260000000  0.4246800000000  0.4728390000000 1.0
C      1  0.4770800000000  0.5906650000000  0.4916690000000 1.0
C      1  0.5091090000000  0.5003100000000  0.4662980000000 1.0
C      1  0.5357260000000  0.4817910000000  0.5044550000000 1.0
C      1  0.5097710000000  0.4788810000000  0.4210640000000 1.0
C      1  0.4341210000000  0.5430440000000  0.5457470000000 1.0
C      1  0.4432900000000  0.5540050000000  0.4972730000000 1.0
END
