TITL C-951347-9520-242 -4.97380815557602e-06 125000 -766.193375962035 0 0 124 (C1) n - 1
REM
REM in /home/bkarasulu/work/CARBON/AIRSS/Generating-Clusters/EDIP-Nigel-Params/with-SteepDescent/Only-C1/SD-CG/HFTN-CG
REM
REM
REM
REM
REM
REM ./C.cell (11c1c37f851c82e70ff6c80c92926a4b)
REM
REM compiler GCC version 9.2.1 20190827 (Red Hat 9.2.1-1)
REM options -cpp -mtune=generic -march=x86-64 -g -O0 -fpre-include=/usr/include/finclude/math-vector-fortran.h
REM seed 1355207541 -1680129271 1010208119 -1669883344 -1452700510 1808772613 1154867434 -829977021 -1238922894 826009860 -1888577430 1653193871 2132979835 -928021983 1359654341 -1019452747 -202565253 346684758 1300040798 250421176 680647163 107580621 1796616499 -678271759 2055886824 -1857471184 -1486687573 1724289413 -1972403028 -41661040 495244366 512520967 -2053014417
REM
CELL 1.54180   50.00000   50.00000   50.00000   90.00000   90.00000   90.00000
LATT -1
SFAC C  
C      1  0.4712670000000  0.4312340000000  0.5301710000000 1.0
C      1  0.4113920000000  0.4819460000000  0.5389100000000 1.0
C      1  0.4620520000000  0.4851360000000  0.4553580000000 1.0
C      1  0.5143870000000  0.5010300000000  0.5488540000000 1.0
C      1  0.5462700000000  0.4229160000000  0.4600290000000 1.0
C      1  0.5331080000000  0.5930510000000  0.5033720000000 1.0
C      1  0.5427940000000  0.4857470000000  0.4493360000000 1.0
C      1  0.5678580000000  0.5608780000000  0.4948960000000 1.0
C      1  0.5064570000000  0.4730350000000  0.4117140000000 1.0
C      1  0.5466340000000  0.4422060000000  0.5296470000000 1.0
C      1  0.4970830000000  0.4240830000000  0.4465750000000 1.0
C      1  0.5283850000000  0.4425940000000  0.5743110000000 1.0
C      1  0.4844130000000  0.4330040000000  0.4244440000000 1.0
C      1  0.4864200000000  0.5141460000000  0.5499430000000 1.0
C      1  0.5554430000000  0.4862180000000  0.4917580000000 1.0
C      1  0.4899990000000  0.5719020000000  0.5705690000000 1.0
C      1  0.5034520000000  0.4473880000000  0.5605050000000 1.0
C      1  0.4517940000000  0.4843030000000  0.5702120000000 1.0
C      1  0.4970250000000  0.4244870000000  0.5432650000000 1.0
C      1  0.5268310000000  0.5434560000000  0.5121460000000 1.0
C      1  0.4706610000000  0.4320480000000  0.5008500000000 1.0
C      1  0.5543080000000  0.4607220000000  0.4184700000000 1.0
C      1  0.4241390000000  0.4958650000000  0.5619270000000 1.0
C      1  0.5399550000000  0.5753310000000  0.5620670000000 1.0
C      1  0.5862760000000  0.4997490000000  0.5255330000000 1.0
C      1  0.5249920000000  0.4307360000000  0.4420210000000 1.0
C      1  0.4777750000000  0.5928480000000  0.5037720000000 1.0
C      1  0.4556320000000  0.5483270000000  0.5456390000000 1.0
C      1  0.4485560000000  0.4941960000000  0.5184060000000 1.0
C      1  0.5122790000000  0.4864570000000  0.4532660000000 1.0
C      1  0.5534800000000  0.4437070000000  0.4799730000000 1.0
C      1  0.4228070000000  0.4648610000000  0.4358840000000 1.0
C      1  0.4708370000000  0.5179750000000  0.6004540000000 1.0
C      1  0.5663870000000  0.5232250000000  0.5395300000000 1.0
C      1  0.4420850000000  0.4271520000000  0.4918820000000 1.0
C      1  0.4807800000000  0.5255290000000  0.4572030000000 1.0
C      1  0.4773820000000  0.4097330000000  0.4630180000000 1.0
C      1  0.4552570000000  0.4552060000000  0.5708560000000 1.0
C      1  0.4508720000000  0.5837860000000  0.5109870000000 1.0
C      1  0.5756640000000  0.4477380000000  0.4603420000000 1.0
C      1  0.5054290000000  0.5113480000000  0.4676230000000 1.0
C      1  0.5027370000000  0.4708750000000  0.5391540000000 1.0
C      1  0.5798790000000  0.4750330000000  0.4513130000000 1.0
C      1  0.4586770000000  0.5111600000000  0.4728950000000 1.0
C      1  0.5296530000000  0.5680820000000  0.4627700000000 1.0
C      1  0.4424100000000  0.4880030000000  0.4311280000000 1.0
C      1  0.4500480000000  0.5345520000000  0.4259170000000 1.0
C      1  0.5179430000000  0.4997750000000  0.4039070000000 1.0
C      1  0.5938610000000  0.4931950000000  0.4706220000000 1.0
C      1  0.5818600000000  0.4996880000000  0.5719620000000 1.0
C      1  0.4834460000000  0.4523810000000  0.5814450000000 1.0
C      1  0.4246780000000  0.4554940000000  0.5321270000000 1.0
C      1  0.4283200000000  0.5636370000000  0.4599740000000 1.0
C      1  0.4240150000000  0.4495660000000  0.5023640000000 1.0
C      1  0.4887900000000  0.4862070000000  0.5000860000000 1.0
C      1  0.5457580000000  0.5687290000000  0.5128030000000 1.0
C      1  0.4931610000000  0.4777610000000  0.5937310000000 1.0
C      1  0.5192300000000  0.5403410000000  0.4261930000000 1.0
C      1  0.4818230000000  0.5565690000000  0.4582370000000 1.0
C      1  0.4523340000000  0.5781430000000  0.5400690000000 1.0
C      1  0.5520450000000  0.5065990000000  0.4713560000000 1.0
C      1  0.5241400000000  0.4606300000000  0.5179950000000 1.0
C      1  0.4754090000000  0.5170300000000  0.4276270000000 1.0
C      1  0.4283450000000  0.5237640000000  0.5531820000000 1.0
C      1  0.4484950000000  0.4221380000000  0.4618640000000 1.0
C      1  0.4437280000000  0.4443770000000  0.4406350000000 1.0
C      1  0.4529660000000  0.5585200000000  0.4444890000000 1.0
C      1  0.4350690000000  0.4753520000000  0.4941800000000 1.0
C      1  0.5208830000000  0.4172020000000  0.5266860000000 1.0
C      1  0.5353220000000  0.4862270000000  0.5116380000000 1.0
C      1  0.4860530000000  0.4078900000000  0.4917380000000 1.0
C      1  0.4283230000000  0.5159020000000  0.4350990000000 1.0
C      1  0.4313600000000  0.5185030000000  0.5244400000000 1.0
C      1  0.5844740000000  0.5448040000000  0.5127060000000 1.0
C      1  0.5090260000000  0.5606170000000  0.4436180000000 1.0
C      1  0.5238060000000  0.5395950000000  0.5888320000000 1.0
C      1  0.4042900000000  0.4694440000000  0.4562240000000 1.0
C      1  0.5572500000000  0.5585230000000  0.4671220000000 1.0
C      1  0.4173900000000  0.5558820000000  0.4864860000000 1.0
C      1  0.5835450000000  0.4836780000000  0.4996700000000 1.0
C      1  0.5466780000000  0.5070100000000  0.4112800000000 1.0
C      1  0.5218700000000  0.4909730000000  0.5779050000000 1.0
C      1  0.5125890000000  0.5024480000000  0.5046100000000 1.0
C      1  0.4055710000000  0.5116370000000  0.5144710000000 1.0
C      1  0.4174860000000  0.4865420000000  0.4741810000000 1.0
C      1  0.4982380000000  0.5551110000000  0.5152890000000 1.0
C      1  0.4880330000000  0.4590010000000  0.4848190000000 1.0
C      1  0.5182830000000  0.5623850000000  0.5735080000000 1.0
C      1  0.4828630000000  0.5284550000000  0.5774290000000 1.0
C      1  0.5362120000000  0.5145980000000  0.5900610000000 1.0
C      1  0.5156580000000  0.4467480000000  0.4918360000000 1.0
C      1  0.5139140000000  0.4167230000000  0.4976080000000 1.0
C      1  0.4689110000000  0.4886070000000  0.5447290000000 1.0
C      1  0.5882730000000  0.4555900000000  0.5061350000000 1.0
C      1  0.4912360000000  0.5713880000000  0.4883820000000 1.0
C      1  0.5868700000000  0.5206920000000  0.4618800000000 1.0
C      1  0.4753290000000  0.4751040000000  0.4149100000000 1.0
C      1  0.5627770000000  0.5153640000000  0.5823530000000 1.0
C      1  0.5003030000000  0.5234020000000  0.4111430000000 1.0
C      1  0.5663710000000  0.4860580000000  0.4164160000000 1.0
C      1  0.5171360000000  0.5841680000000  0.4822940000000 1.0
C      1  0.5814060000000  0.4830990000000  0.5495040000000 1.0
C      1  0.5410750000000  0.4672750000000  0.5738490000000 1.0
C      1  0.5660070000000  0.4383500000000  0.5066590000000 1.0
C      1  0.4946060000000  0.5920250000000  0.5276130000000 1.0
C      1  0.4513210000000  0.4478560000000  0.5433090000000 1.0
C      1  0.5277120000000  0.4536200000000  0.4230830000000 1.0
C      1  0.5784370000000  0.5520560000000  0.5406190000000 1.0
C      1  0.4773850000000  0.5342000000000  0.5259810000000 1.0
C      1  0.4691650000000  0.5521730000000  0.5721160000000 1.0
C      1  0.5471400000000  0.5313080000000  0.4271950000000 1.0
C      1  0.5574010000000  0.5730010000000  0.5402850000000 1.0
C      1  0.5354980000000  0.5234040000000  0.5349470000000 1.0
C      1  0.4782070000000  0.5900310000000  0.5504120000000 1.0
C      1  0.4672430000000  0.4913270000000  0.5953250000000 1.0
C      1  0.4080610000000  0.5275680000000  0.4878010000000 1.0
C      1  0.4441060000000  0.5607650000000  0.4954630000000 1.0
C      1  0.5681240000000  0.5393670000000  0.4478890000000 1.0
C      1  0.4269720000000  0.5137330000000  0.4665170000000 1.0
C      1  0.5574690000000  0.4654550000000  0.5497510000000 1.0
C      1  0.4685660000000  0.5075350000000  0.5018060000000 1.0
C      1  0.4879180000000  0.4667130000000  0.4509790000000 1.0
C      1  0.4631150000000  0.4483820000000  0.4192870000000 1.0
C      1  0.5293080000000  0.5275860000000  0.4803700000000 1.0
END
