TITL C-951345-2650-92 -9.25571745737112e-07 125000 -732.996296580245 0 0 117 (C1) n - 1
REM
REM in /home/bkarasulu/work/CARBON/AIRSS/Generating-Clusters/EDIP-Nigel-Params/with-SteepDescent/Only-C1/SD-CG/HFTN-CG
REM
REM
REM
REM
REM
REM ./C.cell (11c1c37f851c82e70ff6c80c92926a4b)
REM
REM compiler GCC version 9.2.1 20190827 (Red Hat 9.2.1-1)
REM options -cpp -mtune=generic -march=x86-64 -g -O0 -fpre-include=/usr/include/finclude/math-vector-fortran.h
REM seed 1896724110 -285662275 -1961787460 -2137312716 -833487372 -1320366454 -876525340 1757126485 -21036271 1906423184 1242617003 1949571447 459943419 822100828 599426825 465537088 -963318751 -490216674 1103132971 -216755767 586678795 422713052 933890211 -511474558 570916316 1772757332 1509421804 -665395046 -1497938950 -692019442 -1956060857 -1487990338 -1157251703
REM
CELL 1.54180   50.00000   50.00000   50.00000   90.00000   90.00000   90.00000
LATT -1
SFAC C  
C      1  0.4314360000000  0.5295450000000  0.4437620000000 1.0
C      1  0.5792710000000  0.4468690000000  0.5025660000000 1.0
C      1  0.4721060000000  0.5866970000000  0.5197890000000 1.0
C      1  0.4676760000000  0.5184680000000  0.5521550000000 1.0
C      1  0.5095370000000  0.4811000000000  0.4603410000000 1.0
C      1  0.6036680000000  0.4877910000000  0.5158240000000 1.0
C      1  0.4844770000000  0.4684120000000  0.5670400000000 1.0
C      1  0.5346450000000  0.4930410000000  0.4966010000000 1.0
C      1  0.4565380000000  0.4691320000000  0.5507570000000 1.0
C      1  0.5732350000000  0.4660440000000  0.4539910000000 1.0
C      1  0.5523140000000  0.5056230000000  0.4742080000000 1.0
C      1  0.5671140000000  0.5093790000000  0.5322230000000 1.0
C      1  0.5316990000000  0.4588060000000  0.4211860000000 1.0
C      1  0.4332080000000  0.5074010000000  0.5245830000000 1.0
C      1  0.4115800000000  0.5101330000000  0.4545860000000 1.0
C      1  0.5099720000000  0.5244910000000  0.4507180000000 1.0
C      1  0.5396120000000  0.5045080000000  0.5246260000000 1.0
C      1  0.4726450000000  0.5664530000000  0.5434180000000 1.0
C      1  0.4313590000000  0.5720180000000  0.4853000000000 1.0
C      1  0.4753850000000  0.5675090000000  0.4698280000000 1.0
C      1  0.4343150000000  0.4765020000000  0.4257240000000 1.0
C      1  0.5149300000000  0.4548050000000  0.4773740000000 1.0
C      1  0.4146820000000  0.5173580000000  0.4831110000000 1.0
C      1  0.5269940000000  0.5320650000000  0.5265530000000 1.0
C      1  0.5788340000000  0.4912320000000  0.4686340000000 1.0
C      1  0.5646240000000  0.4266210000000  0.5172960000000 1.0
C      1  0.4867780000000  0.4786750000000  0.4340760000000 1.0
C      1  0.5457520000000  0.4778390000000  0.5654610000000 1.0
C      1  0.4817100000000  0.4369810000000  0.5185270000000 1.0
C      1  0.5653380000000  0.4462690000000  0.4753210000000 1.0
C      1  0.5421630000000  0.5870630000000  0.4884730000000 1.0
C      1  0.5301890000000  0.5052840000000  0.4086610000000 1.0
C      1  0.5000260000000  0.4875640000000  0.5500130000000 1.0
C      1  0.5826440000000  0.4693310000000  0.5212610000000 1.0
C      1  0.5601840000000  0.4976840000000  0.4145740000000 1.0
C      1  0.4339360000000  0.5725430000000  0.4547440000000 1.0
C      1  0.4562090000000  0.4483140000000  0.5291540000000 1.0
C      1  0.5049090000000  0.5707090000000  0.4671630000000 1.0
C      1  0.4596710000000  0.5192320000000  0.4639030000000 1.0
C      1  0.5550290000000  0.4407610000000  0.5412980000000 1.0
C      1  0.5526290000000  0.5396540000000  0.4382290000000 1.0
C      1  0.5012580000000  0.5623640000000  0.5572790000000 1.0
C      1  0.5151360000000  0.4749410000000  0.6036320000000 1.0
C      1  0.5120620000000  0.4790250000000  0.4146870000000 1.0
C      1  0.4815700000000  0.5208310000000  0.4436880000000 1.0
C      1  0.5103020000000  0.5378940000000  0.5023100000000 1.0
C      1  0.5474980000000  0.5057900000000  0.5798470000000 1.0
C      1  0.4433640000000  0.5575760000000  0.5615490000000 1.0
C      1  0.4553740000000  0.4933140000000  0.4805190000000 1.0
C      1  0.5265940000000  0.5300910000000  0.4262870000000 1.0
C      1  0.5491050000000  0.5572600000000  0.5546530000000 1.0
C      1  0.5743530000000  0.5205900000000  0.4293060000000 1.0
C      1  0.4431420000000  0.4387630000000  0.4806860000000 1.0
C      1  0.5608320000000  0.5676300000000  0.4805160000000 1.0
C      1  0.4726640000000  0.4518860000000  0.4418650000000 1.0
C      1  0.4474680000000  0.5287880000000  0.5721100000000 1.0
C      1  0.4945090000000  0.4142270000000  0.4682250000000 1.0
C      1  0.4382620000000  0.5378480000000  0.5219410000000 1.0
C      1  0.4740350000000  0.4094140000000  0.5114320000000 1.0
C      1  0.5568450000000  0.5561570000000  0.5266440000000 1.0
C      1  0.4108120000000  0.5028570000000  0.5442590000000 1.0
C      1  0.4966300000000  0.5086560000000  0.5930180000000 1.0
C      1  0.5271350000000  0.5041010000000  0.6012240000000 1.0
C      1  0.4578280000000  0.4952290000000  0.5370650000000 1.0
C      1  0.4557280000000  0.4948060000000  0.4191400000000 1.0
C      1  0.4945450000000  0.5131510000000  0.5625980000000 1.0
C      1  0.5908970000000  0.5126550000000  0.5180610000000 1.0
C      1  0.5516510000000  0.5322190000000  0.5688740000000 1.0
C      1  0.5933970000000  0.5111890000000  0.4524820000000 1.0
C      1  0.5720900000000  0.4638900000000  0.5490410000000 1.0
C      1  0.5278700000000  0.4818780000000  0.5418410000000 1.0
C      1  0.4061290000000  0.4723860000000  0.5409560000000 1.0
C      1  0.4957000000000  0.4016560000000  0.4953670000000 1.0
C      1  0.4721670000000  0.4380660000000  0.4696680000000 1.0
C      1  0.4794440000000  0.4830560000000  0.4938750000000 1.0
C      1  0.4698620000000  0.5395900000000  0.4237410000000 1.0
C      1  0.4613610000000  0.5691340000000  0.4446610000000 1.0
C      1  0.5269210000000  0.5752570000000  0.5594710000000 1.0
C      1  0.4241860000000  0.5085960000000  0.5718210000000 1.0
C      1  0.5518780000000  0.4759450000000  0.4343140000000 1.0
C      1  0.4346060000000  0.5429870000000  0.4922140000000 1.0
C      1  0.5145610000000  0.5907210000000  0.4861890000000 1.0
C      1  0.5109240000000  0.5347630000000  0.5521920000000 1.0
C      1  0.4290030000000  0.4743750000000  0.5644310000000 1.0
C      1  0.4291130000000  0.4946290000000  0.4966790000000 1.0
C      1  0.4679810000000  0.5390410000000  0.5295900000000 1.0
C      1  0.4506510000000  0.5861330000000  0.5011820000000 1.0
C      1  0.5073810000000  0.4355650000000  0.5379090000000 1.0
C      1  0.4968410000000  0.5934110000000  0.5081520000000 1.0
C      1  0.6021270000000  0.5305310000000  0.4713400000000 1.0
C      1  0.5181700000000  0.5441890000000  0.4733960000000 1.0
C      1  0.5307770000000  0.4539290000000  0.5279490000000 1.0
C      1  0.5351010000000  0.4951370000000  0.4512150000000 1.0
C      1  0.4850960000000  0.4798580000000  0.5952370000000 1.0
C      1  0.5890040000000  0.5320160000000  0.4963900000000 1.0
C      1  0.4126480000000  0.4642740000000  0.5134600000000 1.0
C      1  0.4378660000000  0.4523090000000  0.5068570000000 1.0
C      1  0.4647640000000  0.5410610000000  0.4829460000000 1.0
C      1  0.4170440000000  0.5549910000000  0.4414320000000 1.0
C      1  0.4461190000000  0.5225150000000  0.4175370000000 1.0
C      1  0.5197710000000  0.4296800000000  0.4602730000000 1.0
C      1  0.4824910000000  0.5320700000000  0.5049090000000 1.0
C      1  0.4872570000000  0.4537440000000  0.4914630000000 1.0
C      1  0.5204980000000  0.4025330000000  0.5111600000000 1.0
C      1  0.5159790000000  0.4073090000000  0.5385980000000 1.0
C      1  0.5738810000000  0.5556900000000  0.5030810000000 1.0
C      1  0.5374770000000  0.4616120000000  0.4973650000000 1.0
C      1  0.5031780000000  0.4451210000000  0.5664350000000 1.0
C      1  0.5030180000000  0.4981300000000  0.4850340000000 1.0
C      1  0.5462180000000  0.4215050000000  0.4715450000000 1.0
C      1  0.4165990000000  0.4824150000000  0.4481330000000 1.0
C      1  0.5491340000000  0.5416430000000  0.4687740000000 1.0
C      1  0.4240230000000  0.5550890000000  0.5408690000000 1.0
C      1  0.5273720000000  0.4577680000000  0.5816170000000 1.0
C      1  0.4272000000000  0.4466710000000  0.4580260000000 1.0
C      1  0.5424360000000  0.4174470000000  0.5003530000000 1.0
C      1  0.4440720000000  0.4505270000000  0.4343650000000 1.0
END
