TITL C-951343-2256-339 -1.0416036660293e-06 125000 -1199.26318940078 0 0 191 (C1) n - 1
REM
REM in /home/bkarasulu/work/CARBON/AIRSS/Generating-Clusters/EDIP-Nigel-Params/with-SteepDescent/Only-C1/SD-CG/HFTN-CG
REM
REM
REM
REM
REM
REM ./C.cell (11c1c37f851c82e70ff6c80c92926a4b)
REM
REM compiler GCC version 9.2.1 20190827 (Red Hat 9.2.1-1)
REM options -cpp -mtune=generic -march=x86-64 -g -O0 -fpre-include=/usr/include/finclude/math-vector-fortran.h
REM seed -650981173 1791552165 -280502545 1023327453 1461773117 -1128939127 -611007819 -1456808055 1727268495 -1497914958 100256642 -1392192882 1109772022 802295782 568352122 -474613966 1182383051 1693447860 254290320 89529975 -257104698 -662774107 1296739990 819746341 -783690521 1451610597 824132310 1979540580 1084511367 -938617340 2037369922 1933131861 -1544952358
REM
CELL 1.54180   50.00000   50.00000   50.00000   90.00000   90.00000   90.00000
LATT -1
SFAC C  
C      1  0.5099440000000  0.4820580000000  0.4247420000000 1.0
C      1  0.4830360000000  0.4590420000000  0.5333270000000 1.0
C      1  0.4477980000000  0.4682100000000  0.3984970000000 1.0
C      1  0.4764880000000  0.4632740000000  0.5630960000000 1.0
C      1  0.5281480000000  0.4320350000000  0.4307760000000 1.0
C      1  0.5345260000000  0.4641550000000  0.4733420000000 1.0
C      1  0.5475640000000  0.4407610000000  0.4884860000000 1.0
C      1  0.5690370000000  0.5352280000000  0.4874340000000 1.0
C      1  0.5077860000000  0.5888640000000  0.4406940000000 1.0
C      1  0.4980580000000  0.6322960000000  0.4995750000000 1.0
C      1  0.4488630000000  0.5444200000000  0.6143430000000 1.0
C      1  0.3911300000000  0.5256250000000  0.4872920000000 1.0
C      1  0.6035350000000  0.5496270000000  0.5079450000000 1.0
C      1  0.5262310000000  0.4119350000000  0.5252210000000 1.0
C      1  0.5183820000000  0.5743810000000  0.4165560000000 1.0
C      1  0.5001550000000  0.5621410000000  0.5107560000000 1.0
C      1  0.5214170000000  0.6297670000000  0.5123740000000 1.0
C      1  0.5704990000000  0.4180570000000  0.4504120000000 1.0
C      1  0.6040030000000  0.4981790000000  0.4814390000000 1.0
C      1  0.3873110000000  0.5226790000000  0.5821550000000 1.0
C      1  0.4769400000000  0.5579630000000  0.5280700000000 1.0
C      1  0.4074410000000  0.4677290000000  0.5378340000000 1.0
C      1  0.3984260000000  0.5625810000000  0.5248770000000 1.0
C      1  0.5456400000000  0.5564710000000  0.4887080000000 1.0
C      1  0.5339800000000  0.4234840000000  0.5726410000000 1.0
C      1  0.5516500000000  0.4804200000000  0.5436800000000 1.0
C      1  0.5958640000000  0.4855360000000  0.4359140000000 1.0
C      1  0.5796480000000  0.5561410000000  0.4565390000000 1.0
C      1  0.5732860000000  0.5837730000000  0.4835110000000 1.0
C      1  0.5614600000000  0.4588320000000  0.4188090000000 1.0
C      1  0.6086360000000  0.5395620000000  0.5338390000000 1.0
C      1  0.5028960000000  0.4929490000000  0.5053410000000 1.0
C      1  0.4858830000000  0.5500590000000  0.4431580000000 1.0
C      1  0.4586440000000  0.4100950000000  0.5343190000000 1.0
C      1  0.5573220000000  0.6043520000000  0.5310220000000 1.0
C      1  0.4849660000000  0.4948430000000  0.4515430000000 1.0
C      1  0.5718380000000  0.5807660000000  0.5329000000000 1.0
C      1  0.5028650000000  0.4016870000000  0.4854570000000 1.0
C      1  0.4415560000000  0.5542730000000  0.5676790000000 1.0
C      1  0.3952850000000  0.5545070000000  0.4971180000000 1.0
C      1  0.5841700000000  0.5716440000000  0.5082520000000 1.0
C      1  0.5489560000000  0.5628860000000  0.5764600000000 1.0
C      1  0.5395130000000  0.4740860000000  0.4398560000000 1.0
C      1  0.5455980000000  0.4092130000000  0.4367980000000 1.0
C      1  0.4287180000000  0.5894550000000  0.4986920000000 1.0
C      1  0.4909670000000  0.5860460000000  0.5654180000000 1.0
C      1  0.4379370000000  0.4832330000000  0.5821490000000 1.0
C      1  0.5872250000000  0.4218550000000  0.5014340000000 1.0
C      1  0.4293650000000  0.5499450000000  0.5942650000000 1.0
C      1  0.5431170000000  0.4559090000000  0.3932350000000 1.0
C      1  0.4194380000000  0.4415920000000  0.5328710000000 1.0
C      1  0.5217950000000  0.5287730000000  0.4020840000000 1.0
C      1  0.4998020000000  0.4301400000000  0.4945540000000 1.0
C      1  0.4417510000000  0.4329620000000  0.4909210000000 1.0
C      1  0.4623420000000  0.5014420000000  0.4154600000000 1.0
C      1  0.4550140000000  0.4629130000000  0.4899830000000 1.0
C      1  0.5050490000000  0.4945980000000  0.5519430000000 1.0
C      1  0.4792640000000  0.5933910000000  0.4410950000000 1.0
C      1  0.4759560000000  0.5469560000000  0.4706430000000 1.0
C      1  0.5727650000000  0.4259780000000  0.5279990000000 1.0
C      1  0.5129790000000  0.5691310000000  0.5670340000000 1.0
C      1  0.5317110000000  0.3996040000000  0.5522560000000 1.0
C      1  0.5298640000000  0.3941950000000  0.4574140000000 1.0
C      1  0.4542450000000  0.5163540000000  0.6133880000000 1.0
C      1  0.4712070000000  0.6050250000000  0.4677490000000 1.0
C      1  0.4140400000000  0.5113010000000  0.5425030000000 1.0
C      1  0.5663340000000  0.4937970000000  0.5189740000000 1.0
C      1  0.6020600000000  0.4484550000000  0.5002670000000 1.0
C      1  0.4631070000000  0.5134490000000  0.5474240000000 1.0
C      1  0.4300120000000  0.5033080000000  0.6025630000000 1.0
C      1  0.4974930000000  0.4470580000000  0.6020530000000 1.0
C      1  0.5783540000000  0.4435680000000  0.4393570000000 1.0
C      1  0.5193750000000  0.4413830000000  0.4042980000000 1.0
C      1  0.5874120000000  0.4448470000000  0.5460680000000 1.0
C      1  0.4837020000000  0.4020170000000  0.5477920000000 1.0
C      1  0.6006530000000  0.4687710000000  0.4791410000000 1.0
C      1  0.4634020000000  0.5277220000000  0.4329990000000 1.0
C      1  0.4332890000000  0.4837960000000  0.4857110000000 1.0
C      1  0.5892130000000  0.5337240000000  0.4386020000000 1.0
C      1  0.6057710000000  0.5108750000000  0.5090400000000 1.0
C      1  0.3968250000000  0.4529410000000  0.4653310000000 1.0
C      1  0.4384500000000  0.5316190000000  0.5466290000000 1.0
C      1  0.4211540000000  0.4829300000000  0.4386610000000 1.0
C      1  0.6015180000000  0.5102860000000  0.4532490000000 1.0
C      1  0.5821090000000  0.5360300000000  0.5460930000000 1.0
C      1  0.4768870000000  0.5063870000000  0.5967390000000 1.0
C      1  0.4360700000000  0.5381020000000  0.4365320000000 1.0
C      1  0.5653850000000  0.5248170000000  0.5207500000000 1.0
C      1  0.5480140000000  0.5398720000000  0.5955250000000 1.0
C      1  0.4500380000000  0.5607420000000  0.4720180000000 1.0
C      1  0.4901570000000  0.4980550000000  0.3816910000000 1.0
C      1  0.4587470000000  0.4995450000000  0.5199090000000 1.0
C      1  0.3928030000000  0.4952750000000  0.4449180000000 1.0
C      1  0.4860110000000  0.5339360000000  0.5441910000000 1.0
C      1  0.5337780000000  0.5276730000000  0.5552810000000 1.0
C      1  0.5452100000000  0.4354460000000  0.5184820000000 1.0
C      1  0.4974550000000  0.6137370000000  0.4785870000000 1.0
C      1  0.4815090000000  0.4197410000000  0.4392890000000 1.0
C      1  0.5078030000000  0.5406470000000  0.5633450000000 1.0
C      1  0.4086090000000  0.5754870000000  0.4833010000000 1.0
C      1  0.5058000000000  0.4770460000000  0.5294880000000 1.0
C      1  0.5438130000000  0.6141380000000  0.5088620000000 1.0
C      1  0.6053960000000  0.4588530000000  0.5271750000000 1.0
C      1  0.3894550000000  0.5239960000000  0.5543640000000 1.0
C      1  0.4650440000000  0.4927240000000  0.5719520000000 1.0
C      1  0.5157390000000  0.4996670000000  0.3985170000000 1.0
C      1  0.5017410000000  0.4576940000000  0.5759070000000 1.0
C      1  0.3947420000000  0.4395530000000  0.4894060000000 1.0
C      1  0.4717690000000  0.5828300000000  0.5452120000000 1.0
C      1  0.5830430000000  0.5158900000000  0.5682390000000 1.0
C      1  0.4730910000000  0.3962220000000  0.4842180000000 1.0
C      1  0.4160850000000  0.4318670000000  0.5054370000000 1.0
C      1  0.5613360000000  0.5152920000000  0.5877510000000 1.0
C      1  0.4260980000000  0.5238400000000  0.4600200000000 1.0
C      1  0.5254890000000  0.5095040000000  0.5017090000000 1.0
C      1  0.3857870000000  0.4793780000000  0.4681270000000 1.0
C      1  0.5820270000000  0.4784730000000  0.4097830000000 1.0
C      1  0.4191380000000  0.4852320000000  0.5575500000000 1.0
C      1  0.5699320000000  0.5621000000000  0.5551700000000 1.0
C      1  0.5043900000000  0.5516790000000  0.4028050000000 1.0
C      1  0.4475120000000  0.4569750000000  0.5954410000000 1.0
C      1  0.4551280000000  0.5865940000000  0.4858840000000 1.0
C      1  0.4600620000000  0.4135750000000  0.5046600000000 1.0
C      1  0.4739700000000  0.4434510000000  0.4258320000000 1.0
C      1  0.5931370000000  0.4901210000000  0.5606050000000 1.0
C      1  0.4802870000000  0.4686790000000  0.4694720000000 1.0
C      1  0.5205940000000  0.4449830000000  0.5583730000000 1.0
C      1  0.5485270000000  0.4912800000000  0.5995410000000 1.0
C      1  0.5597100000000  0.4987850000000  0.4439970000000 1.0
C      1  0.4342580000000  0.5348660000000  0.4921470000000 1.0
C      1  0.5258510000000  0.5313360000000  0.6117250000000 1.0
C      1  0.5140920000000  0.5387810000000  0.4437030000000 1.0
C      1  0.3842070000000  0.5485100000000  0.5436850000000 1.0
C      1  0.5249540000000  0.3908900000000  0.5038920000000 1.0
C      1  0.5356230000000  0.5293870000000  0.5245920000000 1.0
C      1  0.4263500000000  0.4450270000000  0.4419020000000 1.0
C      1  0.5073380000000  0.4260450000000  0.4510050000000 1.0
C      1  0.4397940000000  0.5655800000000  0.4431330000000 1.0
C      1  0.3959810000000  0.5229580000000  0.4575820000000 1.0
C      1  0.5309870000000  0.5595020000000  0.4621890000000 1.0
C      1  0.5432350000000  0.4393570000000  0.5988740000000 1.0
C      1  0.4731160000000  0.4603610000000  0.6113610000000 1.0
C      1  0.4428360000000  0.5807550000000  0.5533360000000 1.0
C      1  0.3909260000000  0.4955480000000  0.4924650000000 1.0
C      1  0.5466010000000  0.6000580000000  0.4836240000000 1.0
C      1  0.5643660000000  0.4172390000000  0.4802340000000 1.0
C      1  0.5478130000000  0.4914230000000  0.4919920000000 1.0
C      1  0.5319860000000  0.4985720000000  0.5591320000000 1.0
C      1  0.4424660000000  0.4303950000000  0.5479300000000 1.0
C      1  0.5616640000000  0.5087840000000  0.4728130000000 1.0
C      1  0.4507790000000  0.4367030000000  0.5748700000000 1.0
C      1  0.4440760000000  0.5488680000000  0.5205600000000 1.0
C      1  0.4371960000000  0.4961590000000  0.4597250000000 1.0
C      1  0.4378100000000  0.4249320000000  0.4625350000000 1.0
C      1  0.4693910000000  0.5183370000000  0.3907020000000 1.0
C      1  0.5214030000000  0.6018880000000  0.4651460000000 1.0
C      1  0.6029390000000  0.4881040000000  0.5319420000000 1.0
C      1  0.4615250000000  0.4072420000000  0.4575630000000 1.0
C      1  0.4307840000000  0.5062900000000  0.5080490000000 1.0
C      1  0.4611280000000  0.4702210000000  0.5179150000000 1.0
C      1  0.5458190000000  0.5372300000000  0.4138330000000 1.0
C      1  0.4798140000000  0.5104160000000  0.5027240000000 1.0
C      1  0.5214210000000  0.4439560000000  0.6167380000000 1.0
C      1  0.5466260000000  0.5655310000000  0.4188770000000 1.0
C      1  0.4950100000000  0.4584480000000  0.4100150000000 1.0
C      1  0.5460370000000  0.3922380000000  0.4827140000000 1.0
C      1  0.5320970000000  0.4591690000000  0.5344860000000 1.0
C      1  0.5047760000000  0.4503140000000  0.4725030000000 1.0
C      1  0.4141080000000  0.5248940000000  0.5912120000000 1.0
C      1  0.5672610000000  0.5190200000000  0.4207070000000 1.0
C      1  0.4614630000000  0.5747830000000  0.4254560000000 1.0
C      1  0.4717960000000  0.5185200000000  0.4755190000000 1.0
C      1  0.4337470000000  0.4915110000000  0.4127810000000 1.0
C      1  0.4969000000000  0.4906280000000  0.6105000000000 1.0
C      1  0.5408610000000  0.4861310000000  0.3865530000000 1.0
C      1  0.5586290000000  0.4642970000000  0.5907900000000 1.0
C      1  0.5142130000000  0.5282090000000  0.4810340000000 1.0
C      1  0.5111670000000  0.5111260000000  0.4568750000000 1.0
C      1  0.4753870000000  0.5475970000000  0.4015650000000 1.0
C      1  0.5983090000000  0.4609100000000  0.4516520000000 1.0
C      1  0.5676820000000  0.4993750000000  0.3957290000000 1.0
C      1  0.3943270000000  0.4821850000000  0.5172570000000 1.0
C      1  0.5276480000000  0.5556740000000  0.5129460000000 1.0
C      1  0.4269240000000  0.5740770000000  0.5254980000000 1.0
C      1  0.4953420000000  0.4307240000000  0.5249390000000 1.0
C      1  0.4786250000000  0.4710170000000  0.3878450000000 1.0
C      1  0.5546950000000  0.5700090000000  0.4462290000000 1.0
C      1  0.5239670000000  0.5025280000000  0.6134330000000 1.0
C      1  0.4464170000000  0.4458010000000  0.4184190000000 1.0
C      1  0.5060940000000  0.3981960000000  0.5662030000000 1.0
C      1  0.5728920000000  0.4675250000000  0.5624600000000 1.0
END
