TITL C-951348-1603-463 -5.62793176554739e-06 125000 -653.645242498811 0 0 106 (C1) n - 1
REM
REM in /home/bkarasulu/work/CARBON/AIRSS/Generating-Clusters/EDIP-Nigel-Params/with-SteepDescent/Only-C1/SD-CG/HFTN-CG
REM
REM
REM
REM
REM
REM ./C.cell (11c1c37f851c82e70ff6c80c92926a4b)
REM
REM compiler GCC version 9.2.1 20190827 (Red Hat 9.2.1-1)
REM options -cpp -mtune=generic -march=x86-64 -g -O0 -fpre-include=/usr/include/finclude/math-vector-fortran.h
REM seed -1100578451 709701234 -1228741670 861786593 2021971768 983308056 735354140 -1698662041 -1449334656 1276446362 -1027803969 -220064649 -673110116 -1473442557 1715101204 198755824 -1135468291 1628848368 -1082519558 1646834006 20226710 1504467420 -1339439590 -358447876 -819917564 -1985085389 1279582854 -984241196 684563161 -508266313 642419517 -297855899 647846674
REM
CELL 1.54180   50.00000   50.00000   50.00000   90.00000   90.00000   90.00000
LATT -1
SFAC C  
C      1  0.5246040000000  0.4977290000000  0.4552630000000 1.0
C      1  0.4829570000000  0.5455730000000  0.5539230000000 1.0
C      1  0.4958880000000  0.4302820000000  0.4366370000000 1.0
C      1  0.4904200000000  0.5539620000000  0.4397990000000 1.0
C      1  0.4541150000000  0.4483750000000  0.5430870000000 1.0
C      1  0.4581270000000  0.4488840000000  0.4950760000000 1.0
C      1  0.5705740000000  0.5022650000000  0.5321030000000 1.0
C      1  0.4909730000000  0.4246070000000  0.5357670000000 1.0
C      1  0.4157530000000  0.4817300000000  0.5334620000000 1.0
C      1  0.5297790000000  0.5777080000000  0.4541020000000 1.0
C      1  0.4704040000000  0.4387470000000  0.4434910000000 1.0
C      1  0.4670760000000  0.4385920000000  0.4710280000000 1.0
C      1  0.5358650000000  0.4656560000000  0.5865370000000 1.0
C      1  0.5021740000000  0.5522950000000  0.4873700000000 1.0
C      1  0.5297950000000  0.5538540000000  0.5006690000000 1.0
C      1  0.4802870000000  0.4852440000000  0.4502470000000 1.0
C      1  0.4851720000000  0.5083530000000  0.4314060000000 1.0
C      1  0.5405850000000  0.5612600000000  0.4339220000000 1.0
C      1  0.4711610000000  0.5810580000000  0.4772130000000 1.0
C      1  0.5505450000000  0.4760560000000  0.5634890000000 1.0
C      1  0.4859990000000  0.4655030000000  0.5812590000000 1.0
C      1  0.4476020000000  0.4904740000000  0.5719790000000 1.0
C      1  0.4955130000000  0.4970780000000  0.5448870000000 1.0
C      1  0.5202140000000  0.5293510000000  0.5839670000000 1.0
C      1  0.4251420000000  0.5254030000000  0.4552230000000 1.0
C      1  0.5223820000000  0.5142190000000  0.4008570000000 1.0
C      1  0.4300660000000  0.4476530000000  0.5003290000000 1.0
C      1  0.4738590000000  0.5931630000000  0.5022200000000 1.0
C      1  0.4632300000000  0.4205120000000  0.5460130000000 1.0
C      1  0.4383060000000  0.5523840000000  0.5024520000000 1.0
C      1  0.4932380000000  0.5246870000000  0.5341470000000 1.0
C      1  0.5437110000000  0.5506360000000  0.5419710000000 1.0
C      1  0.5394220000000  0.5379640000000  0.4710060000000 1.0
C      1  0.5320740000000  0.4641830000000  0.4173550000000 1.0
C      1  0.5333430000000  0.4330740000000  0.4910130000000 1.0
C      1  0.5038190000000  0.5269900000000  0.4467120000000 1.0
C      1  0.4524260000000  0.5462210000000  0.5560800000000 1.0
C      1  0.5112010000000  0.4493550000000  0.5780520000000 1.0
C      1  0.4983860000000  0.5716550000000  0.4634520000000 1.0
C      1  0.4858030000000  0.4841480000000  0.5176400000000 1.0
C      1  0.5513860000000  0.4112860000000  0.5008860000000 1.0
C      1  0.4522670000000  0.5325880000000  0.5203580000000 1.0
C      1  0.5778350000000  0.4747260000000  0.5275820000000 1.0
C      1  0.5724910000000  0.4292060000000  0.5120000000000 1.0
C      1  0.4117150000000  0.5463670000000  0.4957920000000 1.0
C      1  0.5032190000000  0.4085640000000  0.5127210000000 1.0
C      1  0.5693330000000  0.5610650000000  0.4819650000000 1.0
C      1  0.5115940000000  0.4799900000000  0.4986020000000 1.0
C      1  0.4390520000000  0.4767620000000  0.4360410000000 1.0
C      1  0.5315940000000  0.4014730000000  0.5221420000000 1.0
C      1  0.5669900000000  0.5483990000000  0.5111910000000 1.0
C      1  0.4949120000000  0.5713670000000  0.5441990000000 1.0
C      1  0.4140330000000  0.4559660000000  0.4786660000000 1.0
C      1  0.5713640000000  0.5364910000000  0.4591110000000 1.0
C      1  0.5121510000000  0.4458350000000  0.4557800000000 1.0
C      1  0.4917580000000  0.4942210000000  0.5762700000000 1.0
C      1  0.4799240000000  0.5883260000000  0.5279330000000 1.0
C      1  0.4610170000000  0.5488890000000  0.4315810000000 1.0
C      1  0.4067480000000  0.5253200000000  0.4781570000000 1.0
C      1  0.5651970000000  0.4306010000000  0.5414940000000 1.0
C      1  0.5379150000000  0.4175680000000  0.5468520000000 1.0
C      1  0.5132510000000  0.4319700000000  0.5544340000000 1.0
C      1  0.4643300000000  0.5069330000000  0.5061320000000 1.0
C      1  0.4673770000000  0.5101120000000  0.5827370000000 1.0
C      1  0.5767480000000  0.5203390000000  0.5100810000000 1.0
C      1  0.5135000000000  0.5030810000000  0.5955000000000 1.0
C      1  0.5238620000000  0.5728060000000  0.5401330000000 1.0
C      1  0.4267240000000  0.4545760000000  0.5293000000000 1.0
C      1  0.4405360000000  0.5506840000000  0.4536340000000 1.0
C      1  0.4294830000000  0.5286110000000  0.5507740000000 1.0
C      1  0.5327630000000  0.4857830000000  0.6059200000000 1.0
C      1  0.5064330000000  0.4233650000000  0.4872710000000 1.0
C      1  0.5273550000000  0.5046100000000  0.5023580000000 1.0
C      1  0.4213970000000  0.4637720000000  0.4537390000000 1.0
C      1  0.5312360000000  0.5919000000000  0.5219390000000 1.0
C      1  0.3985340000000  0.4911320000000  0.5136630000000 1.0
C      1  0.5653360000000  0.4615060000000  0.5036500000000 1.0
C      1  0.4977850000000  0.5251430000000  0.4765990000000 1.0
C      1  0.4925680000000  0.5392470000000  0.5808080000000 1.0
C      1  0.5803860000000  0.5074190000000  0.4829350000000 1.0
C      1  0.4562510000000  0.5533500000000  0.4788960000000 1.0
C      1  0.5203910000000  0.5287380000000  0.5194720000000 1.0
C      1  0.5694480000000  0.4588310000000  0.5503230000000 1.0
C      1  0.5556870000000  0.4740250000000  0.4535700000000 1.0
C      1  0.5730680000000  0.4781410000000  0.4786250000000 1.0
C      1  0.4593790000000  0.5205960000000  0.4226460000000 1.0
C      1  0.5497200000000  0.5834990000000  0.4749900000000 1.0
C      1  0.5391850000000  0.4494940000000  0.4432820000000 1.0
C      1  0.5375900000000  0.5272820000000  0.5596760000000 1.0
C      1  0.5568790000000  0.5386160000000  0.4309700000000 1.0
C      1  0.5392110000000  0.5961710000000  0.4970470000000 1.0
C      1  0.5046990000000  0.4759810000000  0.4652910000000 1.0
C      1  0.5431800000000  0.5145390000000  0.4197350000000 1.0
C      1  0.5338560000000  0.4592120000000  0.5049830000000 1.0
C      1  0.4684760000000  0.4656290000000  0.4313230000000 1.0
C      1  0.4587760000000  0.4631980000000  0.5690930000000 1.0
C      1  0.5531230000000  0.4872460000000  0.4245960000000 1.0
C      1  0.4307610000000  0.4999540000000  0.5509800000000 1.0
C      1  0.3958460000000  0.5025190000000  0.4894830000000 1.0
C      1  0.5030000000000  0.4710220000000  0.4146200000000 1.0
C      1  0.5559970000000  0.5046830000000  0.5575150000000 1.0
C      1  0.5420520000000  0.5088100000000  0.4775000000000 1.0
C      1  0.4699450000000  0.5226130000000  0.4814090000000 1.0
C      1  0.4363690000000  0.5065940000000  0.4348950000000 1.0
C      1  0.4995280000000  0.4987570000000  0.4073190000000 1.0
C      1  0.4734910000000  0.4556150000000  0.5196300000000 1.0
END
