TITL C-951337-3020-697 6.88826122438212e-07 125000 -280.498719976512 0 0 47 (C1) n - 1
REM
REM in /home/bkarasulu/work/CARBON/AIRSS/Generating-Clusters/EDIP-Nigel-Params/with-SteepDescent/Only-C1/SD-CG/HFTN-CG
REM
REM
REM
REM
REM
REM ./C.cell (11c1c37f851c82e70ff6c80c92926a4b)
REM
REM compiler GCC version 9.2.1 20190827 (Red Hat 9.2.1-1)
REM options -cpp -mtune=generic -march=x86-64 -g -O0 -fpre-include=/usr/include/finclude/math-vector-fortran.h
REM seed -1213675900 -1882887447 -81902062 1195253299 1505749696 997773231 509879893 1459811890 1462255603 -1558934708 -158861195 2069886194 1595169929 -1337201402 1316315258 -1742095999 -612579306 -148170936 1877723663 1572542982 -470757765 -936366733 -1135316629 -1512451200 -2113278126 1265858543 -598441340 322978495 191992280 478576123 1932482393 207013347 1221913844
REM
CELL 1.54180   50.00000   50.00000   50.00000   90.00000   90.00000   90.00000
LATT -1
SFAC C  
C      1  0.5083760000000  0.4956470000000  0.5379960000000 1.0
C      1  0.5279910000000  0.4772260000000  0.4705280000000 1.0
C      1  0.5422410000000  0.5517060000000  0.4890950000000 1.0
C      1  0.5058120000000  0.4753850000000  0.4914390000000 1.0
C      1  0.4904210000000  0.5368520000000  0.5637920000000 1.0
C      1  0.4796680000000  0.4383050000000  0.5115800000000 1.0
C      1  0.4901070000000  0.4646280000000  0.5511160000000 1.0
C      1  0.5693840000000  0.4506280000000  0.4877330000000 1.0
C      1  0.4975250000000  0.4449580000000  0.4377190000000 1.0
C      1  0.4684120000000  0.5211920000000  0.5633900000000 1.0
C      1  0.5357360000000  0.5378420000000  0.5408610000000 1.0
C      1  0.5066360000000  0.5502810000000  0.5453530000000 1.0
C      1  0.5127250000000  0.4512350000000  0.5380040000000 1.0
C      1  0.4884130000000  0.5130670000000  0.5207380000000 1.0
C      1  0.5293690000000  0.5378650000000  0.5094720000000 1.0
C      1  0.5050040000000  0.4687520000000  0.4253140000000 1.0
C      1  0.4886440000000  0.5109300000000  0.4511050000000 1.0
C      1  0.4142550000000  0.5242300000000  0.5295330000000 1.0
C      1  0.4691490000000  0.4572770000000  0.5322050000000 1.0
C      1  0.5500890000000  0.5487420000000  0.4625630000000 1.0
C      1  0.5211140000000  0.4738680000000  0.5204010000000 1.0
C      1  0.5689750000000  0.4619660000000  0.5120380000000 1.0
C      1  0.4901980000000  0.4370380000000  0.4623080000000 1.0
C      1  0.5504390000000  0.4789290000000  0.5233700000000 1.0
C      1  0.4417330000000  0.5304150000000  0.5229620000000 1.0
C      1  0.4809810000000  0.5598370000000  0.4999500000000 1.0
C      1  0.5332400000000  0.5097180000000  0.5502570000000 1.0
C      1  0.5490230000000  0.4594800000000  0.4727130000000 1.0
C      1  0.4083060000000  0.5008650000000  0.5433370000000 1.0
C      1  0.4606790000000  0.5395170000000  0.4738390000000 1.0
C      1  0.4282370000000  0.4883720000000  0.5284430000000 1.0
C      1  0.5404490000000  0.5114680000000  0.4339650000000 1.0
C      1  0.4874890000000  0.4515370000000  0.4860790000000 1.0
C      1  0.4871160000000  0.5568720000000  0.4683080000000 1.0
C      1  0.4501480000000  0.5495920000000  0.5020130000000 1.0
C      1  0.5288830000000  0.5409760000000  0.4398480000000 1.0
C      1  0.4629910000000  0.5150770000000  0.5363670000000 1.0
C      1  0.5567790000000  0.4949600000000  0.5452190000000 1.0
C      1  0.4693520000000  0.5101330000000  0.4727880000000 1.0
C      1  0.5015650000000  0.5373900000000  0.4516400000000 1.0
C      1  0.4425560000000  0.4654460000000  0.5335770000000 1.0
C      1  0.5235760000000  0.4875060000000  0.4428160000000 1.0
C      1  0.4868970000000  0.4907860000000  0.4300400000000 1.0
C      1  0.5037420000000  0.4285800000000  0.5236250000000 1.0
C      1  0.4869790000000  0.4996980000000  0.4941690000000 1.0
C      1  0.5593960000000  0.5221660000000  0.4539140000000 1.0
C      1  0.4992000000000  0.5410620000000  0.5164750000000 1.0
END
