TITL C-951348-1603-22 -2.86580542183206e-06 125000 -721.627306187244 0 0 117 (C1) n - 1
REM
REM in /home/bkarasulu/work/CARBON/AIRSS/Generating-Clusters/EDIP-Nigel-Params/with-SteepDescent/Only-C1/SD-CG/HFTN-CG
REM
REM
REM
REM
REM
REM ./C.cell (11c1c37f851c82e70ff6c80c92926a4b)
REM
REM compiler GCC version 9.2.1 20190827 (Red Hat 9.2.1-1)
REM options -cpp -mtune=generic -march=x86-64 -g -O0 -fpre-include=/usr/include/finclude/math-vector-fortran.h
REM seed -639831287 690150326 -443093144 -1191744308 2057363832 1092755192 -372837307 541201753 -472207563 -150040697 -924420601 1664079762 686701097 -320398053 2035473717 232015532 -1238838991 -1360965333 1934730339 -160308370 105634096 2061719831 266248294 1497730849 1444497949 1364385860 -1066934361 841187039 367945230 -560182476 -1166431498 -1932230773 -1438315051
REM
CELL 1.54180   50.00000   50.00000   50.00000   90.00000   90.00000   90.00000
LATT -1
SFAC C  
C      1  0.5144880000000  0.5268770000000  0.4196240000000 1.0
C      1  0.5552230000000  0.4730240000000  0.5770580000000 1.0
C      1  0.4184900000000  0.4758670000000  0.5636760000000 1.0
C      1  0.5248050000000  0.4321520000000  0.4447330000000 1.0
C      1  0.5838620000000  0.5000130000000  0.4836020000000 1.0
C      1  0.4860170000000  0.5570040000000  0.4348030000000 1.0
C      1  0.4479280000000  0.4588170000000  0.4322990000000 1.0
C      1  0.4848980000000  0.4916960000000  0.4314850000000 1.0
C      1  0.3892220000000  0.5185100000000  0.4753020000000 1.0
C      1  0.5724800000000  0.4384610000000  0.5527700000000 1.0
C      1  0.5972440000000  0.4778020000000  0.4989870000000 1.0
C      1  0.4599780000000  0.5678350000000  0.5179790000000 1.0
C      1  0.4480960000000  0.5165640000000  0.4339280000000 1.0
C      1  0.4134490000000  0.4716310000000  0.4947910000000 1.0
C      1  0.5622990000000  0.5239580000000  0.4302900000000 1.0
C      1  0.4771100000000  0.4700960000000  0.5403880000000 1.0
C      1  0.4843460000000  0.4531080000000  0.4765940000000 1.0
C      1  0.4667580000000  0.5208390000000  0.5282450000000 1.0
C      1  0.5010380000000  0.4552420000000  0.5750350000000 1.0
C      1  0.4654810000000  0.4347270000000  0.4389660000000 1.0
C      1  0.5848570000000  0.5080860000000  0.4324390000000 1.0
C      1  0.4320980000000  0.4850800000000  0.5165280000000 1.0
C      1  0.5017710000000  0.4693640000000  0.4274490000000 1.0
C      1  0.5456880000000  0.5811450000000  0.4676810000000 1.0
C      1  0.5549700000000  0.5655310000000  0.5505230000000 1.0
C      1  0.4925430000000  0.4105290000000  0.5272070000000 1.0
C      1  0.5685200000000  0.5411020000000  0.5526970000000 1.0
C      1  0.4854310000000  0.5001660000000  0.5430790000000 1.0
C      1  0.5061830000000  0.4790240000000  0.5887550000000 1.0
C      1  0.4197990000000  0.5201050000000  0.4394420000000 1.0
C      1  0.4397070000000  0.5587890000000  0.4479670000000 1.0
C      1  0.5502060000000  0.4478060000000  0.5668910000000 1.0
C      1  0.5722020000000  0.4529540000000  0.4811740000000 1.0
C      1  0.5851990000000  0.4907790000000  0.4541970000000 1.0
C      1  0.4543800000000  0.5623050000000  0.5476580000000 1.0
C      1  0.5166810000000  0.5426420000000  0.4787480000000 1.0
C      1  0.4689280000000  0.4243130000000  0.5364600000000 1.0
C      1  0.5253730000000  0.5211240000000  0.5727070000000 1.0
C      1  0.5776290000000  0.5478960000000  0.4730500000000 1.0
C      1  0.4800100000000  0.5453820000000  0.5136370000000 1.0
C      1  0.5887400000000  0.5289350000000  0.4934280000000 1.0
C      1  0.5412250000000  0.4092460000000  0.5273990000000 1.0
C      1  0.4896980000000  0.4077850000000  0.4970770000000 1.0
C      1  0.4736880000000  0.5262100000000  0.4682270000000 1.0
C      1  0.4169140000000  0.5438220000000  0.5057340000000 1.0
C      1  0.4823110000000  0.5670750000000  0.5568420000000 1.0
C      1  0.4127380000000  0.5381130000000  0.5323790000000 1.0
C      1  0.4786000000000  0.5224030000000  0.5806080000000 1.0
C      1  0.4724010000000  0.5032190000000  0.4876710000000 1.0
C      1  0.4980900000000  0.5155430000000  0.4437750000000 1.0
C      1  0.4522500000000  0.4217530000000  0.4632760000000 1.0
C      1  0.4197120000000  0.4933820000000  0.5435700000000 1.0
C      1  0.5481860000000  0.5262410000000  0.5114430000000 1.0
C      1  0.5179420000000  0.5497750000000  0.5770100000000 1.0
C      1  0.5677520000000  0.4954560000000  0.5660450000000 1.0
C      1  0.5037800000000  0.4554740000000  0.4987580000000 1.0
C      1  0.4534030000000  0.5318330000000  0.5535460000000 1.0
C      1  0.5046250000000  0.5513580000000  0.5286190000000 1.0
C      1  0.5696350000000  0.5738740000000  0.4805650000000 1.0
C      1  0.3951550000000  0.5403760000000  0.4892870000000 1.0
C      1  0.4473430000000  0.5717980000000  0.4727720000000 1.0
C      1  0.4765550000000  0.5773160000000  0.4770850000000 1.0
C      1  0.4597980000000  0.5461170000000  0.4313350000000 1.0
C      1  0.5319280000000  0.4217360000000  0.4709090000000 1.0
C      1  0.5218010000000  0.6095350000000  0.5031330000000 1.0
C      1  0.4689020000000  0.4288150000000  0.4877860000000 1.0
C      1  0.4774930000000  0.5901600000000  0.5049420000000 1.0
C      1  0.4149110000000  0.4416820000000  0.4929660000000 1.0
C      1  0.5134160000000  0.4048210000000  0.4829390000000 1.0
C      1  0.4537410000000  0.4654320000000  0.5226620000000 1.0
C      1  0.5226480000000  0.4412600000000  0.5596900000000 1.0
C      1  0.5567080000000  0.5214670000000  0.5724610000000 1.0
C      1  0.5290620000000  0.5707100000000  0.5594620000000 1.0
C      1  0.5149580000000  0.5085170000000  0.5464400000000 1.0
C      1  0.5741340000000  0.5248630000000  0.5271910000000 1.0
C      1  0.4957680000000  0.4452640000000  0.4447690000000 1.0
C      1  0.5356860000000  0.4845780000000  0.4570060000000 1.0
C      1  0.4741570000000  0.4567330000000  0.5662680000000 1.0
C      1  0.4186200000000  0.4805560000000  0.4670920000000 1.0
C      1  0.5417180000000  0.4824370000000  0.5070700000000 1.0
C      1  0.5596730000000  0.4596270000000  0.5102460000000 1.0
C      1  0.4960680000000  0.4496060000000  0.5270410000000 1.0
C      1  0.5143800000000  0.5547480000000  0.4311720000000 1.0
C      1  0.5303980000000  0.4771510000000  0.4282350000000 1.0
C      1  0.5522630000000  0.5050810000000  0.4915550000000 1.0
C      1  0.4226990000000  0.4574680000000  0.4484470000000 1.0
C      1  0.5157170000000  0.4805830000000  0.4960380000000 1.0
C      1  0.4674530000000  0.4782580000000  0.4727320000000 1.0
C      1  0.5598830000000  0.4212220000000  0.5112520000000 1.0
C      1  0.4242960000000  0.4332740000000  0.4656090000000 1.0
C      1  0.4464540000000  0.5105590000000  0.5054860000000 1.0
C      1  0.5774990000000  0.4966040000000  0.5387440000000 1.0
C      1  0.5838140000000  0.4711100000000  0.5240250000000 1.0
C      1  0.4598260000000  0.4844830000000  0.4440890000000 1.0
C      1  0.4873680000000  0.5483980000000  0.4834340000000 1.0
C      1  0.4531210000000  0.4366440000000  0.5148980000000 1.0
C      1  0.4396160000000  0.5285750000000  0.4714990000000 1.0
C      1  0.5322670000000  0.5559820000000  0.4568680000000 1.0
C      1  0.5942800000000  0.4495960000000  0.5405500000000 1.0
C      1  0.5039320000000  0.5932500000000  0.5167540000000 1.0
C      1  0.5585340000000  0.4254620000000  0.4825930000000 1.0
C      1  0.5058450000000  0.5861630000000  0.5464950000000 1.0
C      1  0.5396800000000  0.5121790000000  0.4169740000000 1.0
C      1  0.5454300000000  0.4499470000000  0.4317990000000 1.0
C      1  0.4257630000000  0.4270930000000  0.5146340000000 1.0
C      1  0.5564080000000  0.5381160000000  0.4547680000000 1.0
C      1  0.5228180000000  0.5124880000000  0.4667360000000 1.0
C      1  0.5037430000000  0.5070810000000  0.5894730000000 1.0
C      1  0.4052530000000  0.5043780000000  0.4577150000000 1.0
C      1  0.4376170000000  0.5626130000000  0.4991960000000 1.0
C      1  0.5315220000000  0.6016340000000  0.4794960000000 1.0
C      1  0.4999150000000  0.5044230000000  0.5017560000000 1.0
C      1  0.5187770000000  0.5242900000000  0.5218980000000 1.0
C      1  0.4244260000000  0.5217470000000  0.5514840000000 1.0
C      1  0.4889440000000  0.5499270000000  0.5796550000000 1.0
C      1  0.5190090000000  0.4169160000000  0.5422800000000 1.0
C      1  0.5637320000000  0.4693160000000  0.4562940000000 1.0
END
