TITL C-950529-3362-605 1.56864712916586e-06 125000 -137.49904785214 0 0 24 (C1) n - 1
REM
REM in /home/bkarasulu/work/CARBON/AIRSS/Generating-Clusters/EDIP-Nigel-Params/with-SteepDescent/Only-C1/SD-CG/HFTN-CG
REM
REM
REM
REM
REM
REM ./C.cell (11c1c37f851c82e70ff6c80c92926a4b)
REM
REM compiler GCC version 9.2.1 20190827 (Red Hat 9.2.1-1)
REM options -cpp -mtune=generic -march=x86-64 -g -O0 -fpre-include=/usr/include/finclude/math-vector-fortran.h
REM seed 1748939625 1439181996 1867244627 -1053899214 1714425293 923179276 -120711999 1764692079 -482838732 -1378655566 -404474216 -163345755 -2924877 634292910 -1277020827 -1610537456 -1841864218 730982390 -926844313 -223604012 1171750396 -1907498865 2105008975 -1072597799 303571471 512604805 1840689938 -1857929868 -412581518 852675483 1934352078 547870421 1942804630
REM
CELL 1.54180   50.00000   50.00000   50.00000   90.00000   90.00000   90.00000
LATT -1
SFAC C  
C      1  0.4716810000000  0.4654420000000  0.5343650000000 1.0
C      1  0.4650560000000  0.4919490000000  0.5304030000000 1.0
C      1  0.5362410000000  0.5233540000000  0.5323340000000 1.0
C      1  0.4843590000000  0.4834290000000  0.4547810000000 1.0
C      1  0.5305340000000  0.5493010000000  0.5206570000000 1.0
C      1  0.4620080000000  0.4969190000000  0.4657600000000 1.0
C      1  0.4361130000000  0.4893040000000  0.4606600000000 1.0
C      1  0.5329890000000  0.5388900000000  0.4955180000000 1.0
C      1  0.5440220000000  0.5131120000000  0.4900660000000 1.0
C      1  0.5258290000000  0.4927630000000  0.4801290000000 1.0
C      1  0.5326780000000  0.4655570000000  0.4852180000000 1.0
C      1  0.4119370000000  0.4809730000000  0.4594600000000 1.0
C      1  0.5546080000000  0.5043640000000  0.5159820000000 1.0
C      1  0.5199850000000  0.4781190000000  0.5393980000000 1.0
C      1  0.4677880000000  0.5294430000000  0.5203430000000 1.0
C      1  0.5119280000000  0.5064790000000  0.5393130000000 1.0
C      1  0.5057670000000  0.5010660000000  0.4610360000000 1.0
C      1  0.4867040000000  0.5089740000000  0.5247540000000 1.0
C      1  0.4693210000000  0.5245720000000  0.4705270000000 1.0
C      1  0.4965660000000  0.5277930000000  0.4632290000000 1.0
C      1  0.5441980000000  0.4764460000000  0.5211340000000 1.0
C      1  0.4981080000000  0.4607710000000  0.5373830000000 1.0
C      1  0.4612630000000  0.5364250000000  0.4945010000000 1.0
C      1  0.5503170000000  0.4545570000000  0.5030480000000 1.0
END
