TITL C-951338-5626-45 2.37576029787642e-06 125000 -1066.42048153976 0 0 171 (C1) n - 1
REM
REM in /home/bkarasulu/work/CARBON/AIRSS/Generating-Clusters/EDIP-Nigel-Params/with-SteepDescent/Only-C1/SD-CG/HFTN-CG
REM
REM
REM
REM
REM
REM ./C.cell (11c1c37f851c82e70ff6c80c92926a4b)
REM
REM compiler GCC version 9.2.1 20190827 (Red Hat 9.2.1-1)
REM options -cpp -mtune=generic -march=x86-64 -g -O0 -fpre-include=/usr/include/finclude/math-vector-fortran.h
REM seed 2138418003 -879556817 642400165 1696553918 1880690028 -185934963 -1943132543 1445180266 383228673 -1177436177 -575252657 332283229 -59399480 579843711 -130120152 14652152 878430771 -1736054159 1086903691 -502009408 -1372615961 414404163 -2132296157 -1921427073 96802054 -1979894214 -790660564 -560928524 1616344332 -955130077 1058921358 666966625 -724691289
REM
CELL 1.54180   50.00000   50.00000   50.00000   90.00000   90.00000   90.00000
LATT -1
SFAC C  
C      1  0.4999260000000  0.4704150000000  0.4871830000000 1.0
C      1  0.5766650000000  0.5609290000000  0.5560730000000 1.0
C      1  0.4890590000000  0.5363870000000  0.3967500000000 1.0
C      1  0.5243410000000  0.5279470000000  0.5462850000000 1.0
C      1  0.5864780000000  0.5407560000000  0.5117910000000 1.0
C      1  0.4116660000000  0.4669620000000  0.5646370000000 1.0
C      1  0.5345830000000  0.6078950000000  0.5197470000000 1.0
C      1  0.4757160000000  0.4418030000000  0.5209270000000 1.0
C      1  0.5797150000000  0.5856330000000  0.5152270000000 1.0
C      1  0.4876480000000  0.5941210000000  0.5049010000000 1.0
C      1  0.4460110000000  0.5449030000000  0.4297430000000 1.0
C      1  0.5297130000000  0.4498340000000  0.5640160000000 1.0
C      1  0.5555820000000  0.4339200000000  0.5546500000000 1.0
C      1  0.5146410000000  0.4949130000000  0.6043460000000 1.0
C      1  0.4895640000000  0.4786550000000  0.6040360000000 1.0
C      1  0.5123930000000  0.4050190000000  0.5525800000000 1.0
C      1  0.5053200000000  0.4365310000000  0.5158060000000 1.0
C      1  0.4981250000000  0.4503270000000  0.5999690000000 1.0
C      1  0.5528380000000  0.4969590000000  0.3980640000000 1.0
C      1  0.4807240000000  0.4906030000000  0.4928480000000 1.0
C      1  0.4879760000000  0.4152930000000  0.4263370000000 1.0
C      1  0.3811940000000  0.5343940000000  0.5116760000000 1.0
C      1  0.5857310000000  0.5436500000000  0.4360390000000 1.0
C      1  0.4889380000000  0.5345130000000  0.5878410000000 1.0
C      1  0.4688570000000  0.4862390000000  0.5848790000000 1.0
C      1  0.5333590000000  0.5173250000000  0.4896290000000 1.0
C      1  0.5525060000000  0.4226910000000  0.5272820000000 1.0
C      1  0.5156160000000  0.4215790000000  0.4299090000000 1.0
C      1  0.5841360000000  0.4621600000000  0.4636660000000 1.0
C      1  0.5150410000000  0.5187690000000  0.5162310000000 1.0
C      1  0.5337810000000  0.6046050000000  0.4899690000000 1.0
C      1  0.5057320000000  0.4337730000000  0.5545620000000 1.0
C      1  0.4302750000000  0.5380680000000  0.5035950000000 1.0
C      1  0.4800730000000  0.3926240000000  0.4400170000000 1.0
C      1  0.4890040000000  0.4658180000000  0.3948390000000 1.0
C      1  0.4361550000000  0.4486660000000  0.5618570000000 1.0
C      1  0.5656350000000  0.5094670000000  0.4606890000000 1.0
C      1  0.5416220000000  0.5481400000000  0.4096030000000 1.0
C      1  0.4723900000000  0.4658340000000  0.5403200000000 1.0
C      1  0.3850210000000  0.4942670000000  0.5354770000000 1.0
C      1  0.4206260000000  0.5085790000000  0.5130520000000 1.0
C      1  0.4718130000000  0.4072540000000  0.4813440000000 1.0
C      1  0.5116320000000  0.5602710000000  0.5315170000000 1.0
C      1  0.4555020000000  0.5247200000000  0.5510040000000 1.0
C      1  0.4713680000000  0.6096220000000  0.5244540000000 1.0
C      1  0.5172680000000  0.5600060000000  0.4819270000000 1.0
C      1  0.4889480000000  0.3895040000000  0.5177800000000 1.0
C      1  0.4438190000000  0.4951020000000  0.4637920000000 1.0
C      1  0.5770140000000  0.4284280000000  0.5101100000000 1.0
C      1  0.3950880000000  0.4926080000000  0.4896560000000 1.0
C      1  0.4756840000000  0.4602740000000  0.4465500000000 1.0
C      1  0.4436650000000  0.4727460000000  0.4012310000000 1.0
C      1  0.5189360000000  0.4628960000000  0.5083410000000 1.0
C      1  0.4085690000000  0.4504730000000  0.4705320000000 1.0
C      1  0.4732730000000  0.5711510000000  0.5573200000000 1.0
C      1  0.5076120000000  0.5276240000000  0.4455280000000 1.0
C      1  0.5847800000000  0.5387600000000  0.5736610000000 1.0
C      1  0.5449740000000  0.4912410000000  0.4764920000000 1.0
C      1  0.4266160000000  0.4162490000000  0.4955050000000 1.0
C      1  0.5266070000000  0.5627670000000  0.5728810000000 1.0
C      1  0.5168320000000  0.3902640000000  0.5074410000000 1.0
C      1  0.5665960000000  0.4519970000000  0.5883820000000 1.0
C      1  0.4831130000000  0.5984760000000  0.5489150000000 1.0
C      1  0.5128120000000  0.5259630000000  0.6027880000000 1.0
C      1  0.3771220000000  0.5046000000000  0.5093770000000 1.0
C      1  0.4210250000000  0.5075520000000  0.4532890000000 1.0
C      1  0.4717550000000  0.5048910000000  0.4674590000000 1.0
C      1  0.5816480000000  0.4343430000000  0.4792800000000 1.0
C      1  0.5556960000000  0.5365180000000  0.5133280000000 1.0
C      1  0.5137380000000  0.4530570000000  0.3970230000000 1.0
C      1  0.5230920000000  0.4040610000000  0.4810430000000 1.0
C      1  0.4560200000000  0.4981380000000  0.4027050000000 1.0
C      1  0.4473290000000  0.4787490000000  0.5309980000000 1.0
C      1  0.5579800000000  0.4180660000000  0.4712580000000 1.0
C      1  0.5726000000000  0.4651010000000  0.4348540000000 1.0
C      1  0.4956930000000  0.5473640000000  0.4227450000000 1.0
C      1  0.5043290000000  0.5134720000000  0.3952140000000 1.0
C      1  0.5261500000000  0.4776360000000  0.5494420000000 1.0
C      1  0.5493150000000  0.5739890000000  0.5554030000000 1.0
C      1  0.5105810000000  0.5899970000000  0.5422780000000 1.0
C      1  0.4024360000000  0.5345980000000  0.4892060000000 1.0
C      1  0.4483180000000  0.5492370000000  0.4797320000000 1.0
C      1  0.4634420000000  0.4521210000000  0.4013870000000 1.0
C      1  0.4671620000000  0.4370690000000  0.4276880000000 1.0
C      1  0.5177250000000  0.5656890000000  0.4152740000000 1.0
C      1  0.5546050000000  0.5030280000000  0.5795400000000 1.0
C      1  0.4484010000000  0.4254290000000  0.4784790000000 1.0
C      1  0.4703660000000  0.5607580000000  0.4313570000000 1.0
C      1  0.4732940000000  0.5340820000000  0.4730300000000 1.0
C      1  0.4846690000000  0.4391310000000  0.5761340000000 1.0
C      1  0.5904920000000  0.5496030000000  0.4839750000000 1.0
C      1  0.4960430000000  0.4494110000000  0.4666660000000 1.0
C      1  0.4476510000000  0.5545420000000  0.5503460000000 1.0
C      1  0.5826240000000  0.4465120000000  0.5550680000000 1.0
C      1  0.5307760000000  0.4371420000000  0.4118820000000 1.0
C      1  0.4723880000000  0.3850020000000  0.4644840000000 1.0
C      1  0.4899120000000  0.5038400000000  0.5185320000000 1.0
C      1  0.5543930000000  0.5136440000000  0.4337010000000 1.0
C      1  0.4837850000000  0.5522960000000  0.5190600000000 1.0
C      1  0.5526130000000  0.5851190000000  0.4754790000000 1.0
C      1  0.4880320000000  0.3908270000000  0.5461720000000 1.0
C      1  0.4956820000000  0.5584200000000  0.5726040000000 1.0
C      1  0.3931330000000  0.5150240000000  0.5546620000000 1.0
C      1  0.4937580000000  0.5431050000000  0.4926320000000 1.0
C      1  0.6098220000000  0.5081610000000  0.4617100000000 1.0
C      1  0.5622140000000  0.4796750000000  0.5969980000000 1.0
C      1  0.4728350000000  0.5258690000000  0.5277820000000 1.0
C      1  0.5999230000000  0.5148740000000  0.5204250000000 1.0
C      1  0.4256870000000  0.5855890000000  0.5136440000000 1.0
C      1  0.5054730000000  0.6027660000000  0.4828660000000 1.0
C      1  0.4407250000000  0.4736420000000  0.5023490000000 1.0
C      1  0.5271850000000  0.4820900000000  0.4544850000000 1.0
C      1  0.4160550000000  0.4249420000000  0.5204940000000 1.0
C      1  0.3928060000000  0.4662520000000  0.5413810000000 1.0
C      1  0.5884470000000  0.4499220000000  0.5265430000000 1.0
C      1  0.4442400000000  0.5209720000000  0.4142810000000 1.0
C      1  0.5383550000000  0.4397800000000  0.4761240000000 1.0
C      1  0.5359730000000  0.5433620000000  0.5936120000000 1.0
C      1  0.5790570000000  0.5780710000000  0.4863950000000 1.0
C      1  0.5512480000000  0.5840890000000  0.5255110000000 1.0
C      1  0.4465940000000  0.5909300000000  0.4644670000000 1.0
C      1  0.4163300000000  0.4976850000000  0.5667190000000 1.0
C      1  0.5534700000000  0.4843870000000  0.5360400000000 1.0
C      1  0.5307820000000  0.4030210000000  0.5293400000000 1.0
C      1  0.4648210000000  0.5763500000000  0.4958250000000 1.0
C      1  0.4259210000000  0.5579400000000  0.5275610000000 1.0
C      1  0.4264980000000  0.4505920000000  0.4494010000000 1.0
C      1  0.5372340000000  0.4759370000000  0.6105840000000 1.0
C      1  0.5361990000000  0.5616560000000  0.5095680000000 1.0
C      1  0.4718000000000  0.5803370000000  0.4524310000000 1.0
C      1  0.4264620000000  0.5880280000000  0.4849230000000 1.0
C      1  0.4082060000000  0.5316370000000  0.4591240000000 1.0
C      1  0.5494920000000  0.5790150000000  0.4468190000000 1.0
C      1  0.5225680000000  0.5037650000000  0.4343130000000 1.0
C      1  0.4490750000000  0.4665340000000  0.4601010000000 1.0
C      1  0.5993220000000  0.4855820000000  0.4765060000000 1.0
C      1  0.4710080000000  0.5147510000000  0.5752980000000 1.0
C      1  0.5612300000000  0.5567480000000  0.4303790000000 1.0
C      1  0.4976390000000  0.4230350000000  0.4846360000000 1.0
C      1  0.5893460000000  0.4922940000000  0.5035530000000 1.0
C      1  0.4608310000000  0.4511480000000  0.4940500000000 1.0
C      1  0.5548420000000  0.4468280000000  0.4224450000000 1.0
C      1  0.4344680000000  0.5036690000000  0.5426810000000 1.0
C      1  0.5661790000000  0.5054140000000  0.5511410000000 1.0
C      1  0.5537750000000  0.5320080000000  0.5428230000000 1.0
C      1  0.5890970000000  0.5288810000000  0.4609290000000 1.0
C      1  0.5009890000000  0.5864500000000  0.4586710000000 1.0
C      1  0.5707450000000  0.4721170000000  0.5156470000000 1.0
C      1  0.4644200000000  0.4596110000000  0.5684990000000 1.0
C      1  0.4299030000000  0.5511310000000  0.4541810000000 1.0
C      1  0.5952690000000  0.5120160000000  0.5500600000000 1.0
C      1  0.4869050000000  0.4895960000000  0.4390450000000 1.0
C      1  0.5226600000000  0.5850350000000  0.4370300000000 1.0
C      1  0.5233170000000  0.4514350000000  0.4525000000000 1.0
C      1  0.5469120000000  0.4645910000000  0.4950520000000 1.0
C      1  0.5273370000000  0.5366800000000  0.4660190000000 1.0
C      1  0.4959200000000  0.4838270000000  0.5393580000000 1.0
C      1  0.5243430000000  0.5025920000000  0.5676290000000 1.0
C      1  0.4420790000000  0.4264920000000  0.4434480000000 1.0
C      1  0.5924330000000  0.5639060000000  0.5305400000000 1.0
C      1  0.4850580000000  0.4925740000000  0.4075500000000 1.0
C      1  0.5712350000000  0.4916310000000  0.4202940000000 1.0
C      1  0.5285870000000  0.4502150000000  0.5964440000000 1.0
C      1  0.5341170000000  0.5199500000000  0.3957520000000 1.0
C      1  0.4101790000000  0.4667060000000  0.4945510000000 1.0
C      1  0.5626040000000  0.5290120000000  0.5914770000000 1.0
C      1  0.4360590000000  0.4247070000000  0.5427190000000 1.0
C      1  0.3994020000000  0.4497380000000  0.5174240000000 1.0
C      1  0.4442050000000  0.6031990000000  0.5242160000000 1.0
C      1  0.3958110000000  0.5402220000000  0.5373340000000 1.0
C      1  0.4636070000000  0.4158180000000  0.5313110000000 1.0
END
