TITL C-950525-1983-395 -1.16263202886638e-06 125000 -656.138188250436 0 0 106 (C1) n - 1
REM
REM in /home/bkarasulu/work/CARBON/AIRSS/Generating-Clusters/EDIP-Nigel-Params/with-SteepDescent/Only-C1/SD-CG/HFTN-CG
REM
REM
REM
REM
REM
REM ./C.cell (11c1c37f851c82e70ff6c80c92926a4b)
REM
REM compiler GCC version 9.2.1 20190827 (Red Hat 9.2.1-1)
REM options -cpp -mtune=generic -march=x86-64 -g -O0 -fpre-include=/usr/include/finclude/math-vector-fortran.h
REM seed 1591477929 -428760695 -2063319524 -1747934393 1645900562 -785999740 -542517179 -1523529811 39495078 1257522365 -1769128120 -1086009942 -1471292146 1943654307 1800714142 -654338392 -668087164 1050617793 -246206495 -1950058515 -1563999070 -1763058008 1771059230 774655201 370019962 -1598533343 1709708702 -588485068 1688401679 580829969 -1389830189 -647646954 1760476735
REM
CELL 1.54180   50.00000   50.00000   50.00000   90.00000   90.00000   90.00000
LATT -1
SFAC C  
C      1  0.5758340000000  0.4932040000000  0.4877610000000 1.0
C      1  0.4371440000000  0.4765420000000  0.4351040000000 1.0
C      1  0.5658640000000  0.4830160000000  0.5390880000000 1.0
C      1  0.4777970000000  0.5328050000000  0.4225540000000 1.0
C      1  0.4503760000000  0.4717850000000  0.4854630000000 1.0
C      1  0.5629760000000  0.5658820000000  0.4875390000000 1.0
C      1  0.4785080000000  0.5797570000000  0.5343540000000 1.0
C      1  0.5675460000000  0.5234840000000  0.5693240000000 1.0
C      1  0.5793180000000  0.4988910000000  0.5173970000000 1.0
C      1  0.4461530000000  0.5722840000000  0.4757930000000 1.0
C      1  0.5479910000000  0.5852220000000  0.5352680000000 1.0
C      1  0.4523600000000  0.4928970000000  0.5079470000000 1.0
C      1  0.4603510000000  0.4567620000000  0.4401920000000 1.0
C      1  0.5431690000000  0.4178360000000  0.4589220000000 1.0
C      1  0.5677920000000  0.4700800000000  0.4712040000000 1.0
C      1  0.4231110000000  0.5263190000000  0.5443260000000 1.0
C      1  0.4516810000000  0.4510480000000  0.5406850000000 1.0
C      1  0.5071530000000  0.4664390000000  0.4178590000000 1.0
C      1  0.4083090000000  0.4677050000000  0.5031620000000 1.0
C      1  0.4762180000000  0.4992690000000  0.4555000000000 1.0
C      1  0.4549520000000  0.5452760000000  0.4637930000000 1.0
C      1  0.5760500000000  0.5285250000000  0.5201050000000 1.0
C      1  0.4476570000000  0.5052440000000  0.4422440000000 1.0
C      1  0.5626680000000  0.5216510000000  0.4494650000000 1.0
C      1  0.4947330000000  0.5394060000000  0.5385420000000 1.0
C      1  0.4141150000000  0.4692680000000  0.4496750000000 1.0
C      1  0.4630630000000  0.4961090000000  0.5582010000000 1.0
C      1  0.4197680000000  0.5341600000000  0.4917400000000 1.0
C      1  0.5633870000000  0.5377660000000  0.5441980000000 1.0
C      1  0.4229330000000  0.4906680000000  0.5182520000000 1.0
C      1  0.5446880000000  0.5671780000000  0.4628560000000 1.0
C      1  0.5001430000000  0.5905060000000  0.5496140000000 1.0
C      1  0.5458810000000  0.5324330000000  0.5886310000000 1.0
C      1  0.5037830000000  0.5356770000000  0.5667300000000 1.0
C      1  0.5244700000000  0.4704820000000  0.4794050000000 1.0
C      1  0.4896870000000  0.4447610000000  0.5060690000000 1.0
C      1  0.4716290000000  0.5548870000000  0.4405100000000 1.0
C      1  0.4848330000000  0.5089120000000  0.4820340000000 1.0
C      1  0.5802770000000  0.4395330000000  0.5090670000000 1.0
C      1  0.5334650000000  0.5380850000000  0.4201610000000 1.0
C      1  0.5668730000000  0.4937580000000  0.5669410000000 1.0
C      1  0.5211090000000  0.5967230000000  0.5314240000000 1.0
C      1  0.5249020000000  0.4916610000000  0.5544200000000 1.0
C      1  0.4722310000000  0.4098120000000  0.5136640000000 1.0
C      1  0.4751690000000  0.5821830000000  0.4793550000000 1.0
C      1  0.5597010000000  0.5836510000000  0.5094110000000 1.0
C      1  0.4759540000000  0.4134380000000  0.4544260000000 1.0
C      1  0.5192660000000  0.5517690000000  0.5228320000000 1.0
C      1  0.5118740000000  0.4634680000000  0.5478990000000 1.0
C      1  0.4807340000000  0.4567650000000  0.4194400000000 1.0
C      1  0.4865810000000  0.4632980000000  0.5852800000000 1.0
C      1  0.4313240000000  0.5248300000000  0.4613650000000 1.0
C      1  0.5081730000000  0.4236570000000  0.5201200000000 1.0
C      1  0.4627970000000  0.5591290000000  0.5477600000000 1.0
C      1  0.4861480000000  0.4643400000000  0.5297450000000 1.0
C      1  0.5306860000000  0.5307750000000  0.5011920000000 1.0
C      1  0.5468530000000  0.4847950000000  0.5856150000000 1.0
C      1  0.5304370000000  0.5069300000000  0.5956380000000 1.0
C      1  0.4999070000000  0.4269850000000  0.4626890000000 1.0
C      1  0.5264880000000  0.4566310000000  0.4374880000000 1.0
C      1  0.5701730000000  0.4437540000000  0.4830090000000 1.0
C      1  0.5418930000000  0.4359530000000  0.4820090000000 1.0
C      1  0.4691180000000  0.4250130000000  0.5403540000000 1.0
C      1  0.4952320000000  0.5126460000000  0.5246420000000 1.0
C      1  0.4513480000000  0.5341090000000  0.5384890000000 1.0
C      1  0.4513770000000  0.5370950000000  0.5084920000000 1.0
C      1  0.4428960000000  0.4743000000000  0.5595350000000 1.0
C      1  0.5610850000000  0.5372730000000  0.4960050000000 1.0
C      1  0.5536050000000  0.5481530000000  0.4397860000000 1.0
C      1  0.4587470000000  0.4206740000000  0.4881360000000 1.0
C      1  0.5220610000000  0.4281720000000  0.4437850000000 1.0
C      1  0.5142800000000  0.5851430000000  0.5060860000000 1.0
C      1  0.5509080000000  0.4724540000000  0.4460980000000 1.0
C      1  0.4972950000000  0.4538460000000  0.4769390000000 1.0
C      1  0.4464500000000  0.4455060000000  0.4976460000000 1.0
C      1  0.5284100000000  0.4766730000000  0.5089720000000 1.0
C      1  0.5504420000000  0.4994920000000  0.4361820000000 1.0
C      1  0.4730660000000  0.4698960000000  0.4640950000000 1.0
C      1  0.4327720000000  0.5622310000000  0.4999430000000 1.0
C      1  0.5341800000000  0.5092190000000  0.4148070000000 1.0
C      1  0.5106130000000  0.4932320000000  0.4081430000000 1.0
C      1  0.4936590000000  0.4236980000000  0.5560590000000 1.0
C      1  0.4104380000000  0.5182420000000  0.5165210000000 1.0
C      1  0.4215440000000  0.4755210000000  0.4762840000000 1.0
C      1  0.5357430000000  0.4214420000000  0.5082280000000 1.0
C      1  0.4956020000000  0.5134910000000  0.4359360000000 1.0
C      1  0.4535490000000  0.5193830000000  0.4173030000000 1.0
C      1  0.4932070000000  0.5703630000000  0.4560800000000 1.0
C      1  0.4236610000000  0.4451780000000  0.5153570000000 1.0
C      1  0.5155030000000  0.5070960000000  0.4799280000000 1.0
C      1  0.5173200000000  0.5536710000000  0.4653150000000 1.0
C      1  0.5407460000000  0.5573520000000  0.5448120000000 1.0
C      1  0.5189760000000  0.5250570000000  0.4531580000000 1.0
C      1  0.4731490000000  0.5347500000000  0.4869310000000 1.0
C      1  0.5721200000000  0.5191450000000  0.4761440000000 1.0
C      1  0.5279840000000  0.5514700000000  0.5724050000000 1.0
C      1  0.5566550000000  0.4348630000000  0.5241010000000 1.0
C      1  0.5453290000000  0.4617790000000  0.5303470000000 1.0
C      1  0.4830330000000  0.4909740000000  0.5799410000000 1.0
C      1  0.5041630000000  0.4466110000000  0.5709640000000 1.0
C      1  0.4534060000000  0.4296110000000  0.4508080000000 1.0
C      1  0.5236130000000  0.5029990000000  0.5236500000000 1.0
C      1  0.4870670000000  0.5766810000000  0.5060450000000 1.0
C      1  0.4740140000000  0.4924480000000  0.5293830000000 1.0
C      1  0.4205040000000  0.4896340000000  0.5486050000000 1.0
C      1  0.5080200000000  0.5073580000000  0.5751030000000 1.0
END
