TITL C-950521-2237-421 -9.80491381152592e-08 125000 -579.645667397548 0 0 93 (C1) n - 1
REM
REM in /home/bkarasulu/work/CARBON/AIRSS/Generating-Clusters/EDIP-Nigel-Params/with-SteepDescent/Only-C1/SD-CG/HFTN-CG
REM
REM
REM
REM
REM
REM ./C.cell (11c1c37f851c82e70ff6c80c92926a4b)
REM
REM compiler GCC version 9.2.1 20190827 (Red Hat 9.2.1-1)
REM options -cpp -mtune=generic -march=x86-64 -g -O0 -fpre-include=/usr/include/finclude/math-vector-fortran.h
REM seed -836405937 -1397702722 -1702910757 -1480636046 -309321093 -532720429 441362923 -571101539 -28256855 -1454655848 -1747218656 -833281227 35657262 -365660628 1436086791 -891603925 312287837 -134154085 -1202168649 -2045350189 -1352302007 49965820 926138229 -1226403839 1451493712 18163014 -1305615083 379726083 141967113 -1511863602 593601052 -584774631 -1804258579
REM
CELL 1.54180   50.00000   50.00000   50.00000   90.00000   90.00000   90.00000
LATT -1
SFAC C  
C      1  0.5369050000000  0.4898580000000  0.5739370000000 1.0
C      1  0.4393130000000  0.4856940000000  0.5082870000000 1.0
C      1  0.4517830000000  0.4452070000000  0.5246160000000 1.0
C      1  0.4373890000000  0.4692200000000  0.5335980000000 1.0
C      1  0.5688260000000  0.4765530000000  0.4528790000000 1.0
C      1  0.5224240000000  0.4638780000000  0.4925380000000 1.0
C      1  0.5273180000000  0.5281570000000  0.5510490000000 1.0
C      1  0.5312110000000  0.4436260000000  0.5558390000000 1.0
C      1  0.5514060000000  0.5144440000000  0.5638290000000 1.0
C      1  0.5300220000000  0.4352940000000  0.4874790000000 1.0
C      1  0.5533690000000  0.5674660000000  0.5085920000000 1.0
C      1  0.5763240000000  0.4532220000000  0.4932180000000 1.0
C      1  0.4305430000000  0.4395410000000  0.4530080000000 1.0
C      1  0.5366140000000  0.4730420000000  0.5478070000000 1.0
C      1  0.5429650000000  0.4347310000000  0.4595700000000 1.0
C      1  0.5672160000000  0.5444080000000  0.5016650000000 1.0
C      1  0.4784650000000  0.5291240000000  0.5529730000000 1.0
C      1  0.4173610000000  0.5070370000000  0.5059810000000 1.0
C      1  0.5273820000000  0.5583910000000  0.5488390000000 1.0
C      1  0.5035310000000  0.5818730000000  0.5158610000000 1.0
C      1  0.4792850000000  0.4417510000000  0.5341820000000 1.0
C      1  0.5425120000000  0.4902190000000  0.4591060000000 1.0
C      1  0.5069190000000  0.4298260000000  0.4267630000000 1.0
C      1  0.4260880000000  0.4466700000000  0.4797760000000 1.0
C      1  0.5011740000000  0.5220470000000  0.4817580000000 1.0
C      1  0.5481550000000  0.5197290000000  0.4549980000000 1.0
C      1  0.5708970000000  0.5075120000000  0.5426360000000 1.0
C      1  0.4511120000000  0.4445750000000  0.4956030000000 1.0
C      1  0.4463830000000  0.5774220000000  0.4966650000000 1.0
C      1  0.5325280000000  0.5261550000000  0.4138650000000 1.0
C      1  0.5296680000000  0.5710790000000  0.5228070000000 1.0
C      1  0.5633110000000  0.4809490000000  0.5327960000000 1.0
C      1  0.4693940000000  0.5526520000000  0.4523960000000 1.0
C      1  0.4236170000000  0.4764440000000  0.4819360000000 1.0
C      1  0.4957190000000  0.5902890000000  0.4892790000000 1.0
C      1  0.4913440000000  0.5177450000000  0.4340530000000 1.0
C      1  0.4486850000000  0.4487870000000  0.4352350000000 1.0
C      1  0.5465910000000  0.4253970000000  0.5103360000000 1.0
C      1  0.4990710000000  0.5619810000000  0.5581720000000 1.0
C      1  0.5082630000000  0.4418410000000  0.5722370000000 1.0
C      1  0.4162110000000  0.5203660000000  0.5348930000000 1.0
C      1  0.5253560000000  0.4476470000000  0.4380880000000 1.0
C      1  0.5692340000000  0.4491850000000  0.4640730000000 1.0
C      1  0.4783120000000  0.4490730000000  0.4838050000000 1.0
C      1  0.5153640000000  0.5966700000000  0.4704240000000 1.0
C      1  0.4370230000000  0.4889820000000  0.4583750000000 1.0
C      1  0.5277750000000  0.4242960000000  0.5333620000000 1.0
C      1  0.4514810000000  0.5356410000000  0.5654610000000 1.0
C      1  0.5670680000000  0.4805960000000  0.5023440000000 1.0
C      1  0.5139480000000  0.4751670000000  0.4462710000000 1.0
C      1  0.4986530000000  0.4699930000000  0.5067690000000 1.0
C      1  0.4641420000000  0.5261970000000  0.4452400000000 1.0
C      1  0.5744310000000  0.5274390000000  0.5228030000000 1.0
C      1  0.5100930000000  0.4992550000000  0.5848760000000 1.0
C      1  0.4222870000000  0.5488420000000  0.5291850000000 1.0
C      1  0.4823660000000  0.4468060000000  0.5624400000000 1.0
C      1  0.5064990000000  0.4168060000000  0.4928670000000 1.0
C      1  0.5044910000000  0.5254650000000  0.5715810000000 1.0
C      1  0.4855830000000  0.4956810000000  0.4889410000000 1.0
C      1  0.5558630000000  0.5285040000000  0.4294030000000 1.0
C      1  0.4386020000000  0.5600430000000  0.5517470000000 1.0
C      1  0.4645860000000  0.5019690000000  0.5088870000000 1.0
C      1  0.4849350000000  0.5744640000000  0.5366270000000 1.0
C      1  0.5228420000000  0.5851990000000  0.4470540000000 1.0
C      1  0.4454710000000  0.5955960000000  0.5180160000000 1.0
C      1  0.4856160000000  0.4219810000000  0.4734620000000 1.0
C      1  0.4736740000000  0.5025760000000  0.5370440000000 1.0
C      1  0.5594970000000  0.5326960000000  0.4773840000000 1.0
C      1  0.4288500000000  0.5279410000000  0.4864030000000 1.0
C      1  0.4569250000000  0.5813310000000  0.5396000000000 1.0
C      1  0.5252550000000  0.5000620000000  0.4055730000000 1.0
C      1  0.5046040000000  0.4929540000000  0.4233850000000 1.0
C      1  0.4833850000000  0.4730990000000  0.4633240000000 1.0
C      1  0.5737580000000  0.4316490000000  0.5113370000000 1.0
C      1  0.4927130000000  0.4190050000000  0.4467780000000 1.0
C      1  0.5128160000000  0.4834890000000  0.5312310000000 1.0
C      1  0.5094350000000  0.5398850000000  0.4262300000000 1.0
C      1  0.4944390000000  0.5520590000000  0.4691990000000 1.0
C      1  0.4527340000000  0.4870310000000  0.5528510000000 1.0
C      1  0.4340730000000  0.5115260000000  0.5591490000000 1.0
C      1  0.4696600000000  0.5806910000000  0.4786650000000 1.0
C      1  0.4458720000000  0.5149970000000  0.4653650000000 1.0
C      1  0.5154420000000  0.5125300000000  0.5265820000000 1.0
C      1  0.5248500000000  0.5149970000000  0.4984020000000 1.0
C      1  0.4583330000000  0.4733760000000  0.4453380000000 1.0
C      1  0.5392870000000  0.4876850000000  0.4890140000000 1.0
C      1  0.5153840000000  0.5581690000000  0.4487160000000 1.0
C      1  0.5898770000000  0.4913300000000  0.4649300000000 1.0
C      1  0.4878050000000  0.4828990000000  0.5895390000000 1.0
C      1  0.5877900000000  0.4986580000000  0.4915580000000 1.0
C      1  0.4687730000000  0.4702480000000  0.5736000000000 1.0
C      1  0.4359810000000  0.5508960000000  0.5032080000000 1.0
C      1  0.4994720000000  0.4225190000000  0.5224370000000 1.0
END
