TITL C-950521-2237-563 -2.52682947025637e-06 125000 -1215.91285352549 0 0 193 (C1) n - 1
REM
REM in /home/bkarasulu/work/CARBON/AIRSS/Generating-Clusters/EDIP-Nigel-Params/with-SteepDescent/Only-C1/SD-CG/HFTN-CG
REM
REM
REM
REM
REM
REM ./C.cell (11c1c37f851c82e70ff6c80c92926a4b)
REM
REM compiler GCC version 9.2.1 20190827 (Red Hat 9.2.1-1)
REM options -cpp -mtune=generic -march=x86-64 -g -O0 -fpre-include=/usr/include/finclude/math-vector-fortran.h
REM seed -176569308 -1421116707 -332749232 108327857 1651298333 1499730178 1693852058 -1280985665 -1351372747 -1441629861 1583495040 -724262843 -753627091 -1157681253 2016423482 -1130257801 198881857 661738753 1829175508 -1999457117 77852676 398832256 -919283773 -338639003 -2082968734 380748645 163275939 1532043509 -771448910 988696744 1798055306 -2038279355 -678115797
REM
CELL 1.54180   50.00000   50.00000   50.00000   90.00000   90.00000   90.00000
LATT -1
SFAC C  
C      1  0.5673610000000  0.5258940000000  0.4310150000000 1.0
C      1  0.4788470000000  0.5672190000000  0.5733820000000 1.0
C      1  0.5010710000000  0.5876870000000  0.4299690000000 1.0
C      1  0.5456310000000  0.4742050000000  0.5598150000000 1.0
C      1  0.5405890000000  0.5049410000000  0.3979890000000 1.0
C      1  0.4994560000000  0.4950930000000  0.5651530000000 1.0
C      1  0.4395030000000  0.5337550000000  0.5840160000000 1.0
C      1  0.4534070000000  0.4607390000000  0.4597530000000 1.0
C      1  0.5771710000000  0.5732030000000  0.4246630000000 1.0
C      1  0.5260060000000  0.4159250000000  0.4267150000000 1.0
C      1  0.4540960000000  0.4687220000000  0.3878620000000 1.0
C      1  0.3971110000000  0.5144830000000  0.5429050000000 1.0
C      1  0.6170790000000  0.4919660000000  0.4885620000000 1.0
C      1  0.5281490000000  0.5422450000000  0.4820930000000 1.0
C      1  0.4527180000000  0.4953120000000  0.6106560000000 1.0
C      1  0.4709870000000  0.3987040000000  0.5614780000000 1.0
C      1  0.4808610000000  0.4233370000000  0.4471090000000 1.0
C      1  0.4576250000000  0.4661830000000  0.5032710000000 1.0
C      1  0.5349680000000  0.4176300000000  0.4835740000000 1.0
C      1  0.5119920000000  0.3920940000000  0.5461460000000 1.0
C      1  0.4063410000000  0.4883650000000  0.4807890000000 1.0
C      1  0.6079770000000  0.5112230000000  0.4440380000000 1.0
C      1  0.5192700000000  0.6156840000000  0.5145990000000 1.0
C      1  0.4404470000000  0.5522960000000  0.5107730000000 1.0
C      1  0.5496960000000  0.4526820000000  0.4060310000000 1.0
C      1  0.5305120000000  0.4184370000000  0.5116240000000 1.0
C      1  0.4529770000000  0.4110700000000  0.4610500000000 1.0
C      1  0.5419250000000  0.4459760000000  0.5934330000000 1.0
C      1  0.3969450000000  0.5425160000000  0.5537730000000 1.0
C      1  0.3902040000000  0.5317980000000  0.4945290000000 1.0
C      1  0.5065970000000  0.6060290000000  0.5386050000000 1.0
C      1  0.5151370000000  0.5026030000000  0.3829750000000 1.0
C      1  0.4531390000000  0.5926220000000  0.4621140000000 1.0
C      1  0.5208580000000  0.4275300000000  0.5860920000000 1.0
C      1  0.5578320000000  0.4806290000000  0.4032310000000 1.0
C      1  0.4225810000000  0.5495640000000  0.4444320000000 1.0
C      1  0.5990760000000  0.4486000000000  0.5032470000000 1.0
C      1  0.4294320000000  0.4688090000000  0.5716680000000 1.0
C      1  0.5242080000000  0.5683320000000  0.4678280000000 1.0
C      1  0.5074260000000  0.4562600000000  0.5385190000000 1.0
C      1  0.3902680000000  0.4929440000000  0.5636750000000 1.0
C      1  0.4837890000000  0.4371640000000  0.4058710000000 1.0
C      1  0.4593920000000  0.4446680000000  0.5486950000000 1.0
C      1  0.4811640000000  0.5879730000000  0.4524430000000 1.0
C      1  0.5564960000000  0.5493590000000  0.5660370000000 1.0
C      1  0.6071980000000  0.5393260000000  0.4822120000000 1.0
C      1  0.4188520000000  0.5471040000000  0.5706310000000 1.0
C      1  0.5524420000000  0.5106330000000  0.4535790000000 1.0
C      1  0.4603640000000  0.5102170000000  0.5067130000000 1.0
C      1  0.3818330000000  0.5114420000000  0.5158120000000 1.0
C      1  0.4767750000000  0.5577950000000  0.4754840000000 1.0
C      1  0.5274220000000  0.4944290000000  0.6124250000000 1.0
C      1  0.5308120000000  0.5915710000000  0.4866040000000 1.0
C      1  0.5096640000000  0.5664550000000  0.5712880000000 1.0
C      1  0.4883120000000  0.5601450000000  0.5038100000000 1.0
C      1  0.3876390000000  0.4846440000000  0.5030000000000 1.0
C      1  0.5297570000000  0.4102050000000  0.5632240000000 1.0
C      1  0.5691880000000  0.4380510000000  0.4546420000000 1.0
C      1  0.5951940000000  0.4873320000000  0.5331270000000 1.0
C      1  0.3984350000000  0.4322850000000  0.4758720000000 1.0
C      1  0.4554680000000  0.4167600000000  0.5108800000000 1.0
C      1  0.3990610000000  0.4769320000000  0.4548460000000 1.0
C      1  0.5897300000000  0.5084390000000  0.4218220000000 1.0
C      1  0.5223850000000  0.5894110000000  0.5556280000000 1.0
C      1  0.4349700000000  0.5286040000000  0.4640290000000 1.0
C      1  0.5109240000000  0.5186320000000  0.4665370000000 1.0
C      1  0.4567120000000  0.4263390000000  0.4105450000000 1.0
C      1  0.4472260000000  0.5532130000000  0.4805080000000 1.0
C      1  0.4541960000000  0.4505930000000  0.5792630000000 1.0
C      1  0.4019860000000  0.4482690000000  0.4527620000000 1.0
C      1  0.5252060000000  0.4499990000000  0.3914280000000 1.0
C      1  0.6233290000000  0.5190220000000  0.4938850000000 1.0
C      1  0.5796770000000  0.5507320000000  0.4414130000000 1.0
C      1  0.5486090000000  0.4360610000000  0.4316990000000 1.0
C      1  0.5070920000000  0.5523100000000  0.3944830000000 1.0
C      1  0.5312840000000  0.4667090000000  0.4988490000000 1.0
C      1  0.5580710000000  0.5352960000000  0.5212420000000 1.0
C      1  0.5644720000000  0.4425880000000  0.5732060000000 1.0
C      1  0.4676380000000  0.4174790000000  0.5393310000000 1.0
C      1  0.4123320000000  0.4891230000000  0.5867730000000 1.0
C      1  0.4672570000000  0.5745910000000  0.5468000000000 1.0
C      1  0.4148840000000  0.5168260000000  0.4849280000000 1.0
C      1  0.6051710000000  0.5134750000000  0.5450050000000 1.0
C      1  0.5236020000000  0.4694410000000  0.4460820000000 1.0
C      1  0.3968300000000  0.5577500000000  0.5057550000000 1.0
C      1  0.5711110000000  0.4947070000000  0.5036570000000 1.0
C      1  0.5799890000000  0.4822780000000  0.4199840000000 1.0
C      1  0.5579750000000  0.5399910000000  0.4911030000000 1.0
C      1  0.5180420000000  0.4774210000000  0.5533010000000 1.0
C      1  0.4398590000000  0.4860810000000  0.5469730000000 1.0
C      1  0.4188580000000  0.4282390000000  0.5434700000000 1.0
C      1  0.4763570000000  0.4806760000000  0.6130550000000 1.0
C      1  0.6094860000000  0.4738650000000  0.5104820000000 1.0
C      1  0.4379760000000  0.5472620000000  0.4194080000000 1.0
C      1  0.5283320000000  0.5736920000000  0.4371300000000 1.0
C      1  0.5712420000000  0.5146340000000  0.4788120000000 1.0
C      1  0.4322070000000  0.5089710000000  0.5975920000000 1.0
C      1  0.4931320000000  0.4315450000000  0.5956960000000 1.0
C      1  0.4644610000000  0.3966370000000  0.4891470000000 1.0
C      1  0.5269530000000  0.5497150000000  0.4162130000000 1.0
C      1  0.5525380000000  0.4812280000000  0.4465700000000 1.0
C      1  0.4694870000000  0.4936990000000  0.4846620000000 1.0
C      1  0.4878700000000  0.5727050000000  0.4072830000000 1.0
C      1  0.4089520000000  0.4396230000000  0.5015410000000 1.0
C      1  0.4041850000000  0.4926890000000  0.4324350000000 1.0
C      1  0.5109200000000  0.4262360000000  0.4027290000000 1.0
C      1  0.5780800000000  0.4298550000000  0.5047250000000 1.0
C      1  0.4312880000000  0.4977340000000  0.4320800000000 1.0
C      1  0.4687390000000  0.4403130000000  0.4958240000000 1.0
C      1  0.5798920000000  0.5576230000000  0.5523290000000 1.0
C      1  0.4630110000000  0.5622380000000  0.4191100000000 1.0
C      1  0.4430870000000  0.5187120000000  0.4147010000000 1.0
C      1  0.5239190000000  0.4958610000000  0.5140620000000 1.0
C      1  0.4962240000000  0.5252910000000  0.3866920000000 1.0
C      1  0.4885680000000  0.5352800000000  0.4300430000000 1.0
C      1  0.5177920000000  0.5130580000000  0.4350740000000 1.0
C      1  0.6032870000000  0.5116720000000  0.5730350000000 1.0
C      1  0.4921720000000  0.5290710000000  0.6006000000000 1.0
C      1  0.4524880000000  0.6008570000000  0.4902890000000 1.0
C      1  0.5070470000000  0.4845260000000  0.4264530000000 1.0
C      1  0.4842720000000  0.5317240000000  0.4595370000000 1.0
C      1  0.4249460000000  0.5769740000000  0.4601290000000 1.0
C      1  0.5483670000000  0.5307260000000  0.4092970000000 1.0
C      1  0.4775740000000  0.5182550000000  0.5284070000000 1.0
C      1  0.4946720000000  0.3919480000000  0.4938030000000 1.0
C      1  0.5344970000000  0.5527450000000  0.5337630000000 1.0
C      1  0.4250300000000  0.5098830000000  0.5362780000000 1.0
C      1  0.5941010000000  0.5391390000000  0.5338560000000 1.0
C      1  0.4675740000000  0.5430220000000  0.5868400000000 1.0
C      1  0.5090320000000  0.4659350000000  0.4716330000000 1.0
C      1  0.5138510000000  0.5455030000000  0.5087430000000 1.0
C      1  0.5707060000000  0.4182820000000  0.5300410000000 1.0
C      1  0.5235900000000  0.5604030000000  0.5979570000000 1.0
C      1  0.5109850000000  0.5197830000000  0.5762640000000 1.0
C      1  0.3920250000000  0.5608760000000  0.5333630000000 1.0
C      1  0.4504550000000  0.4059840000000  0.4311760000000 1.0
C      1  0.4114610000000  0.5775130000000  0.4890210000000 1.0
C      1  0.5567710000000  0.4205500000000  0.5549370000000 1.0
C      1  0.5487450000000  0.5908820000000  0.5463800000000 1.0
C      1  0.3978760000000  0.4629570000000  0.5199380000000 1.0
C      1  0.6048780000000  0.5397990000000  0.4532900000000 1.0
C      1  0.5073900000000  0.4028330000000  0.5189990000000 1.0
C      1  0.5356610000000  0.4677280000000  0.6099430000000 1.0
C      1  0.4767290000000  0.4896800000000  0.4301130000000 1.0
C      1  0.5076110000000  0.4751010000000  0.3954380000000 1.0
C      1  0.5559930000000  0.5878670000000  0.4356900000000 1.0
C      1  0.3887450000000  0.4655470000000  0.5494990000000 1.0
C      1  0.5634390000000  0.4222640000000  0.4792150000000 1.0
C      1  0.4756570000000  0.4121080000000  0.5854710000000 1.0
C      1  0.5053130000000  0.4055760000000  0.4462660000000 1.0
C      1  0.5152680000000  0.3990530000000  0.4728480000000 1.0
C      1  0.4785940000000  0.5995590000000  0.5336130000000 1.0
C      1  0.5011640000000  0.6151760000000  0.4929800000000 1.0
C      1  0.5842600000000  0.4914160000000  0.5770850000000 1.0
C      1  0.4980740000000  0.5008580000000  0.6161310000000 1.0
C      1  0.4724950000000  0.5144290000000  0.4135880000000 1.0
C      1  0.4427950000000  0.4537930000000  0.4097470000000 1.0
C      1  0.6026430000000  0.5635180000000  0.4980530000000 1.0
C      1  0.5707490000000  0.5785300000000  0.5342510000000 1.0
C      1  0.5006160000000  0.4938550000000  0.4825600000000 1.0
C      1  0.5990640000000  0.4910070000000  0.4653390000000 1.0
C      1  0.5472610000000  0.5429430000000  0.5927150000000 1.0
C      1  0.4620630000000  0.5109380000000  0.4602870000000 1.0
C      1  0.4775480000000  0.6030030000000  0.5041930000000 1.0
C      1  0.5306830000000  0.4470460000000  0.5215820000000 1.0
C      1  0.4898630000000  0.3785090000000  0.5576160000000 1.0
C      1  0.5380080000000  0.5134130000000  0.5903250000000 1.0
C      1  0.4312490000000  0.5893700000000  0.5054390000000 1.0
C      1  0.4363120000000  0.4634370000000  0.5261910000000 1.0
C      1  0.4357360000000  0.4371800000000  0.4666400000000 1.0
C      1  0.5613710000000  0.4686490000000  0.4942970000000 1.0
C      1  0.5059440000000  0.5492010000000  0.6164830000000 1.0
C      1  0.4252360000000  0.4212760000000  0.5167940000000 1.0
C      1  0.5891190000000  0.4687240000000  0.5578390000000 1.0
C      1  0.5142790000000  0.5418810000000  0.5552730000000 1.0
C      1  0.4500820000000  0.4736530000000  0.4330580000000 1.0
C      1  0.6150090000000  0.5562870000000  0.5223750000000 1.0
C      1  0.5051770000000  0.5191870000000  0.5181910000000 1.0
C      1  0.4790040000000  0.4658980000000  0.5358190000000 1.0
C      1  0.5605200000000  0.5947190000000  0.4872300000000 1.0
C      1  0.5611240000000  0.4586850000000  0.5336410000000 1.0
C      1  0.4677510000000  0.5526350000000  0.5250470000000 1.0
C      1  0.4336700000000  0.5210400000000  0.5102370000000 1.0
C      1  0.4096360000000  0.4487380000000  0.5607230000000 1.0
C      1  0.4813210000000  0.4611460000000  0.3894770000000 1.0
C      1  0.5510320000000  0.5065850000000  0.5207240000000 1.0
C      1  0.5741860000000  0.5729890000000  0.5039650000000 1.0
C      1  0.4804370000000  0.4474560000000  0.4679250000000 1.0
C      1  0.5651440000000  0.5982880000000  0.4599880000000 1.0
C      1  0.5567290000000  0.4984510000000  0.5717680000000 1.0
C      1  0.5719560000000  0.4668910000000  0.4650220000000 1.0
C      1  0.4743000000000  0.4945960000000  0.5489940000000 1.0
C      1  0.4787390000000  0.4577180000000  0.5940810000000 1.0
END
