TITL C-950534-5965-691 -2.89038390462476e-06 125000 -1150.53287053735 0 0 183 (C1) n - 1
REM
REM in /home/bkarasulu/work/CARBON/AIRSS/Generating-Clusters/EDIP-Nigel-Params/with-SteepDescent/Only-C1/SD-CG/HFTN-CG
REM
REM
REM
REM
REM
REM ./C.cell (11c1c37f851c82e70ff6c80c92926a4b)
REM
REM compiler GCC version 9.2.1 20190827 (Red Hat 9.2.1-1)
REM options -cpp -mtune=generic -march=x86-64 -g -O0 -fpre-include=/usr/include/finclude/math-vector-fortran.h
REM seed -479005819 -950637966 208103143 -1373198879 -1362606924 1437988864 -154930908 -915392783 -97362216 -859105092 -1707518298 -1017377305 -1064154089 1877253876 59481596 -1686273213 373095482 548102426 -715076629 -867648740 -1502711450 -310760021 906292469 -2051085500 709690968 118950171 1496019234 1824574735 -726048726 -1062557919 -853470479 -1541790391 -1583418203
REM
CELL 1.54180   50.00000   50.00000   50.00000   90.00000   90.00000   90.00000
LATT -1
SFAC C  
C      1  0.4060100000000  0.4256140000000  0.4983610000000 1.0
C      1  0.4342910000000  0.4221130000000  0.4437910000000 1.0
C      1  0.5063430000000  0.4834220000000  0.3936700000000 1.0
C      1  0.5081450000000  0.3913400000000  0.4576610000000 1.0
C      1  0.4219940000000  0.5421790000000  0.4389710000000 1.0
C      1  0.4710120000000  0.5693440000000  0.5273070000000 1.0
C      1  0.4358260000000  0.4214080000000  0.4916290000000 1.0
C      1  0.4059940000000  0.5076050000000  0.4837680000000 1.0
C      1  0.4869500000000  0.5049140000000  0.3875600000000 1.0
C      1  0.5554400000000  0.5492610000000  0.5016100000000 1.0
C      1  0.5838170000000  0.4849030000000  0.4361500000000 1.0
C      1  0.5191330000000  0.5627120000000  0.4166670000000 1.0
C      1  0.5280560000000  0.4218210000000  0.4265970000000 1.0
C      1  0.4638950000000  0.4722710000000  0.5810380000000 1.0
C      1  0.5027150000000  0.5257550000000  0.5448670000000 1.0
C      1  0.6043100000000  0.4962890000000  0.5315130000000 1.0
C      1  0.5000810000000  0.3927360000000  0.5143400000000 1.0
C      1  0.5502570000000  0.4619550000000  0.4065480000000 1.0
C      1  0.5535430000000  0.5913330000000  0.5381490000000 1.0
C      1  0.4265100000000  0.5332280000000  0.5893690000000 1.0
C      1  0.5228610000000  0.5326380000000  0.6020110000000 1.0
C      1  0.5001460000000  0.5130360000000  0.6015640000000 1.0
C      1  0.4713890000000  0.5597900000000  0.5870180000000 1.0
C      1  0.4564950000000  0.5224360000000  0.4580810000000 1.0
C      1  0.5395790000000  0.5412720000000  0.5249430000000 1.0
C      1  0.4685350000000  0.5234400000000  0.4275540000000 1.0
C      1  0.4386800000000  0.4714140000000  0.5021570000000 1.0
C      1  0.4053900000000  0.4987060000000  0.4552080000000 1.0
C      1  0.5580920000000  0.5718480000000  0.5591000000000 1.0
C      1  0.4305350000000  0.4430440000000  0.4248390000000 1.0
C      1  0.5494680000000  0.4049810000000  0.5380550000000 1.0
C      1  0.4427850000000  0.4022260000000  0.5380670000000 1.0
C      1  0.5051590000000  0.5886680000000  0.5538540000000 1.0
C      1  0.4881480000000  0.5306530000000  0.4974280000000 1.0
C      1  0.4530130000000  0.5417510000000  0.6027110000000 1.0
C      1  0.4715280000000  0.4294530000000  0.5710920000000 1.0
C      1  0.5373400000000  0.5525150000000  0.5526670000000 1.0
C      1  0.5231710000000  0.5920750000000  0.5288860000000 1.0
C      1  0.4554780000000  0.4138010000000  0.5146610000000 1.0
C      1  0.5073180000000  0.4719150000000  0.4535830000000 1.0
C      1  0.5294360000000  0.5310780000000  0.4663840000000 1.0
C      1  0.4528170000000  0.4558390000000  0.4125380000000 1.0
C      1  0.5234160000000  0.5239370000000  0.4369560000000 1.0
C      1  0.4421800000000  0.5508310000000  0.4194460000000 1.0
C      1  0.5666050000000  0.4520710000000  0.4824780000000 1.0
C      1  0.5874050000000  0.5308020000000  0.5596590000000 1.0
C      1  0.4902260000000  0.4465790000000  0.4987030000000 1.0
C      1  0.5759270000000  0.5881460000000  0.5186200000000 1.0
C      1  0.4739840000000  0.3946330000000  0.5015370000000 1.0
C      1  0.4504350000000  0.4608170000000  0.5285280000000 1.0
C      1  0.5279100000000  0.4432140000000  0.4070210000000 1.0
C      1  0.5327180000000  0.4374810000000  0.5251130000000 1.0
C      1  0.6099310000000  0.5224650000000  0.5194340000000 1.0
C      1  0.4508420000000  0.5920550000000  0.4597940000000 1.0
C      1  0.5212090000000  0.5874670000000  0.4325950000000 1.0
C      1  0.4179340000000  0.4718290000000  0.5798650000000 1.0
C      1  0.5999530000000  0.4431680000000  0.5288260000000 1.0
C      1  0.4591010000000  0.5290270000000  0.5512810000000 1.0
C      1  0.4294370000000  0.5024780000000  0.5829050000000 1.0
C      1  0.4619010000000  0.5055910000000  0.4028080000000 1.0
C      1  0.5709390000000  0.4586140000000  0.4278400000000 1.0
C      1  0.3936430000000  0.4527580000000  0.4936120000000 1.0
C      1  0.4414990000000  0.4513390000000  0.5825770000000 1.0
C      1  0.4782910000000  0.4432600000000  0.4119740000000 1.0
C      1  0.5957710000000  0.5708890000000  0.5294040000000 1.0
C      1  0.5339770000000  0.4775950000000  0.5928060000000 1.0
C      1  0.5018940000000  0.5304460000000  0.3893350000000 1.0
C      1  0.4955870000000  0.5140210000000  0.4386910000000 1.0
C      1  0.5511010000000  0.3914740000000  0.4894620000000 1.0
C      1  0.5095370000000  0.5127100000000  0.4851480000000 1.0
C      1  0.4134620000000  0.5557630000000  0.4638180000000 1.0
C      1  0.4348070000000  0.5421020000000  0.5093420000000 1.0
C      1  0.5646110000000  0.5768180000000  0.4932050000000 1.0
C      1  0.4952500000000  0.5484470000000  0.5203260000000 1.0
C      1  0.4491190000000  0.4810040000000  0.4023220000000 1.0
C      1  0.5158650000000  0.4060890000000  0.4925760000000 1.0
C      1  0.4050910000000  0.4706890000000  0.4484790000000 1.0
C      1  0.6067270000000  0.4893750000000  0.4539480000000 1.0
C      1  0.4555080000000  0.5851290000000  0.5036760000000 1.0
C      1  0.5688240000000  0.4683150000000  0.5066850000000 1.0
C      1  0.5246540000000  0.4928610000000  0.5047770000000 1.0
C      1  0.4439500000000  0.4065070000000  0.4658020000000 1.0
C      1  0.4952880000000  0.4349790000000  0.5893500000000 1.0
C      1  0.5391660000000  0.4532510000000  0.5760230000000 1.0
C      1  0.5178740000000  0.6167600000000  0.5151430000000 1.0
C      1  0.4578390000000  0.5813500000000  0.5705850000000 1.0
C      1  0.6154350000000  0.5241840000000  0.4918340000000 1.0
C      1  0.5012590000000  0.5690660000000  0.4807500000000 1.0
C      1  0.4109310000000  0.4492970000000  0.4678860000000 1.0
C      1  0.5722080000000  0.4329150000000  0.4437760000000 1.0
C      1  0.4214170000000  0.5847680000000  0.4666940000000 1.0
C      1  0.4671920000000  0.6033930000000  0.4826000000000 1.0
C      1  0.4885970000000  0.4328450000000  0.5453370000000 1.0
C      1  0.5139590000000  0.4843150000000  0.5332500000000 1.0
C      1  0.4896160000000  0.4637500000000  0.5920510000000 1.0
C      1  0.4308180000000  0.5751830000000  0.5605500000000 1.0
C      1  0.4038970000000  0.5360100000000  0.5402130000000 1.0
C      1  0.4362120000000  0.4226580000000  0.5566200000000 1.0
C      1  0.5994280000000  0.5017960000000  0.4817890000000 1.0
C      1  0.4484960000000  0.5513880000000  0.5362890000000 1.0
C      1  0.4753090000000  0.4051950000000  0.4730890000000 1.0
C      1  0.5399340000000  0.4995070000000  0.4283410000000 1.0
C      1  0.5701210000000  0.4551040000000  0.5704150000000 1.0
C      1  0.4999380000000  0.4052120000000  0.5416370000000 1.0
C      1  0.4304900000000  0.5970420000000  0.5132180000000 1.0
C      1  0.5678990000000  0.5084990000000  0.4290100000000 1.0
C      1  0.4704640000000  0.5169330000000  0.6061180000000 1.0
C      1  0.4959530000000  0.5983380000000  0.4444490000000 1.0
C      1  0.4815640000000  0.4223690000000  0.4307970000000 1.0
C      1  0.4714890000000  0.4391960000000  0.5214910000000 1.0
C      1  0.4715700000000  0.5449820000000  0.4768160000000 1.0
C      1  0.3989250000000  0.5508260000000  0.5139170000000 1.0
C      1  0.4809960000000  0.4354080000000  0.4737560000000 1.0
C      1  0.5022530000000  0.4555440000000  0.4008000000000 1.0
C      1  0.4074850000000  0.4593070000000  0.4232670000000 1.0
C      1  0.5756920000000  0.5471720000000  0.4592640000000 1.0
C      1  0.5750020000000  0.4401420000000  0.5450780000000 1.0
C      1  0.5256640000000  0.4071400000000  0.5557580000000 1.0
C      1  0.4653180000000  0.4945510000000  0.4675270000000 1.0
C      1  0.5186610000000  0.5606850000000  0.6052390000000 1.0
C      1  0.4349830000000  0.5172320000000  0.4899400000000 1.0
C      1  0.5707890000000  0.4851910000000  0.5673750000000 1.0
C      1  0.4098340000000  0.5175490000000  0.4355190000000 1.0
C      1  0.4955620000000  0.5981620000000  0.4743940000000 1.0
C      1  0.5496450000000  0.5239890000000  0.5922990000000 1.0
C      1  0.5556880000000  0.4549770000000  0.5286370000000 1.0
C      1  0.5286600000000  0.5043220000000  0.5518620000000 1.0
C      1  0.6182450000000  0.4710400000000  0.4922600000000 1.0
C      1  0.5165780000000  0.5677210000000  0.5092380000000 1.0
C      1  0.5990150000000  0.4709140000000  0.5149410000000 1.0
C      1  0.5619120000000  0.4075120000000  0.5114340000000 1.0
C      1  0.4935400000000  0.5532590000000  0.4072960000000 1.0
C      1  0.5689950000000  0.5067010000000  0.4834560000000 1.0
C      1  0.5578980000000  0.5327890000000  0.4774560000000 1.0
C      1  0.4081940000000  0.4646180000000  0.5525960000000 1.0
C      1  0.5074790000000  0.4846330000000  0.5995870000000 1.0
C      1  0.4928270000000  0.5702070000000  0.6033860000000 1.0
C      1  0.5541310000000  0.4930230000000  0.5031350000000 1.0
C      1  0.4079100000000  0.4784250000000  0.5038340000000 1.0
C      1  0.4870840000000  0.4971610000000  0.5376450000000 1.0
C      1  0.4277960000000  0.4459750000000  0.5408010000000 1.0
C      1  0.5912400000000  0.5021850000000  0.5566160000000 1.0
C      1  0.6002860000000  0.5440620000000  0.5369430000000 1.0
C      1  0.5343000000000  0.4933390000000  0.3976980000000 1.0
C      1  0.4020900000000  0.4864250000000  0.5322710000000 1.0
C      1  0.5194700000000  0.4362490000000  0.4963530000000 1.0
C      1  0.4535960000000  0.4945290000000  0.5982600000000 1.0
C      1  0.4139030000000  0.5960290000000  0.4915660000000 1.0
C      1  0.4677060000000  0.5652530000000  0.4180460000000 1.0
C      1  0.5443360000000  0.5885200000000  0.4509150000000 1.0
C      1  0.5507810000000  0.4133280000000  0.4415000000000 1.0
C      1  0.4488430000000  0.5594200000000  0.4898740000000 1.0
C      1  0.5115020000000  0.5626410000000  0.5673770000000 1.0
C      1  0.4401340000000  0.4502990000000  0.4810860000000 1.0
C      1  0.4412190000000  0.5057040000000  0.5545500000000 1.0
C      1  0.5234010000000  0.4272390000000  0.5798570000000 1.0
C      1  0.5312500000000  0.5242420000000  0.3904600000000 1.0
C      1  0.4538520000000  0.4948120000000  0.4939410000000 1.0
C      1  0.4697480000000  0.5872730000000  0.4370710000000 1.0
C      1  0.4941640000000  0.4968880000000  0.4625670000000 1.0
C      1  0.4832400000000  0.5357380000000  0.5686350000000 1.0
C      1  0.5419120000000  0.5449020000000  0.4097040000000 1.0
C      1  0.5197310000000  0.6099780000000  0.4881380000000 1.0
C      1  0.5206640000000  0.5599020000000  0.4604680000000 1.0
C      1  0.3976370000000  0.5398050000000  0.4856400000000 1.0
C      1  0.5046780000000  0.4061650000000  0.4321580000000 1.0
C      1  0.5886020000000  0.4217520000000  0.5066560000000 1.0
C      1  0.5426320000000  0.5932620000000  0.4792870000000 1.0
C      1  0.5401500000000  0.4465820000000  0.4677080000000 1.0
C      1  0.5029550000000  0.4426830000000  0.4560490000000 1.0
C      1  0.5876830000000  0.4324410000000  0.4789800000000 1.0
C      1  0.4621290000000  0.4830050000000  0.5489940000000 1.0
C      1  0.4182280000000  0.5103740000000  0.5360910000000 1.0
C      1  0.5349600000000  0.4756400000000  0.4476480000000 1.0
C      1  0.4763730000000  0.5894000000000  0.5485950000000 1.0
C      1  0.4160240000000  0.5503490000000  0.5657750000000 1.0
C      1  0.5724330000000  0.5374460000000  0.4322610000000 1.0
C      1  0.5460930000000  0.4988240000000  0.5767010000000 1.0
C      1  0.5149830000000  0.4529620000000  0.5453190000000 1.0
C      1  0.6187480000000  0.4660090000000  0.4643240000000 1.0
C      1  0.5698340000000  0.5417430000000  0.5803400000000 1.0
C      1  0.5404540000000  0.3927920000000  0.4611810000000 1.0
C      1  0.5840110000000  0.5717710000000  0.4712400000000 1.0
END
