TITL C-950534-5965-663 8.97957597821934e-07 125000 -191.097815861789 0 0 33 (C1) n - 1
REM
REM in /home/bkarasulu/work/CARBON/AIRSS/Generating-Clusters/EDIP-Nigel-Params/with-SteepDescent/Only-C1/SD-CG/HFTN-CG
REM
REM
REM
REM
REM
REM ./C.cell (11c1c37f851c82e70ff6c80c92926a4b)
REM
REM compiler GCC version 9.2.1 20190827 (Red Hat 9.2.1-1)
REM options -cpp -mtune=generic -march=x86-64 -g -O0 -fpre-include=/usr/include/finclude/math-vector-fortran.h
REM seed 1608583912 868893851 -1489296912 -1750800810 -1454692501 -1217633731 -2076313908 1142837227 1809132541 -583046051 1532704592 1340300341 -1392128019 2077168576 -1435769385 -1062255578 2034768199 1869548960 -940958078 -438474550 -1528394555 -709566584 805669454 -1388854058 -592227637 483249997 -1621209121 1709400864 -1154621445 -575228668 673034389 88973888 -724087917
REM
CELL 1.54180   50.00000   50.00000   50.00000   90.00000   90.00000   90.00000
LATT -1
SFAC C  
C      1  0.4922340000000  0.4461860000000  0.4893430000000 1.0
C      1  0.4512860000000  0.4939610000000  0.4976510000000 1.0
C      1  0.4725870000000  0.4947780000000  0.4532710000000 1.0
C      1  0.4833940000000  0.5721930000000  0.5162890000000 1.0
C      1  0.5261790000000  0.5264200000000  0.5481970000000 1.0
C      1  0.4985280000000  0.5072710000000  0.4624530000000 1.0
C      1  0.5535710000000  0.4871160000000  0.4414690000000 1.0
C      1  0.4839010000000  0.5087480000000  0.5292190000000 1.0
C      1  0.4454920000000  0.5372500000000  0.5150490000000 1.0
C      1  0.4584140000000  0.4796140000000  0.4748400000000 1.0
C      1  0.4583760000000  0.5127660000000  0.5164580000000 1.0
C      1  0.5149160000000  0.4375870000000  0.5267610000000 1.0
C      1  0.4908050000000  0.5563250000000  0.5366650000000 1.0
C      1  0.4424320000000  0.5594370000000  0.4997850000000 1.0
C      1  0.5237910000000  0.5380850000000  0.4884730000000 1.0
C      1  0.4681020000000  0.5685820000000  0.4932850000000 1.0
C      1  0.5379720000000  0.4779820000000  0.5442280000000 1.0
C      1  0.5367400000000  0.4547960000000  0.5007680000000 1.0
C      1  0.5200520000000  0.4911950000000  0.4773900000000 1.0
C      1  0.5105130000000  0.4687380000000  0.4961970000000 1.0
C      1  0.5448090000000  0.5072070000000  0.5213220000000 1.0
C      1  0.4984780000000  0.5302570000000  0.5420310000000 1.0
C      1  0.4749390000000  0.4799530000000  0.4310100000000 1.0
C      1  0.5329930000000  0.5123400000000  0.4944950000000 1.0
C      1  0.4932640000000  0.4283610000000  0.5111240000000 1.0
C      1  0.5409890000000  0.4764550000000  0.4621580000000 1.0
C      1  0.5002600000000  0.5342170000000  0.4738720000000 1.0
C      1  0.5132280000000  0.4640700000000  0.5398570000000 1.0
C      1  0.4808780000000  0.5541000000000  0.4731350000000 1.0
C      1  0.4933930000000  0.4816820000000  0.5281690000000 1.0
C      1  0.4680110000000  0.4536230000000  0.4783320000000 1.0
C      1  0.5368730000000  0.5023640000000  0.5589520000000 1.0
C      1  0.5525990000000  0.4563410000000  0.4777530000000 1.0
END
