TITL C-951334-9093-412 -2.12460938994637e-06 125000 -960.441663507289 0 0 153 (C1) n - 1
REM
REM in /home/bkarasulu/work/CARBON/AIRSS/Generating-Clusters/EDIP-Nigel-Params/with-SteepDescent/Only-C1/SD-CG/HFTN-CG
REM
REM
REM
REM
REM
REM ./C.cell (11c1c37f851c82e70ff6c80c92926a4b)
REM
REM compiler GCC version 9.2.1 20190827 (Red Hat 9.2.1-1)
REM options -cpp -mtune=generic -march=x86-64 -g -O0 -fpre-include=/usr/include/finclude/math-vector-fortran.h
REM seed 1594841466 -1872016836 864021318 -1666692404 1239164855 1607951259 1338664877 557041815 -249676791 -1679983470 1677573111 -1038717573 -14443713 -1243620410 189800627 -967977141 1381708173 1026692746 392094201 -1835712979 -879023558 -1439944133 -808435010 627292433 -1164749424 -62143969 -243856529 -771870297 -1662516841 603988713 1285611213 1098859655 -1719717203
REM
CELL 1.54180   50.00000   50.00000   50.00000   90.00000   90.00000   90.00000
LATT -1
SFAC C  
C      1  0.4040610000000  0.5323990000000  0.4991390000000 1.0
C      1  0.4901590000000  0.4701270000000  0.5894110000000 1.0
C      1  0.6049080000000  0.4916620000000  0.4888930000000 1.0
C      1  0.5012320000000  0.4485190000000  0.4288200000000 1.0
C      1  0.4245860000000  0.4809550000000  0.5669710000000 1.0
C      1  0.4593900000000  0.6007840000000  0.5333060000000 1.0
C      1  0.5295180000000  0.5349990000000  0.5347330000000 1.0
C      1  0.4531180000000  0.4369700000000  0.5086750000000 1.0
C      1  0.5952360000000  0.5443730000000  0.5391130000000 1.0
C      1  0.5092530000000  0.3950570000000  0.4729420000000 1.0
C      1  0.5804340000000  0.4315480000000  0.5222590000000 1.0
C      1  0.5422210000000  0.5819340000000  0.4833470000000 1.0
C      1  0.4700480000000  0.4560220000000  0.3977580000000 1.0
C      1  0.5958880000000  0.4796370000000  0.4628460000000 1.0
C      1  0.5089940000000  0.6030220000000  0.5116010000000 1.0
C      1  0.4924590000000  0.5228200000000  0.4603000000000 1.0
C      1  0.3987900000000  0.5151740000000  0.4547690000000 1.0
C      1  0.5181120000000  0.5884250000000  0.4673020000000 1.0
C      1  0.4887260000000  0.4553390000000  0.4778160000000 1.0
C      1  0.6052200000000  0.5518950000000  0.5112130000000 1.0
C      1  0.5346910000000  0.5472340000000  0.4507500000000 1.0
C      1  0.4710940000000  0.4560140000000  0.5292800000000 1.0
C      1  0.4782160000000  0.5130130000000  0.3899600000000 1.0
C      1  0.4541630000000  0.5086250000000  0.4066650000000 1.0
C      1  0.5217640000000  0.5235360000000  0.4611780000000 1.0
C      1  0.5349160000000  0.4758430000000  0.4666000000000 1.0
C      1  0.4443490000000  0.4715260000000  0.4039710000000 1.0
C      1  0.4514610000000  0.4484580000000  0.4410130000000 1.0
C      1  0.4694930000000  0.4835620000000  0.5167920000000 1.0
C      1  0.5704590000000  0.4878380000000  0.5853240000000 1.0
C      1  0.4873540000000  0.5405910000000  0.3950600000000 1.0
C      1  0.4472900000000  0.4312890000000  0.4632000000000 1.0
C      1  0.5196690000000  0.5798370000000  0.4191280000000 1.0
C      1  0.5314550000000  0.5188340000000  0.4882280000000 1.0
C      1  0.4683990000000  0.5055830000000  0.5632640000000 1.0
C      1  0.5178020000000  0.5069360000000  0.5319860000000 1.0
C      1  0.4778550000000  0.5231290000000  0.5416920000000 1.0
C      1  0.5545800000000  0.4187820000000  0.5150230000000 1.0
C      1  0.4261360000000  0.5758710000000  0.5087470000000 1.0
C      1  0.5353570000000  0.5724130000000  0.5482060000000 1.0
C      1  0.5516930000000  0.4499940000000  0.4718350000000 1.0
C      1  0.4725640000000  0.5131790000000  0.6007870000000 1.0
C      1  0.5348820000000  0.5592750000000  0.4073590000000 1.0
C      1  0.5523990000000  0.4315740000000  0.4482700000000 1.0
C      1  0.4690030000000  0.4768430000000  0.4881060000000 1.0
C      1  0.4427800000000  0.4894460000000  0.4780110000000 1.0
C      1  0.5530360000000  0.5570130000000  0.4722620000000 1.0
C      1  0.5969290000000  0.5389950000000  0.4856570000000 1.0
C      1  0.4881080000000  0.4202200000000  0.5483270000000 1.0
C      1  0.4611010000000  0.5441910000000  0.5282070000000 1.0
C      1  0.4284530000000  0.4563560000000  0.4265440000000 1.0
C      1  0.4362080000000  0.5521490000000  0.5447020000000 1.0
C      1  0.5945260000000  0.4463070000000  0.4996930000000 1.0
C      1  0.4171230000000  0.5708370000000  0.5348910000000 1.0
C      1  0.5180420000000  0.5329930000000  0.5866320000000 1.0
C      1  0.4740250000000  0.5616750000000  0.5833410000000 1.0
C      1  0.5082150000000  0.4194070000000  0.4358460000000 1.0
C      1  0.4195800000000  0.5556010000000  0.4889000000000 1.0
C      1  0.3956760000000  0.5094650000000  0.4834380000000 1.0
C      1  0.4351890000000  0.4391390000000  0.5490990000000 1.0
C      1  0.4421600000000  0.4952640000000  0.5241700000000 1.0
C      1  0.5332440000000  0.4110070000000  0.4475570000000 1.0
C      1  0.5257520000000  0.5113310000000  0.3944460000000 1.0
C      1  0.5506780000000  0.4674150000000  0.5830670000000 1.0
C      1  0.4391120000000  0.5034310000000  0.5537480000000 1.0
C      1  0.4880410000000  0.5922220000000  0.5306370000000 1.0
C      1  0.5814140000000  0.5530790000000  0.4643290000000 1.0
C      1  0.5295020000000  0.4885690000000  0.4937530000000 1.0
C      1  0.4007740000000  0.4809500000000  0.4944580000000 1.0
C      1  0.4667740000000  0.4035720000000  0.5336130000000 1.0
C      1  0.4855320000000  0.5262870000000  0.4931250000000 1.0
C      1  0.4285660000000  0.5373060000000  0.4436430000000 1.0
C      1  0.5155840000000  0.5788660000000  0.5686660000000 1.0
C      1  0.5434220000000  0.4742910000000  0.5172300000000 1.0
C      1  0.4579980000000  0.5381490000000  0.5913260000000 1.0
C      1  0.4739860000000  0.4040420000000  0.5042440000000 1.0
C      1  0.5558820000000  0.5529860000000  0.5572210000000 1.0
C      1  0.4842090000000  0.5535400000000  0.4461730000000 1.0
C      1  0.5005240000000  0.4436790000000  0.5293230000000 1.0
C      1  0.5266420000000  0.4620310000000  0.5402760000000 1.0
C      1  0.4976540000000  0.4668990000000  0.3961480000000 1.0
C      1  0.4460690000000  0.5356960000000  0.4188380000000 1.0
C      1  0.5158630000000  0.4200040000000  0.5827320000000 1.0
C      1  0.5514090000000  0.5402980000000  0.4257160000000 1.0
C      1  0.5097660000000  0.4022380000000  0.5589230000000 1.0
C      1  0.5030400000000  0.4060040000000  0.4989730000000 1.0
C      1  0.4562950000000  0.5332440000000  0.4994780000000 1.0
C      1  0.5896160000000  0.5179420000000  0.5517850000000 1.0
C      1  0.4867720000000  0.4811170000000  0.5616790000000 1.0
C      1  0.4591370000000  0.4470800000000  0.5651020000000 1.0
C      1  0.4036730000000  0.4738380000000  0.5219840000000 1.0
C      1  0.5655550000000  0.4939850000000  0.5328810000000 1.0
C      1  0.4939890000000  0.5963790000000  0.5601370000000 1.0
C      1  0.5671940000000  0.5161280000000  0.5136580000000 1.0
C      1  0.4503980000000  0.5920250000000  0.5067470000000 1.0
C      1  0.4641510000000  0.4814950000000  0.6001780000000 1.0
C      1  0.4206200000000  0.4685700000000  0.4760730000000 1.0
C      1  0.4668640000000  0.5869830000000  0.5692730000000 1.0
C      1  0.5687590000000  0.5128180000000  0.5715310000000 1.0
C      1  0.5689010000000  0.5441830000000  0.5224490000000 1.0
C      1  0.4991670000000  0.5517950000000  0.5012670000000 1.0
C      1  0.4374850000000  0.5542260000000  0.4654600000000 1.0
C      1  0.4101170000000  0.4690520000000  0.4464060000000 1.0
C      1  0.5128990000000  0.5685830000000  0.4449780000000 1.0
C      1  0.5902750000000  0.4764860000000  0.5364150000000 1.0
C      1  0.5156160000000  0.4863260000000  0.5537740000000 1.0
C      1  0.5336550000000  0.5853390000000  0.5121130000000 1.0
C      1  0.4359420000000  0.5113460000000  0.4998120000000 1.0
C      1  0.4714710000000  0.5507830000000  0.4186420000000 1.0
C      1  0.4902070000000  0.5076380000000  0.5197010000000 1.0
C      1  0.5027290000000  0.5572100000000  0.5821210000000 1.0
C      1  0.5608840000000  0.5046370000000  0.4678800000000 1.0
C      1  0.5499740000000  0.4504960000000  0.5586930000000 1.0
C      1  0.5280250000000  0.5472520000000  0.5065300000000 1.0
C      1  0.5174330000000  0.5397160000000  0.3934740000000 1.0
C      1  0.4321990000000  0.4420690000000  0.4853490000000 1.0
C      1  0.5416400000000  0.4072560000000  0.5391890000000 1.0
C      1  0.4723500000000  0.4418520000000  0.4226420000000 1.0
C      1  0.4152360000000  0.4620000000000  0.5456100000000 1.0
C      1  0.4264120000000  0.5302650000000  0.5611340000000 1.0
C      1  0.4410880000000  0.5014090000000  0.4504540000000 1.0
C      1  0.5635130000000  0.4671230000000  0.4144090000000 1.0
C      1  0.5827350000000  0.5126630000000  0.4896180000000 1.0
C      1  0.4132140000000  0.4965010000000  0.4383040000000 1.0
C      1  0.4850140000000  0.5630650000000  0.5241620000000 1.0
C      1  0.6065200000000  0.4708990000000  0.5110780000000 1.0
C      1  0.4743660000000  0.4269410000000  0.4727510000000 1.0
C      1  0.5776740000000  0.4505790000000  0.5449560000000 1.0
C      1  0.5801580000000  0.5364850000000  0.4390380000000 1.0
C      1  0.5008550000000  0.4956240000000  0.3953770000000 1.0
C      1  0.4880880000000  0.4950360000000  0.4464060000000 1.0
C      1  0.5028390000000  0.5144570000000  0.6037500000000 1.0
C      1  0.5316410000000  0.4909770000000  0.5798940000000 1.0
C      1  0.4713200000000  0.5833400000000  0.4870020000000 1.0
C      1  0.4632960000000  0.5679670000000  0.4634820000000 1.0
C      1  0.5804700000000  0.5045540000000  0.4435030000000 1.0
C      1  0.5808730000000  0.4567330000000  0.4755270000000 1.0
C      1  0.5039730000000  0.4689960000000  0.4537970000000 1.0
C      1  0.5435290000000  0.4219440000000  0.5656290000000 1.0
C      1  0.4898640000000  0.4076490000000  0.4553390000000 1.0
C      1  0.5585690000000  0.4428750000000  0.4238200000000 1.0
C      1  0.4445160000000  0.4663300000000  0.5834010000000 1.0
C      1  0.5462570000000  0.5318460000000  0.5756410000000 1.0
C      1  0.5395680000000  0.4400660000000  0.4994170000000 1.0
C      1  0.4916600000000  0.4385460000000  0.5843460000000 1.0
C      1  0.4615350000000  0.4904260000000  0.4324560000000 1.0
C      1  0.4301010000000  0.5365160000000  0.5882480000000 1.0
C      1  0.5659820000000  0.4938450000000  0.4199610000000 1.0
C      1  0.5124700000000  0.4869330000000  0.6018450000000 1.0
C      1  0.4401770000000  0.4180610000000  0.5291330000000 1.0
C      1  0.5088660000000  0.4355510000000  0.5008190000000 1.0
C      1  0.4966300000000  0.5989330000000  0.4849910000000 1.0
C      1  0.5450120000000  0.5126290000000  0.4157710000000 1.0
END
