TITL C-950529-3362-288 -2.4456431433738e-05 125000 -136.321755825884 0 0 24 (C1) n - 1
REM
REM in /home/bkarasulu/work/CARBON/AIRSS/Generating-Clusters/EDIP-Nigel-Params/with-SteepDescent/Only-C1/SD-CG/HFTN-CG
REM
REM
REM
REM
REM
REM ./C.cell (11c1c37f851c82e70ff6c80c92926a4b)
REM
REM compiler GCC version 9.2.1 20190827 (Red Hat 9.2.1-1)
REM options -cpp -mtune=generic -march=x86-64 -g -O0 -fpre-include=/usr/include/finclude/math-vector-fortran.h
REM seed 952515456 -983094030 1374868058 347318661 399464750 -156319815 -1211911323 1545445913 -1765383118 -1179300663 -1167278122 818944274 -502118205 -1372443974 2067262095 1991730282 1483455948 1931254530 -1135209833 394756136 -1916226551 -2126715811 62512841 -1398211065 -1505863110 -470215507 -2031330941 -687080874 -1796717102 1162997271 -1924000225 1398421602 -1957035329
REM
CELL 1.54180   50.00000   50.00000   50.00000   90.00000   90.00000   90.00000
LATT -1
SFAC C  
C      1  0.5421290000000  0.5363460000000  0.4985170000000 1.0
C      1  0.4586260000000  0.4785790000000  0.5809610000000 1.0
C      1  0.5017210000000  0.4915220000000  0.4862080000000 1.0
C      1  0.5118710000000  0.4641720000000  0.4855900000000 1.0
C      1  0.5164740000000  0.5340090000000  0.4534090000000 1.0
C      1  0.4729980000000  0.4925770000000  0.4774880000000 1.0
C      1  0.5200350000000  0.5183760000000  0.5672380000000 1.0
C      1  0.4686170000000  0.4635810000000  0.5598740000000 1.0
C      1  0.4678280000000  0.5148460000000  0.4559590000000 1.0
C      1  0.4936670000000  0.4915980000000  0.5361760000000 1.0
C      1  0.4734330000000  0.4727070000000  0.5340110000000 1.0
C      1  0.4910250000000  0.5284250000000  0.4483660000000 1.0
C      1  0.4986640000000  0.5013620000000  0.5624870000000 1.0
C      1  0.4599530000000  0.4923440000000  0.4354330000000 1.0
C      1  0.5068510000000  0.5031610000000  0.5134000000000 1.0
C      1  0.5326070000000  0.5275660000000  0.5453310000000 1.0
C      1  0.5050350000000  0.4701710000000  0.4382750000000 1.0
C      1  0.4841540000000  0.4889690000000  0.5836090000000 1.0
C      1  0.4833690000000  0.4790860000000  0.4237430000000 1.0
C      1  0.4653610000000  0.4712310000000  0.4572510000000 1.0
C      1  0.5212580000000  0.4700890000000  0.4603650000000 1.0
C      1  0.5613250000000  0.5530760000000  0.5055360000000 1.0
C      1  0.5352670000000  0.5339840000000  0.4720900000000 1.0
C      1  0.5277350000000  0.5222230000000  0.5186810000000 1.0
END
