TITL C-950525-1983-328 -3.23623481476164e-06 125000 -464.364118623496 0 0 76 (C1) n - 1
REM
REM in /home/bkarasulu/work/CARBON/AIRSS/Generating-Clusters/EDIP-Nigel-Params/with-SteepDescent/Only-C1/SD-CG/HFTN-CG
REM
REM
REM
REM
REM
REM ./C.cell (11c1c37f851c82e70ff6c80c92926a4b)
REM
REM compiler GCC version 9.2.1 20190827 (Red Hat 9.2.1-1)
REM options -cpp -mtune=generic -march=x86-64 -g -O0 -fpre-include=/usr/include/finclude/math-vector-fortran.h
REM seed 1187502207 1194373775 585050456 1383150031 -1414525009 396888384 1302474123 2079177237 982140113 1513209376 -1327800392 -478769348 -161184118 1305435125 -2022468097 -1073541377 -1174051160 2056058447 -1756794877 1441597416 329570146 -1661050666 1595771800 68298768 91159680 -1714484613 2080412812 337017930 -1053841472 1331090330 -715054436 1441342465 -2039532690
REM
CELL 1.54180   50.00000   50.00000   50.00000   90.00000   90.00000   90.00000
LATT -1
SFAC C  
C      1  0.4902550000000  0.5415430000000  0.4891800000000 1.0
C      1  0.5554770000000  0.5634300000000  0.4578310000000 1.0
C      1  0.4921790000000  0.4661770000000  0.4370320000000 1.0
C      1  0.4483150000000  0.5587840000000  0.4982490000000 1.0
C      1  0.4882690000000  0.5705580000000  0.4825010000000 1.0
C      1  0.5662570000000  0.5369060000000  0.4580100000000 1.0
C      1  0.5276880000000  0.5604500000000  0.5380630000000 1.0
C      1  0.5494560000000  0.4951350000000  0.5566940000000 1.0
C      1  0.5239540000000  0.4132400000000  0.4582980000000 1.0
C      1  0.4421690000000  0.5139120000000  0.5216930000000 1.0
C      1  0.5200770000000  0.4777590000000  0.4373200000000 1.0
C      1  0.5470550000000  0.5426640000000  0.4930490000000 1.0
C      1  0.5732300000000  0.5096960000000  0.5163100000000 1.0
C      1  0.5533510000000  0.4899160000000  0.5105160000000 1.0
C      1  0.5083670000000  0.4956490000000  0.5288590000000 1.0
C      1  0.5370910000000  0.5371260000000  0.5550540000000 1.0
C      1  0.4774890000000  0.5434080000000  0.5468070000000 1.0
C      1  0.5413450000000  0.4609860000000  0.4482260000000 1.0
C      1  0.5228570000000  0.5238630000000  0.4919960000000 1.0
C      1  0.4983300000000  0.4784450000000  0.4827640000000 1.0
C      1  0.5429990000000  0.5652050000000  0.5123340000000 1.0
C      1  0.5044630000000  0.4058790000000  0.4815920000000 1.0
C      1  0.4176200000000  0.5036380000000  0.5157940000000 1.0
C      1  0.4545720000000  0.4376000000000  0.5126700000000 1.0
C      1  0.4953220000000  0.4664340000000  0.5626860000000 1.0
C      1  0.4724140000000  0.4587660000000  0.5261300000000 1.0
C      1  0.4505920000000  0.5546120000000  0.5453560000000 1.0
C      1  0.4971220000000  0.4228000000000  0.5306870000000 1.0
C      1  0.4314690000000  0.4985120000000  0.4627390000000 1.0
C      1  0.4679530000000  0.5245280000000  0.4783730000000 1.0
C      1  0.4623750000000  0.5043240000000  0.5011230000000 1.0
C      1  0.5268530000000  0.5110230000000  0.5684830000000 1.0
C      1  0.4419100000000  0.4520450000000  0.4691290000000 1.0
C      1  0.5737750000000  0.5297250000000  0.4952060000000 1.0
C      1  0.4990490000000  0.5860200000000  0.5389040000000 1.0
C      1  0.5088160000000  0.4455370000000  0.5456440000000 1.0
C      1  0.4388140000000  0.5490230000000  0.4726330000000 1.0
C      1  0.5566270000000  0.4802960000000  0.4624720000000 1.0
C      1  0.5141610000000  0.5225240000000  0.5204960000000 1.0
C      1  0.4758090000000  0.5157270000000  0.5600000000000 1.0
C      1  0.5155620000000  0.4139640000000  0.5090950000000 1.0
C      1  0.4894440000000  0.4363500000000  0.4430690000000 1.0
C      1  0.4785470000000  0.4831030000000  0.4580240000000 1.0
C      1  0.5366390000000  0.4819540000000  0.5325300000000 1.0
C      1  0.4589800000000  0.5853820000000  0.5032450000000 1.0
C      1  0.5061960000000  0.5528410000000  0.4429240000000 1.0
C      1  0.4488100000000  0.4749330000000  0.5505380000000 1.0
C      1  0.4573680000000  0.4342010000000  0.4835880000000 1.0
C      1  0.4406470000000  0.5438930000000  0.5217990000000 1.0
C      1  0.5003390000000  0.4974400000000  0.5579900000000 1.0
C      1  0.5548690000000  0.4723740000000  0.4890440000000 1.0
C      1  0.5514630000000  0.5187110000000  0.4418010000000 1.0
C      1  0.5325970000000  0.4403270000000  0.4691950000000 1.0
C      1  0.4859130000000  0.4312550000000  0.4730460000000 1.0
C      1  0.4793350000000  0.5123980000000  0.4535320000000 1.0
C      1  0.5353450000000  0.5788340000000  0.4706930000000 1.0
C      1  0.4765710000000  0.4059470000000  0.5400020000000 1.0
C      1  0.4264350000000  0.5247250000000  0.4672070000000 1.0
C      1  0.4491870000000  0.4770510000000  0.4606080000000 1.0
C      1  0.5103620000000  0.4192240000000  0.4340590000000 1.0
C      1  0.5062960000000  0.4500610000000  0.4850470000000 1.0
C      1  0.4850360000000  0.5918500000000  0.5142360000000 1.0
C      1  0.5334030000000  0.4527530000000  0.5327490000000 1.0
C      1  0.4510020000000  0.5035140000000  0.5488740000000 1.0
C      1  0.5082090000000  0.5739900000000  0.4610560000000 1.0
C      1  0.5354580000000  0.4368750000000  0.5074950000000 1.0
C      1  0.5256180000000  0.5075210000000  0.4373310000000 1.0
C      1  0.5250810000000  0.4947380000000  0.4779500000000 1.0
C      1  0.5386310000000  0.5882080000000  0.4972500000000 1.0
C      1  0.4540760000000  0.4133350000000  0.5269320000000 1.0
C      1  0.4900260000000  0.5381530000000  0.5195790000000 1.0
C      1  0.4677810000000  0.4596010000000  0.5644970000000 1.0
C      1  0.5031000000000  0.5250320000000  0.4425080000000 1.0
C      1  0.4945740000000  0.5648050000000  0.5575250000000 1.0
C      1  0.4844830000000  0.4843380000000  0.5097380000000 1.0
C      1  0.5666920000000  0.5164550000000  0.5443430000000 1.0
END
