TITL C-951341-1326-571 0.000130671278527931 125000 -447.024693238017 0 0 73 (C1) n - 1
REM
REM in /home/bkarasulu/work/CARBON/AIRSS/Generating-Clusters/EDIP-Nigel-Params/with-SteepDescent/Only-C1/SD-CG/HFTN-CG
REM
REM
REM
REM
REM
REM ./C.cell (11c1c37f851c82e70ff6c80c92926a4b)
REM
REM compiler GCC version 9.2.1 20190827 (Red Hat 9.2.1-1)
REM options -cpp -mtune=generic -march=x86-64 -g -O0 -fpre-include=/usr/include/finclude/math-vector-fortran.h
REM seed -1825901524 341489513 523531975 76532893 1752199761 -35094385 -734864281 -752703392 1197046094 -1881841916 439254755 -1261120932 724122769 -1154865234 1932179639 1211791415 778299776 -749469891 1496035351 1584889550 -452570121 1686984227 1333006239 788297342 1381574590 508915833 -1620983039 -103673445 -702111226 577174444 -1549312332 -1439754200 623000986
REM
CELL 1.54180   50.00000   50.00000   50.00000   90.00000   90.00000   90.00000
LATT -1
SFAC C  
C      1  0.5885760000000  0.5142150000000  0.4740330000000 1.0
C      1  0.4453830000000  0.5001940000000  0.5509240000000 1.0
C      1  0.4992530000000  0.4296420000000  0.4737410000000 1.0
C      1  0.5433540000000  0.5347770000000  0.5094870000000 1.0
C      1  0.5059080000000  0.4954470000000  0.4119350000000 1.0
C      1  0.4394240000000  0.4706660000000  0.5490840000000 1.0
C      1  0.4836990000000  0.4373330000000  0.4507620000000 1.0
C      1  0.5294010000000  0.5106200000000  0.4135800000000 1.0
C      1  0.5226400000000  0.5048720000000  0.5554640000000 1.0
C      1  0.4549940000000  0.5550560000000  0.4863070000000 1.0
C      1  0.5235900000000  0.4384020000000  0.5274170000000 1.0
C      1  0.5113090000000  0.4878370000000  0.4695940000000 1.0
C      1  0.5664230000000  0.4576130000000  0.5157120000000 1.0
C      1  0.4483710000000  0.5031670000000  0.5047660000000 1.0
C      1  0.4880810000000  0.4564390000000  0.5495580000000 1.0
C      1  0.4665660000000  0.4820750000000  0.5163310000000 1.0
C      1  0.4413320000000  0.5001310000000  0.4434560000000 1.0
C      1  0.5653420000000  0.5291440000000  0.4390920000000 1.0
C      1  0.4821480000000  0.5336090000000  0.5667400000000 1.0
C      1  0.5886520000000  0.5296540000000  0.4521920000000 1.0
C      1  0.4275760000000  0.4855880000000  0.4900230000000 1.0
C      1  0.4701000000000  0.5134010000000  0.4854320000000 1.0
C      1  0.5700440000000  0.4991750000000  0.4878260000000 1.0
C      1  0.4388150000000  0.5189880000000  0.5281080000000 1.0
C      1  0.4913090000000  0.5781520000000  0.4950400000000 1.0
C      1  0.5405190000000  0.5172950000000  0.4379260000000 1.0
C      1  0.4591960000000  0.4496810000000  0.5564150000000 1.0
C      1  0.4787250000000  0.5325730000000  0.4352970000000 1.0
C      1  0.4876190000000  0.4427070000000  0.4972290000000 1.0
C      1  0.4491350000000  0.5293880000000  0.4433500000000 1.0
C      1  0.4938100000000  0.4359720000000  0.5257520000000 1.0
C      1  0.4682360000000  0.4852860000000  0.4429000000000 1.0
C      1  0.5342790000000  0.4530710000000  0.5497900000000 1.0
C      1  0.4693090000000  0.4646600000000  0.4917200000000 1.0
C      1  0.5110240000000  0.4953820000000  0.5286200000000 1.0
C      1  0.4559230000000  0.4317940000000  0.5336710000000 1.0
C      1  0.5246600000000  0.4848620000000  0.5024150000000 1.0
C      1  0.5709010000000  0.4885840000000  0.5471970000000 1.0
C      1  0.5160440000000  0.5711800000000  0.4831660000000 1.0
C      1  0.4233380000000  0.4931730000000  0.4635890000000 1.0
C      1  0.4464110000000  0.5529340000000  0.5146340000000 1.0
C      1  0.5324300000000  0.5782570000000  0.5265090000000 1.0
C      1  0.4672380000000  0.5556380000000  0.5587650000000 1.0
C      1  0.4991730000000  0.5384970000000  0.4584810000000 1.0
C      1  0.5624670000000  0.4608850000000  0.5447950000000 1.0
C      1  0.5789290000000  0.4830040000000  0.5097280000000 1.0
C      1  0.5379290000000  0.4538490000000  0.5053330000000 1.0
C      1  0.5227110000000  0.5165150000000  0.4619280000000 1.0
C      1  0.5146710000000  0.5629310000000  0.4560220000000 1.0
C      1  0.5096150000000  0.5301330000000  0.5622460000000 1.0
C      1  0.4852800000000  0.4848900000000  0.5392460000000 1.0
C      1  0.5230530000000  0.4686330000000  0.4482920000000 1.0
C      1  0.4686290000000  0.5079720000000  0.5684540000000 1.0
C      1  0.5523920000000  0.5100770000000  0.5521080000000 1.0
C      1  0.5098690000000  0.5868240000000  0.5390210000000 1.0
C      1  0.4385150000000  0.4576290000000  0.4925270000000 1.0
C      1  0.5182490000000  0.4571760000000  0.5730990000000 1.0
C      1  0.5128200000000  0.4849550000000  0.5773670000000 1.0
C      1  0.4348570000000  0.4465670000000  0.5196890000000 1.0
C      1  0.5426020000000  0.5106870000000  0.4910720000000 1.0
C      1  0.4641580000000  0.5664020000000  0.5335110000000 1.0
C      1  0.4802260000000  0.4879410000000  0.4714030000000 1.0
C      1  0.4881920000000  0.5784570000000  0.5230960000000 1.0
C      1  0.4793590000000  0.4582290000000  0.4323620000000 1.0
C      1  0.5362750000000  0.4355200000000  0.4820830000000 1.0
C      1  0.4828390000000  0.5415240000000  0.4850760000000 1.0
C      1  0.5312230000000  0.4424720000000  0.4556930000000 1.0
C      1  0.4849690000000  0.4881450000000  0.5804230000000 1.0
C      1  0.5067400000000  0.4677530000000  0.4231290000000 1.0
C      1  0.5556580000000  0.5310460000000  0.5341480000000 1.0
C      1  0.4396550000000  0.5451690000000  0.4650150000000 1.0
C      1  0.4820130000000  0.5050190000000  0.4256270000000 1.0
C      1  0.5358440000000  0.5624680000000  0.5034800000000 1.0
END
