TITL C-951340-9809-1 -2.71909917099999e-06 125000 -285.715375982577 0 0 48 (C1) n - 1
REM
REM in /home/bkarasulu/work/CARBON/AIRSS/Generating-Clusters/EDIP-Nigel-Params/with-SteepDescent/Only-C1/SD-CG/HFTN-CG
REM
REM
REM
REM
REM
REM ./C.cell (11c1c37f851c82e70ff6c80c92926a4b)
REM
REM compiler GCC version 9.2.1 20190827 (Red Hat 9.2.1-1)
REM options -cpp -mtune=generic -march=x86-64 -g -O0 -fpre-include=/usr/include/finclude/math-vector-fortran.h
REM seed -120263317 -427587554 -883711315 1544691583 -765203226 -1590622198 1875217607 345291214 1285875955 660590736 125081542 -1257599152 -853532008 1009381079 1673941779 619303302 1181965404 -958036103 2003829775 2016688499 -1818135408 -1240236412 1408984422 -1521443500 -1345830049 -1830098719 -1171624059 -1669840080 -1586744228 450897281 1460781332 1274556615 448214216
REM
CELL 1.54180   50.00000   50.00000   50.00000   90.00000   90.00000   90.00000
LATT -1
SFAC C  
C      1  0.4578220000000  0.4503500000000  0.5146800000000 1.0
C      1  0.5286870000000  0.4581430000000  0.5464530000000 1.0
C      1  0.4779390000000  0.4576450000000  0.5609370000000 1.0
C      1  0.5468250000000  0.5155240000000  0.5471700000000 1.0
C      1  0.5025870000000  0.4618080000000  0.4827100000000 1.0
C      1  0.5462540000000  0.5374380000000  0.4665840000000 1.0
C      1  0.5416190000000  0.4978450000000  0.5073400000000 1.0
C      1  0.5466710000000  0.4914700000000  0.4636800000000 1.0
C      1  0.4935940000000  0.4636730000000  0.5200640000000 1.0
C      1  0.4982730000000  0.4919910000000  0.4818880000000 1.0
C      1  0.4639200000000  0.4962040000000  0.4861170000000 1.0
C      1  0.4959100000000  0.5662910000000  0.4854740000000 1.0
C      1  0.4691260000000  0.4856970000000  0.5586040000000 1.0
C      1  0.4542760000000  0.4740870000000  0.4431530000000 1.0
C      1  0.5118640000000  0.5069100000000  0.5048880000000 1.0
C      1  0.4821370000000  0.5212570000000  0.4269430000000 1.0
C      1  0.5255630000000  0.5426700000000  0.5127450000000 1.0
C      1  0.4943620000000  0.4491070000000  0.4559080000000 1.0
C      1  0.4726360000000  0.5327620000000  0.5726360000000 1.0
C      1  0.4674210000000  0.5418040000000  0.5460050000000 1.0
C      1  0.5165270000000  0.5694300000000  0.5044570000000 1.0
C      1  0.4590810000000  0.5237510000000  0.4967530000000 1.0
C      1  0.5179800000000  0.5298760000000  0.4579910000000 1.0
C      1  0.5199280000000  0.4460210000000  0.5201330000000 1.0
C      1  0.4662030000000  0.4498620000000  0.4486210000000 1.0
C      1  0.4648490000000  0.4425470000000  0.5406510000000 1.0
C      1  0.4984610000000  0.5392080000000  0.4778090000000 1.0
C      1  0.4533560000000  0.4782780000000  0.5093680000000 1.0
C      1  0.4975500000000  0.4654380000000  0.4316690000000 1.0
C      1  0.5060500000000  0.4534890000000  0.5630100000000 1.0
C      1  0.4624160000000  0.5231050000000  0.4484900000000 1.0
C      1  0.5626180000000  0.5147940000000  0.4627430000000 1.0
C      1  0.5069160000000  0.4927740000000  0.4324600000000 1.0
C      1  0.5267210000000  0.5370670000000  0.5430240000000 1.0
C      1  0.5297850000000  0.4883330000000  0.5424180000000 1.0
C      1  0.5022090000000  0.4959800000000  0.5310260000000 1.0
C      1  0.4517130000000  0.4970120000000  0.4586440000000 1.0
C      1  0.4692150000000  0.5405390000000  0.4739050000000 1.0
C      1  0.5501450000000  0.4760160000000  0.4889830000000 1.0
C      1  0.5618330000000  0.5129010000000  0.5231050000000 1.0
C      1  0.5177380000000  0.5000270000000  0.4591900000000 1.0
C      1  0.4629570000000  0.5221410000000  0.5256930000000 1.0
C      1  0.4580090000000  0.4947990000000  0.5331350000000 1.0
C      1  0.5310080000000  0.4531130000000  0.4916010000000 1.0
C      1  0.4738070000000  0.5054570000000  0.5781130000000 1.0
C      1  0.5074040000000  0.5335590000000  0.4307690000000 1.0
C      1  0.5006730000000  0.5224230000000  0.5488020000000 1.0
C      1  0.5473640000000  0.5493870000000  0.4934610000000 1.0
END
