TITL C-950526-5686-611 -1.86808938304776e-06 125000 -471.672730439541 0 0 77 (C1) n - 1
REM
REM in /home/bkarasulu/work/CARBON/AIRSS/Generating-Clusters/EDIP-Nigel-Params/with-SteepDescent/Only-C1/SD-CG/HFTN-CG
REM
REM
REM
REM
REM
REM ./C.cell (11c1c37f851c82e70ff6c80c92926a4b)
REM
REM compiler GCC version 9.2.1 20190827 (Red Hat 9.2.1-1)
REM options -cpp -mtune=generic -march=x86-64 -g -O0 -fpre-include=/usr/include/finclude/math-vector-fortran.h
REM seed 2063738635 -1825559684 716687688 -1577008495 2018875685 -672845136 -864667805 9672889 -1868630361 -677614325 1588944857 -966197956 -897503075 2025543764 1574101786 1473733363 1254925635 1236159471 -1493334726 724411015 1503636999 -193806648 -1841361944 -1729464239 -1889909338 -1461356350 203098055 2050970062 -212716825 -2121044540 -851195526 -1775084664 1186853388
REM
CELL 1.54180   50.00000   50.00000   50.00000   90.00000   90.00000   90.00000
LATT -1
SFAC C  
C      1  0.5100390000000  0.4417450000000  0.4543210000000 1.0
C      1  0.5477350000000  0.5024110000000  0.4692090000000 1.0
C      1  0.5125690000000  0.4277850000000  0.5506740000000 1.0
C      1  0.5118170000000  0.5345730000000  0.4461770000000 1.0
C      1  0.4904490000000  0.4198110000000  0.4942570000000 1.0
C      1  0.5729150000000  0.4374650000000  0.4819720000000 1.0
C      1  0.4501570000000  0.5556630000000  0.4557430000000 1.0
C      1  0.5644520000000  0.4550840000000  0.4617780000000 1.0
C      1  0.5434080000000  0.4552490000000  0.4404250000000 1.0
C      1  0.4266450000000  0.4915370000000  0.5591640000000 1.0
C      1  0.5124720000000  0.4663740000000  0.4719360000000 1.0
C      1  0.4773680000000  0.5105130000000  0.4134700000000 1.0
C      1  0.5213120000000  0.5278860000000  0.5122020000000 1.0
C      1  0.4158200000000  0.5170780000000  0.5482580000000 1.0
C      1  0.5410060000000  0.5669980000000  0.4704510000000 1.0
C      1  0.5654640000000  0.4512580000000  0.5058000000000 1.0
C      1  0.4775280000000  0.4615250000000  0.5543730000000 1.0
C      1  0.4650040000000  0.4756460000000  0.4397310000000 1.0
C      1  0.5238810000000  0.5021370000000  0.5310920000000 1.0
C      1  0.4687200000000  0.4566030000000  0.5072720000000 1.0
C      1  0.5668650000000  0.4807550000000  0.5113610000000 1.0
C      1  0.4493430000000  0.4606530000000  0.4850430000000 1.0
C      1  0.5059050000000  0.5485350000000  0.5265960000000 1.0
C      1  0.4336420000000  0.4862180000000  0.4859790000000 1.0
C      1  0.4492180000000  0.5101180000000  0.4750170000000 1.0
C      1  0.4208750000000  0.4909830000000  0.5126600000000 1.0
C      1  0.5511080000000  0.4864810000000  0.5353890000000 1.0
C      1  0.4775820000000  0.4808110000000  0.4138660000000 1.0
C      1  0.4996880000000  0.4625800000000  0.5003620000000 1.0
C      1  0.4626690000000  0.4750360000000  0.5309030000000 1.0
C      1  0.5450670000000  0.5401150000000  0.5553700000000 1.0
C      1  0.5027650000000  0.4881450000000  0.5158470000000 1.0
C      1  0.5308440000000  0.5216840000000  0.5721040000000 1.0
C      1  0.5014050000000  0.4917290000000  0.4592200000000 1.0
C      1  0.5211340000000  0.5640020000000  0.4495970000000 1.0
C      1  0.5685820000000  0.5296590000000  0.5091120000000 1.0
C      1  0.5238680000000  0.4525020000000  0.5640040000000 1.0
C      1  0.4888440000000  0.5602950000000  0.5036830000000 1.0
C      1  0.5572480000000  0.5017530000000  0.4417110000000 1.0
C      1  0.4560350000000  0.5132580000000  0.5703420000000 1.0
C      1  0.4889640000000  0.5367430000000  0.4839770000000 1.0
C      1  0.4828000000000  0.4329890000000  0.5452050000000 1.0
C      1  0.4708360000000  0.4281270000000  0.5163050000000 1.0
C      1  0.4961220000000  0.5777750000000  0.4599980000000 1.0
C      1  0.4584050000000  0.5607890000000  0.5125560000000 1.0
C      1  0.4793790000000  0.5521690000000  0.4586220000000 1.0
C      1  0.5444500000000  0.5715460000000  0.5172530000000 1.0
C      1  0.4763790000000  0.5030390000000  0.5216060000000 1.0
C      1  0.5491980000000  0.4597220000000  0.5496820000000 1.0
C      1  0.5428830000000  0.4730140000000  0.4754200000000 1.0
C      1  0.5111400000000  0.5036700000000  0.5601580000000 1.0
C      1  0.5031120000000  0.4735490000000  0.5664530000000 1.0
C      1  0.4587630000000  0.5370370000000  0.5313200000000 1.0
C      1  0.5401640000000  0.4826640000000  0.4295490000000 1.0
C      1  0.4844240000000  0.5389790000000  0.5445300000000 1.0
C      1  0.5301220000000  0.4215910000000  0.5268480000000 1.0
C      1  0.4096990000000  0.5158970000000  0.5203210000000 1.0
C      1  0.5555800000000  0.4376530000000  0.5300610000000 1.0
C      1  0.4651290000000  0.4548210000000  0.4613490000000 1.0
C      1  0.5178940000000  0.5155380000000  0.4704500000000 1.0
C      1  0.5445870000000  0.5441160000000  0.5002950000000 1.0
C      1  0.5171010000000  0.4283960000000  0.5020590000000 1.0
C      1  0.4653540000000  0.5032270000000  0.4498610000000 1.0
C      1  0.4844080000000  0.5171430000000  0.5619620000000 1.0
C      1  0.4341370000000  0.5367740000000  0.4713570000000 1.0
C      1  0.5013020000000  0.5841150000000  0.4892590000000 1.0
C      1  0.5647470000000  0.5285360000000  0.5376370000000 1.0
C      1  0.4703880000000  0.5160020000000  0.4942710000000 1.0
C      1  0.4332600000000  0.4769390000000  0.5351950000000 1.0
C      1  0.4400390000000  0.5330620000000  0.5545250000000 1.0
C      1  0.5111410000000  0.4904030000000  0.4305690000000 1.0
C      1  0.5315490000000  0.5849710000000  0.4921180000000 1.0
C      1  0.5052090000000  0.5191900000000  0.4205260000000 1.0
C      1  0.5686350000000  0.5045640000000  0.4931260000000 1.0
C      1  0.4849370000000  0.4319150000000  0.4654810000000 1.0
C      1  0.4375470000000  0.5581080000000  0.4922370000000 1.0
C      1  0.5287660000000  0.5625740000000  0.5413840000000 1.0
END
