TITL C-950529-3362-5 -2.83292037352208e-06 125000 -655.388444025699 0 0 106 (C1) n - 1
REM
REM in /home/bkarasulu/work/CARBON/AIRSS/Generating-Clusters/EDIP-Nigel-Params/with-SteepDescent/Only-C1/SD-CG/HFTN-CG
REM
REM
REM
REM
REM
REM ./C.cell (11c1c37f851c82e70ff6c80c92926a4b)
REM
REM compiler GCC version 9.2.1 20190827 (Red Hat 9.2.1-1)
REM options -cpp -mtune=generic -march=x86-64 -g -O0 -fpre-include=/usr/include/finclude/math-vector-fortran.h
REM seed 535830313 -34642733 -2132157332 -1871989865 79139587 1389231039 1915835618 1827256463 -1799847118 -1152744549 -2103401705 898000760 996740267 386702667 -994791677 -1444012267 -1306447575 794454674 661078923 -1583824419 -1178073929 -1819425212 -1519554127 -1444919751 -1828215600 71783530 1138180836 -913147827 -1683541714 840196948 1517092803 1978886589 -507708807
REM
CELL 1.54180   50.00000   50.00000   50.00000   90.00000   90.00000   90.00000
LATT -1
SFAC C  
C      1  0.4025150000000  0.4888130000000  0.5173400000000 1.0
C      1  0.4671740000000  0.4191880000000  0.4770610000000 1.0
C      1  0.5432870000000  0.5093980000000  0.4375290000000 1.0
C      1  0.4935740000000  0.5619120000000  0.5434650000000 1.0
C      1  0.4952050000000  0.4735300000000  0.5543310000000 1.0
C      1  0.5372910000000  0.5670180000000  0.5687820000000 1.0
C      1  0.4518190000000  0.4703250000000  0.5153690000000 1.0
C      1  0.4525140000000  0.4238270000000  0.5018080000000 1.0
C      1  0.4942620000000  0.4344700000000  0.5559000000000 1.0
C      1  0.4672920000000  0.5644040000000  0.5625610000000 1.0
C      1  0.5236650000000  0.4493340000000  0.5766610000000 1.0
C      1  0.4121750000000  0.5078690000000  0.4985940000000 1.0
C      1  0.5714960000000  0.5371180000000  0.5110300000000 1.0
C      1  0.5283870000000  0.5499940000000  0.4209510000000 1.0
C      1  0.4302910000000  0.5097960000000  0.5325640000000 1.0
C      1  0.5841240000000  0.4820630000000  0.5145170000000 1.0
C      1  0.5157580000000  0.4609800000000  0.5277010000000 1.0
C      1  0.5066940000000  0.5382340000000  0.5910170000000 1.0
C      1  0.4187670000000  0.4964530000000  0.4723550000000 1.0
C      1  0.4748740000000  0.4730510000000  0.4959560000000 1.0
C      1  0.5157980000000  0.4564290000000  0.4778710000000 1.0
C      1  0.4322760000000  0.5586590000000  0.5282880000000 1.0
C      1  0.4480300000000  0.5320280000000  0.4589930000000 1.0
C      1  0.5024130000000  0.5813550000000  0.4781690000000 1.0
C      1  0.5363160000000  0.5735770000000  0.5195500000000 1.0
C      1  0.4142350000000  0.4670520000000  0.4657730000000 1.0
C      1  0.4302160000000  0.4434470000000  0.4774080000000 1.0
C      1  0.4978950000000  0.5208910000000  0.5711120000000 1.0
C      1  0.5257740000000  0.5673520000000  0.4902690000000 1.0
C      1  0.5277250000000  0.5276060000000  0.5278280000000 1.0
C      1  0.4744470000000  0.5825060000000  0.5189500000000 1.0
C      1  0.4732740000000  0.5321110000000  0.4995670000000 1.0
C      1  0.5320210000000  0.4828040000000  0.5174780000000 1.0
C      1  0.5439450000000  0.5528640000000  0.4700380000000 1.0
C      1  0.4992610000000  0.5311350000000  0.5421380000000 1.0
C      1  0.5296980000000  0.5356280000000  0.4463110000000 1.0
C      1  0.4529060000000  0.5776200000000  0.5389160000000 1.0
C      1  0.5487400000000  0.4860770000000  0.4556010000000 1.0
C      1  0.5425310000000  0.4959660000000  0.5647250000000 1.0
C      1  0.4700660000000  0.5122560000000  0.5751680000000 1.0
C      1  0.4303500000000  0.5357020000000  0.5472830000000 1.0
C      1  0.5000100000000  0.5385160000000  0.4850940000000 1.0
C      1  0.5204640000000  0.4966200000000  0.4957960000000 1.0
C      1  0.5461120000000  0.4144060000000  0.4878060000000 1.0
C      1  0.5203130000000  0.5770200000000  0.5457990000000 1.0
C      1  0.5836890000000  0.5239700000000  0.4657550000000 1.0
C      1  0.5377780000000  0.4388290000000  0.5313220000000 1.0
C      1  0.5281640000000  0.4125250000000  0.5373880000000 1.0
C      1  0.4699150000000  0.4893530000000  0.4719810000000 1.0
C      1  0.5199720000000  0.5294450000000  0.4032240000000 1.0
C      1  0.4582960000000  0.5152430000000  0.4805820000000 1.0
C      1  0.5006080000000  0.4153270000000  0.5329380000000 1.0
C      1  0.5843520000000  0.4558240000000  0.5289870000000 1.0
C      1  0.5616180000000  0.5178310000000  0.5735430000000 1.0
C      1  0.4505780000000  0.4725490000000  0.4526170000000 1.0
C      1  0.4744050000000  0.5704460000000  0.4451280000000 1.0
C      1  0.4953810000000  0.4232090000000  0.5030030000000 1.0
C      1  0.4671000000000  0.4863630000000  0.5586050000000 1.0
C      1  0.4193340000000  0.4652850000000  0.5171580000000 1.0
C      1  0.4276220000000  0.5126890000000  0.4486260000000 1.0
C      1  0.4879300000000  0.4825500000000  0.4290050000000 1.0
C      1  0.4929340000000  0.5310280000000  0.3975930000000 1.0
C      1  0.5606520000000  0.4493120000000  0.5476170000000 1.0
C      1  0.4732750000000  0.5401230000000  0.4419950000000 1.0
C      1  0.5845350000000  0.4348610000000  0.5096510000000 1.0
C      1  0.5119790000000  0.4792430000000  0.4114860000000 1.0
C      1  0.5328190000000  0.4635250000000  0.4220850000000 1.0
C      1  0.4370380000000  0.5562930000000  0.4734810000000 1.0
C      1  0.5499010000000  0.5483930000000  0.5288920000000 1.0
C      1  0.4828100000000  0.4348340000000  0.4570400000000 1.0
C      1  0.4529280000000  0.5378510000000  0.5672890000000 1.0
C      1  0.4574050000000  0.4960170000000  0.5322550000000 1.0
C      1  0.4609820000000  0.4423390000000  0.5241590000000 1.0
C      1  0.5693900000000  0.5425730000000  0.4816920000000 1.0
C      1  0.5477720000000  0.4658750000000  0.5703370000000 1.0
C      1  0.4649420000000  0.4411400000000  0.5535100000000 1.0
C      1  0.5185860000000  0.4124690000000  0.4820290000000 1.0
C      1  0.4707760000000  0.5285050000000  0.4140900000000 1.0
C      1  0.5122000000000  0.4337930000000  0.4602980000000 1.0
C      1  0.4654770000000  0.4997120000000  0.4163800000000 1.0
C      1  0.4530140000000  0.4628920000000  0.5677930000000 1.0
C      1  0.4786940000000  0.5168660000000  0.5240230000000 1.0
C      1  0.4386940000000  0.5491330000000  0.5016030000000 1.0
C      1  0.5596010000000  0.5480150000000  0.5584670000000 1.0
C      1  0.5207590000000  0.4838140000000  0.4698370000000 1.0
C      1  0.5232000000000  0.5591780000000  0.5914640000000 1.0
C      1  0.4773770000000  0.5752530000000  0.4911050000000 1.0
C      1  0.5833890000000  0.5175350000000  0.5543150000000 1.0
C      1  0.5046340000000  0.4685770000000  0.5816230000000 1.0
C      1  0.5002720000000  0.5807080000000  0.4500310000000 1.0
C      1  0.5321320000000  0.5020280000000  0.4110030000000 1.0
C      1  0.5667250000000  0.4557420000000  0.4728880000000 1.0
C      1  0.4719540000000  0.4558190000000  0.4389150000000 1.0
C      1  0.4107360000000  0.4458750000000  0.4981450000000 1.0
C      1  0.5272010000000  0.4401650000000  0.4360820000000 1.0
C      1  0.5218560000000  0.5241950000000  0.4990390000000 1.0
C      1  0.5735220000000  0.5090570000000  0.5274950000000 1.0
C      1  0.5811370000000  0.4779250000000  0.4851720000000 1.0
C      1  0.5437190000000  0.5025610000000  0.5351760000000 1.0
C      1  0.4958900000000  0.4962270000000  0.4559610000000 1.0
C      1  0.4990510000000  0.4541740000000  0.5019240000000 1.0
C      1  0.4577230000000  0.5768370000000  0.4693020000000 1.0
C      1  0.4408680000000  0.4923200000000  0.4315950000000 1.0
C      1  0.5689960000000  0.4307820000000  0.4865580000000 1.0
C      1  0.5703120000000  0.4997360000000  0.4713540000000 1.0
C      1  0.4994210000000  0.5278570000000  0.4559610000000 1.0
END
