TITL C-951341-1326-676 3.90013448290639e-07 125000 -1253.05886616475 0 0 199 (C1) n - 1
REM
REM in /home/bkarasulu/work/CARBON/AIRSS/Generating-Clusters/EDIP-Nigel-Params/with-SteepDescent/Only-C1/SD-CG/HFTN-CG
REM
REM
REM
REM
REM
REM ./C.cell (11c1c37f851c82e70ff6c80c92926a4b)
REM
REM compiler GCC version 9.2.1 20190827 (Red Hat 9.2.1-1)
REM options -cpp -mtune=generic -march=x86-64 -g -O0 -fpre-include=/usr/include/finclude/math-vector-fortran.h
REM seed -1237210741 1093484906 1450231077 -1928506083 96135744 860161657 -233677964 777797140 1354779040 42075091 1688710173 -965638986 -1232652601 1030589828 -482351799 -1726094492 377444064 1107167105 24151688 897415958 -457554081 -492416257 -1955176691 -1290688633 -1266920880 1553959431 1072079147 -1519434661 1495004230 -847781480 1842909041 -1418750907 -588681997
REM
CELL 1.54180   50.00000   50.00000   50.00000   90.00000   90.00000   90.00000
LATT -1
SFAC C  
C      1  0.5031630000000  0.4269950000000  0.4300330000000 1.0
C      1  0.4392530000000  0.4798480000000  0.3977950000000 1.0
C      1  0.4168730000000  0.4888090000000  0.5861150000000 1.0
C      1  0.3864570000000  0.4900910000000  0.4792990000000 1.0
C      1  0.4092120000000  0.5677360000000  0.4913390000000 1.0
C      1  0.5600180000000  0.4846200000000  0.4622850000000 1.0
C      1  0.4685160000000  0.4443370000000  0.5203710000000 1.0
C      1  0.5419100000000  0.4810040000000  0.3848800000000 1.0
C      1  0.4223920000000  0.4756010000000  0.4215430000000 1.0
C      1  0.5339260000000  0.4528630000000  0.3896730000000 1.0
C      1  0.4528000000000  0.5349520000000  0.5952640000000 1.0
C      1  0.5773470000000  0.5847530000000  0.4679500000000 1.0
C      1  0.5791850000000  0.5150310000000  0.4422040000000 1.0
C      1  0.4961540000000  0.5615640000000  0.5876440000000 1.0
C      1  0.5014000000000  0.5828560000000  0.5683740000000 1.0
C      1  0.4578360000000  0.3995640000000  0.5409010000000 1.0
C      1  0.6082830000000  0.5286980000000  0.5446660000000 1.0
C      1  0.4430110000000  0.5322650000000  0.5521530000000 1.0
C      1  0.5946920000000  0.5500710000000  0.5584030000000 1.0
C      1  0.5967290000000  0.4756490000000  0.5748220000000 1.0
C      1  0.5350180000000  0.4912650000000  0.4475460000000 1.0
C      1  0.4419320000000  0.5063280000000  0.3903720000000 1.0
C      1  0.4649120000000  0.6189090000000  0.4939810000000 1.0
C      1  0.5008910000000  0.4058140000000  0.4932700000000 1.0
C      1  0.5754000000000  0.4366410000000  0.4578970000000 1.0
C      1  0.5223620000000  0.5462670000000  0.4125510000000 1.0
C      1  0.4850160000000  0.4098400000000  0.5780490000000 1.0
C      1  0.4530960000000  0.5803920000000  0.5812910000000 1.0
C      1  0.4389820000000  0.6002020000000  0.5300740000000 1.0
C      1  0.6002690000000  0.5048160000000  0.5737550000000 1.0
C      1  0.5578040000000  0.5373530000000  0.4009990000000 1.0
C      1  0.4146300000000  0.5010900000000  0.4378190000000 1.0
C      1  0.5257430000000  0.4614450000000  0.6092090000000 1.0
C      1  0.5263770000000  0.5839510000000  0.5522200000000 1.0
C      1  0.4810470000000  0.6101040000000  0.5173730000000 1.0
C      1  0.4982620000000  0.5551940000000  0.3962480000000 1.0
C      1  0.5593530000000  0.4166040000000  0.4413960000000 1.0
C      1  0.4680000000000  0.4589590000000  0.5777580000000 1.0
C      1  0.5535190000000  0.5896320000000  0.5090010000000 1.0
C      1  0.3920770000000  0.5365770000000  0.4516240000000 1.0
C      1  0.5466840000000  0.4110540000000  0.5556990000000 1.0
C      1  0.4267580000000  0.5695930000000  0.5700350000000 1.0
C      1  0.6065270000000  0.4655060000000  0.4820190000000 1.0
C      1  0.4360580000000  0.5211120000000  0.5039470000000 1.0
C      1  0.6158910000000  0.5116870000000  0.4952660000000 1.0
C      1  0.4332560000000  0.4803580000000  0.4802260000000 1.0
C      1  0.5173860000000  0.5535010000000  0.4774090000000 1.0
C      1  0.4503000000000  0.5727680000000  0.4327730000000 1.0
C      1  0.5312710000000  0.5368980000000  0.5197730000000 1.0
C      1  0.5701870000000  0.4630590000000  0.4182230000000 1.0
C      1  0.4989170000000  0.5270900000000  0.5602420000000 1.0
C      1  0.4566330000000  0.4132040000000  0.5672020000000 1.0
C      1  0.5189010000000  0.4818080000000  0.5690840000000 1.0
C      1  0.4805440000000  0.5173370000000  0.5349480000000 1.0
C      1  0.6079750000000  0.5331490000000  0.5153710000000 1.0
C      1  0.4994240000000  0.4229610000000  0.5542860000000 1.0
C      1  0.4622040000000  0.4458850000000  0.4919170000000 1.0
C      1  0.4597680000000  0.4736510000000  0.4841400000000 1.0
C      1  0.4848970000000  0.4370690000000  0.4753140000000 1.0
C      1  0.5669560000000  0.4407080000000  0.5822270000000 1.0
C      1  0.4973630000000  0.4917040000000  0.3687740000000 1.0
C      1  0.5493020000000  0.4415560000000  0.4148670000000 1.0
C      1  0.5600220000000  0.5278420000000  0.5963050000000 1.0
C      1  0.5091100000000  0.4510220000000  0.4865840000000 1.0
C      1  0.5217730000000  0.4360040000000  0.5952530000000 1.0
C      1  0.4097110000000  0.5607060000000  0.5216160000000 1.0
C      1  0.4630370000000  0.4363740000000  0.4047310000000 1.0
C      1  0.4392280000000  0.6064770000000  0.5003860000000 1.0
C      1  0.5877070000000  0.5589730000000  0.4735210000000 1.0
C      1  0.4344170000000  0.5429540000000  0.5249020000000 1.0
C      1  0.5918560000000  0.4400350000000  0.4828380000000 1.0
C      1  0.5485790000000  0.5684830000000  0.5631280000000 1.0
C      1  0.4077640000000  0.5068030000000  0.5442560000000 1.0
C      1  0.5419450000000  0.5080800000000  0.6088100000000 1.0
C      1  0.4983040000000  0.4721980000000  0.6157070000000 1.0
C      1  0.5700090000000  0.5132890000000  0.5037650000000 1.0
C      1  0.4858560000000  0.4672280000000  0.3761580000000 1.0
C      1  0.3843050000000  0.5063350000000  0.5282730000000 1.0
C      1  0.5381480000000  0.5684240000000  0.4252700000000 1.0
C      1  0.4335640000000  0.5284380000000  0.4758700000000 1.0
C      1  0.4886120000000  0.4777060000000  0.4261040000000 1.0
C      1  0.5318640000000  0.4963900000000  0.5476590000000 1.0
C      1  0.4204730000000  0.4534910000000  0.4691590000000 1.0
C      1  0.6182650000000  0.4827890000000  0.5042520000000 1.0
C      1  0.5667450000000  0.4683210000000  0.5742930000000 1.0
C      1  0.4575510000000  0.5274720000000  0.4000400000000 1.0
C      1  0.5884940000000  0.5057140000000  0.4814390000000 1.0
C      1  0.4100810000000  0.4660920000000  0.5701960000000 1.0
C      1  0.4693030000000  0.5480670000000  0.5560350000000 1.0
C      1  0.4273440000000  0.4935690000000  0.5069540000000 1.0
C      1  0.5404490000000  0.4811920000000  0.5923960000000 1.0
C      1  0.4850000000000  0.5281850000000  0.3903930000000 1.0
C      1  0.5124510000000  0.4556290000000  0.5251360000000 1.0
C      1  0.4283980000000  0.5381610000000  0.5768480000000 1.0
C      1  0.5416800000000  0.4678580000000  0.5142130000000 1.0
C      1  0.5348130000000  0.4887440000000  0.4917880000000 1.0
C      1  0.4287040000000  0.4522850000000  0.4391030000000 1.0
C      1  0.6051710000000  0.4755030000000  0.4536460000000 1.0
C      1  0.4794640000000  0.4512160000000  0.6041960000000 1.0
C      1  0.5061270000000  0.5495050000000  0.5059670000000 1.0
C      1  0.5754420000000  0.5741940000000  0.5203050000000 1.0
C      1  0.3930160000000  0.4614140000000  0.4807280000000 1.0
C      1  0.5293400000000  0.5999500000000  0.4647260000000 1.0
C      1  0.4757610000000  0.5189730000000  0.4849010000000 1.0
C      1  0.5159030000000  0.4714470000000  0.4382310000000 1.0
C      1  0.5078350000000  0.5299400000000  0.4342320000000 1.0
C      1  0.4525980000000  0.4054180000000  0.4750370000000 1.0
C      1  0.5172880000000  0.5450220000000  0.5963800000000 1.0
C      1  0.4817310000000  0.5741540000000  0.4128870000000 1.0
C      1  0.4538050000000  0.4357510000000  0.4332340000000 1.0
C      1  0.4945690000000  0.4253760000000  0.6016400000000 1.0
C      1  0.3755580000000  0.5013730000000  0.5029730000000 1.0
C      1  0.5319450000000  0.5266150000000  0.5479480000000 1.0
C      1  0.4951440000000  0.4998450000000  0.5767710000000 1.0
C      1  0.4380720000000  0.5826520000000  0.4824060000000 1.0
C      1  0.3924000000000  0.4539450000000  0.5076780000000 1.0
C      1  0.4922650000000  0.5016570000000  0.6068570000000 1.0
C      1  0.5125490000000  0.4534670000000  0.5556750000000 1.0
C      1  0.5402610000000  0.5341700000000  0.4718750000000 1.0
C      1  0.4592100000000  0.5669200000000  0.5308220000000 1.0
C      1  0.6062700000000  0.4610950000000  0.5510630000000 1.0
C      1  0.5719910000000  0.5121350000000  0.5758930000000 1.0
C      1  0.6066890000000  0.4820990000000  0.5310380000000 1.0
C      1  0.5704020000000  0.5143680000000  0.4130970000000 1.0
C      1  0.4815300000000  0.4438600000000  0.4446280000000 1.0
C      1  0.5457350000000  0.4229500000000  0.5828640000000 1.0
C      1  0.4342290000000  0.4005810000000  0.5267710000000 1.0
C      1  0.4935920000000  0.5801050000000  0.4398980000000 1.0
C      1  0.4228700000000  0.4201380000000  0.5109090000000 1.0
C      1  0.4424790000000  0.5440440000000  0.4382910000000 1.0
C      1  0.4813730000000  0.5718720000000  0.5094470000000 1.0
C      1  0.4092810000000  0.4411340000000  0.5258870000000 1.0
C      1  0.4680800000000  0.5600860000000  0.5972910000000 1.0
C      1  0.4068390000000  0.5415150000000  0.4771030000000 1.0
C      1  0.4355710000000  0.5020070000000  0.4596050000000 1.0
C      1  0.4910240000000  0.5237410000000  0.5080850000000 1.0
C      1  0.4626500000000  0.5657110000000  0.4871020000000 1.0
C      1  0.5755280000000  0.5033210000000  0.5309650000000 1.0
C      1  0.4835760000000  0.4685260000000  0.5258390000000 1.0
C      1  0.5687390000000  0.4214900000000  0.5385420000000 1.0
C      1  0.4649590000000  0.6089190000000  0.5427570000000 1.0
C      1  0.4968950000000  0.5525610000000  0.4549260000000 1.0
C      1  0.4918730000000  0.4272480000000  0.4020580000000 1.0
C      1  0.5268910000000  0.4444700000000  0.4377070000000 1.0
C      1  0.5565330000000  0.4455410000000  0.4964400000000 1.0
C      1  0.4738010000000  0.5914210000000  0.5635580000000 1.0
C      1  0.4478600000000  0.5921670000000  0.4547480000000 1.0
C      1  0.4375350000000  0.4285680000000  0.4855620000000 1.0
C      1  0.4085610000000  0.5140670000000  0.5730340000000 1.0
C      1  0.5085400000000  0.6064910000000  0.5089400000000 1.0
C      1  0.5909170000000  0.4375220000000  0.5465960000000 1.0
C      1  0.4344210000000  0.4848980000000  0.5351060000000 1.0
C      1  0.5619960000000  0.5641030000000  0.4101610000000 1.0
C      1  0.5076450000000  0.4803700000000  0.4805900000000 1.0
C      1  0.5911390000000  0.5555540000000  0.5034480000000 1.0
C      1  0.5297990000000  0.5949710000000  0.5248230000000 1.0
C      1  0.5694230000000  0.5389630000000  0.4597210000000 1.0
C      1  0.4257950000000  0.4568120000000  0.5474380000000 1.0
C      1  0.4510480000000  0.4419760000000  0.5610480000000 1.0
C      1  0.4148290000000  0.5324390000000  0.4302360000000 1.0
C      1  0.5052790000000  0.4464190000000  0.3840790000000 1.0
C      1  0.4662780000000  0.4899770000000  0.5401680000000 1.0
C      1  0.5625140000000  0.4874740000000  0.4042840000000 1.0
C      1  0.5212960000000  0.5004010000000  0.3800170000000 1.0
C      1  0.5635540000000  0.4197040000000  0.5100110000000 1.0
C      1  0.5656220000000  0.5251910000000  0.5510520000000 1.0
C      1  0.5557050000000  0.4813130000000  0.5394090000000 1.0
C      1  0.5345470000000  0.4381960000000  0.4751450000000 1.0
C      1  0.5490040000000  0.3981290000000  0.4996370000000 1.0
C      1  0.4188110000000  0.5809630000000  0.5423180000000 1.0
C      1  0.5055930000000  0.6060580000000  0.4799260000000 1.0
C      1  0.4785230000000  0.3936480000000  0.4763160000000 1.0
C      1  0.5104890000000  0.3991200000000  0.4384190000000 1.0
C      1  0.4773780000000  0.6090290000000  0.4688780000000 1.0
C      1  0.4796510000000  0.4924620000000  0.4727100000000 1.0
C      1  0.5264640000000  0.5174180000000  0.4523300000000 1.0
C      1  0.5198690000000  0.4045210000000  0.5439280000000 1.0
C      1  0.5777910000000  0.4643900000000  0.4466080000000 1.0
C      1  0.4900850000000  0.3863650000000  0.4523070000000 1.0
C      1  0.4615630000000  0.5097880000000  0.6073950000000 1.0
C      1  0.5423970000000  0.5185160000000  0.4978530000000 1.0
C      1  0.4430150000000  0.4891100000000  0.5989380000000 1.0
C      1  0.3873000000000  0.5037680000000  0.4527330000000 1.0
C      1  0.4800980000000  0.4176960000000  0.5297700000000 1.0
C      1  0.5079420000000  0.3929770000000  0.5192040000000 1.0
C      1  0.4688620000000  0.4872110000000  0.5700290000000 1.0
C      1  0.5223470000000  0.5899410000000  0.4375320000000 1.0
C      1  0.5742170000000  0.5679400000000  0.5487050000000 1.0
C      1  0.4990130000000  0.5066860000000  0.4100390000000 1.0
C      1  0.5366960000000  0.3998530000000  0.4525320000000 1.0
C      1  0.4641150000000  0.5251840000000  0.4292690000000 1.0
C      1  0.4707880000000  0.4967610000000  0.4427140000000 1.0
C      1  0.5429450000000  0.5489300000000  0.5846410000000 1.0
C      1  0.5540580000000  0.5939320000000  0.4801290000000 1.0
C      1  0.4630410000000  0.4634500000000  0.3943170000000 1.0
C      1  0.4706650000000  0.5439810000000  0.4685270000000 1.0
C      1  0.6063490000000  0.5039260000000  0.4475470000000 1.0
C      1  0.5300120000000  0.4086410000000  0.4803020000000 1.0
C      1  0.5151590000000  0.5209170000000  0.6126820000000 1.0
END
