TITL C-951333-8791-257 -4.05121910381239e-06 125000 -179.685221989923 0 0 31 (C1) n - 1
REM
REM in /home/bkarasulu/work/CARBON/AIRSS/Generating-Clusters/EDIP-Nigel-Params/with-SteepDescent/Only-C1/SD-CG/HFTN-CG
REM
REM
REM
REM
REM
REM ./C.cell (11c1c37f851c82e70ff6c80c92926a4b)
REM
REM compiler GCC version 9.2.1 20190827 (Red Hat 9.2.1-1)
REM options -cpp -mtune=generic -march=x86-64 -g -O0 -fpre-include=/usr/include/finclude/math-vector-fortran.h
REM seed 723498736 482723973 1346043267 617966675 564647002 -2068685311 -1133737915 -620813782 1594997486 1238692027 1863839825 2041625938 -445351425 1966105607 -1403378903 1400957553 -64800268 -1171785096 2046763222 -562930462 2143557650 964834828 -999767478 -598569164 -120022727 -2008253181 1341376675 815760232 -1640242295 1155081987 1876653271 -750437239 1227113024
REM
CELL 1.54180   50.00000   50.00000   50.00000   90.00000   90.00000   90.00000
LATT -1
SFAC C  
C      1  0.5494360000000  0.4893730000000  0.5120080000000 1.0
C      1  0.4949720000000  0.4653880000000  0.4895680000000 1.0
C      1  0.5009280000000  0.5133210000000  0.4592520000000 1.0
C      1  0.4724920000000  0.5079830000000  0.4550920000000 1.0
C      1  0.5244660000000  0.4621780000000  0.4447390000000 1.0
C      1  0.5136880000000  0.4553100000000  0.5083880000000 1.0
C      1  0.4931150000000  0.4974920000000  0.4933030000000 1.0
C      1  0.4510050000000  0.4666390000000  0.4788900000000 1.0
C      1  0.5379170000000  0.4856100000000  0.4405060000000 1.0
C      1  0.4571120000000  0.5233040000000  0.4737220000000 1.0
C      1  0.4631540000000  0.4814420000000  0.4581290000000 1.0
C      1  0.4695800000000  0.4519080000000  0.4934040000000 1.0
C      1  0.5151630000000  0.5084530000000  0.5127020000000 1.0
C      1  0.5255930000000  0.4978930000000  0.4635900000000 1.0
C      1  0.5406870000000  0.5367330000000  0.4980550000000 1.0
C      1  0.5305140000000  0.4694610000000  0.5248760000000 1.0
C      1  0.5292260000000  0.5408490000000  0.5449930000000 1.0
C      1  0.5186970000000  0.4819980000000  0.5469120000000 1.0
C      1  0.4596050000000  0.5248720000000  0.5232410000000 1.0
C      1  0.5122240000000  0.5442210000000  0.5023890000000 1.0
C      1  0.5345140000000  0.5043140000000  0.5521980000000 1.0
C      1  0.4273580000000  0.4951500000000  0.5171960000000 1.0
C      1  0.5441420000000  0.5076470000000  0.4865710000000 1.0
C      1  0.5570610000000  0.5080700000000  0.5341120000000 1.0
C      1  0.4817530000000  0.5339340000000  0.5375520000000 1.0
C      1  0.5051310000000  0.5473420000000  0.5303210000000 1.0
C      1  0.5519910000000  0.5361860000000  0.5264540000000 1.0
C      1  0.4325080000000  0.4800020000000  0.4952440000000 1.0
C      1  0.4647260000000  0.5099000000000  0.4984640000000 1.0
C      1  0.5050550000000  0.4587020000000  0.4635340000000 1.0
C      1  0.4361850000000  0.5143260000000  0.5345980000000 1.0
END
