TITL C-951343-2256-36 1.21116260377352e-06 125000 -223.884303996759 0 0 39 (C1) n - 1
REM
REM in /home/bkarasulu/work/CARBON/AIRSS/Generating-Clusters/EDIP-Nigel-Params/with-SteepDescent/Only-C1/SD-CG/HFTN-CG
REM
REM
REM
REM
REM
REM ./C.cell (11c1c37f851c82e70ff6c80c92926a4b)
REM
REM compiler GCC version 9.2.1 20190827 (Red Hat 9.2.1-1)
REM options -cpp -mtune=generic -march=x86-64 -g -O0 -fpre-include=/usr/include/finclude/math-vector-fortran.h
REM seed -1868922601 -145354921 -1702493542 -764541889 1765395192 -549986857 1160786683 1782889465 254967069 -864944952 -1782713912 -1890939173 -130983240 314761724 1461642936 -1163924161 706121609 2121913981 -1066034431 -1162398394 -1278835527 1431821116 1450286416 2035704823 888613928 1893008599 557494375 -1491831428 -729700635 -1211491911 -1229768022 -342374910 1782075493
REM
CELL 1.54180   50.00000   50.00000   50.00000   90.00000   90.00000   90.00000
LATT -1
SFAC C  
C      1  0.5132910000000  0.4572020000000  0.4900380000000 1.0
C      1  0.5597860000000  0.4509230000000  0.5155640000000 1.0
C      1  0.5385940000000  0.4224110000000  0.4822280000000 1.0
C      1  0.5329350000000  0.4815630000000  0.5465790000000 1.0
C      1  0.4357060000000  0.5048740000000  0.4727560000000 1.0
C      1  0.5505390000000  0.5021820000000  0.4934770000000 1.0
C      1  0.4502380000000  0.5251180000000  0.5453740000000 1.0
C      1  0.5143400000000  0.5278270000000  0.4177070000000 1.0
C      1  0.5367580000000  0.5114600000000  0.5410140000000 1.0
C      1  0.4893180000000  0.5553960000000  0.4900510000000 1.0
C      1  0.5123890000000  0.5258830000000  0.5487580000000 1.0
C      1  0.4567290000000  0.5459850000000  0.5246230000000 1.0
C      1  0.4650900000000  0.5430830000000  0.4967410000000 1.0
C      1  0.4439970000000  0.4902170000000  0.5312370000000 1.0
C      1  0.5153710000000  0.5017840000000  0.4289970000000 1.0
C      1  0.4589870000000  0.4897140000000  0.5558780000000 1.0
C      1  0.5465370000000  0.4984090000000  0.4662610000000 1.0
C      1  0.5027880000000  0.4743090000000  0.4676200000000 1.0
C      1  0.4713930000000  0.4550130000000  0.5141320000000 1.0
C      1  0.4998950000000  0.5653040000000  0.5326670000000 1.0
C      1  0.4750760000000  0.4765190000000  0.4658540000000 1.0
C      1  0.5036560000000  0.4804450000000  0.5380070000000 1.0
C      1  0.5330750000000  0.5444900000000  0.5059680000000 1.0
C      1  0.4419140000000  0.5253510000000  0.4552180000000 1.0
C      1  0.5106050000000  0.5610540000000  0.5071540000000 1.0
C      1  0.5628130000000  0.5119160000000  0.4502960000000 1.0
C      1  0.4523380000000  0.4745080000000  0.5085780000000 1.0
C      1  0.4984060000000  0.4605670000000  0.5160070000000 1.0
C      1  0.5482090000000  0.4482800000000  0.4907890000000 1.0
C      1  0.5518670000000  0.4638000000000  0.5373750000000 1.0
C      1  0.4992020000000  0.5086560000000  0.5306910000000 1.0
C      1  0.5455840000000  0.5206620000000  0.5136550000000 1.0
C      1  0.4916520000000  0.5132560000000  0.4184210000000 1.0
C      1  0.4774070000000  0.5527830000000  0.5434440000000 1.0
C      1  0.5192570000000  0.4956830000000  0.4570100000000 1.0
C      1  0.4838030000000  0.4767570000000  0.5588270000000 1.0
C      1  0.4550380000000  0.4864180000000  0.4823960000000 1.0
C      1  0.4443710000000  0.5421570000000  0.4771450000000 1.0
C      1  0.5110450000000  0.4280420000000  0.4814620000000 1.0
END
