TITL C-951334-9093-629 -4.17759917559559e-06 125000 -1008.87212709457 0 0 163 (C1) n - 1
REM
REM in /home/bkarasulu/work/CARBON/AIRSS/Generating-Clusters/EDIP-Nigel-Params/with-SteepDescent/Only-C1/SD-CG/HFTN-CG
REM
REM
REM
REM
REM
REM ./C.cell (11c1c37f851c82e70ff6c80c92926a4b)
REM
REM compiler GCC version 9.2.1 20190827 (Red Hat 9.2.1-1)
REM options -cpp -mtune=generic -march=x86-64 -g -O0 -fpre-include=/usr/include/finclude/math-vector-fortran.h
REM seed 556176776 -712017138 -615413149 1527047088 -937664735 -1874789787 -933831072 1993749846 -1543232536 -332726029 -842776351 508511554 416764045 -1444987857 220422654 1118916971 -1564542485 528422508 728424070 1212996849 803089018 -1022842564 1350509337 357486504 890888791 -2016498846 -1505781140 527116804 297500096 -1433005979 -2020437384 -1731268572 1678522814
REM
CELL 1.54180   50.00000   50.00000   50.00000   90.00000   90.00000   90.00000
LATT -1
SFAC C  
C      1  0.5273290000000  0.4313150000000  0.5351530000000 1.0
C      1  0.5596140000000  0.5449510000000  0.4874280000000 1.0
C      1  0.5631710000000  0.4714580000000  0.4120130000000 1.0
C      1  0.5958210000000  0.5448900000000  0.4989110000000 1.0
C      1  0.4761830000000  0.5008000000000  0.5571820000000 1.0
C      1  0.4329820000000  0.4678220000000  0.4343870000000 1.0
C      1  0.5742360000000  0.4313380000000  0.5343680000000 1.0
C      1  0.4278390000000  0.5405870000000  0.4364500000000 1.0
C      1  0.5331570000000  0.4951930000000  0.4395450000000 1.0
C      1  0.3939980000000  0.4440490000000  0.4962720000000 1.0
C      1  0.5059560000000  0.5969270000000  0.5015990000000 1.0
C      1  0.6074090000000  0.4994470000000  0.4864890000000 1.0
C      1  0.5051730000000  0.5863190000000  0.5326690000000 1.0
C      1  0.5515320000000  0.4179080000000  0.5245880000000 1.0
C      1  0.4508700000000  0.6153840000000  0.5267120000000 1.0
C      1  0.5121040000000  0.5063150000000  0.5317410000000 1.0
C      1  0.5159280000000  0.3950930000000  0.4645160000000 1.0
C      1  0.4633350000000  0.4520270000000  0.5345900000000 1.0
C      1  0.4938360000000  0.5254100000000  0.5470550000000 1.0
C      1  0.5850540000000  0.4646920000000  0.4544670000000 1.0
C      1  0.4650430000000  0.4968830000000  0.5850310000000 1.0
C      1  0.4849270000000  0.4883440000000  0.5112860000000 1.0
C      1  0.4749110000000  0.4373480000000  0.4325020000000 1.0
C      1  0.4849000000000  0.6174530000000  0.4877070000000 1.0
C      1  0.4988690000000  0.5174880000000  0.4809930000000 1.0
C      1  0.5480830000000  0.4263120000000  0.4394220000000 1.0
C      1  0.4341730000000  0.4761380000000  0.5030350000000 1.0
C      1  0.5305880000000  0.5524590000000  0.4342730000000 1.0
C      1  0.4342370000000  0.4954780000000  0.5820070000000 1.0
C      1  0.4516100000000  0.5891940000000  0.5145740000000 1.0
C      1  0.4276270000000  0.5527720000000  0.5354620000000 1.0
C      1  0.5134490000000  0.5974830000000  0.4268070000000 1.0
C      1  0.5084130000000  0.5119240000000  0.6084260000000 1.0
C      1  0.5097930000000  0.5161170000000  0.4027150000000 1.0
C      1  0.5598400000000  0.5352070000000  0.5871770000000 1.0
C      1  0.5993080000000  0.4230010000000  0.5253620000000 1.0
C      1  0.5301310000000  0.5239200000000  0.5888280000000 1.0
C      1  0.4765840000000  0.4787300000000  0.5376270000000 1.0
C      1  0.4203040000000  0.4933130000000  0.4318740000000 1.0
C      1  0.4250140000000  0.4691700000000  0.5807850000000 1.0
C      1  0.5305520000000  0.5884920000000  0.4843400000000 1.0
C      1  0.4023580000000  0.5023900000000  0.5415340000000 1.0
C      1  0.5925410000000  0.4830820000000  0.5259750000000 1.0
C      1  0.4933430000000  0.4152340000000  0.4661610000000 1.0
C      1  0.5029940000000  0.5243760000000  0.4538210000000 1.0
C      1  0.5601470000000  0.5600350000000  0.5720180000000 1.0
C      1  0.3854030000000  0.4707170000000  0.4909130000000 1.0
C      1  0.5030570000000  0.5008660000000  0.4376960000000 1.0
C      1  0.4966450000000  0.4643910000000  0.4973480000000 1.0
C      1  0.5398320000000  0.4880290000000  0.4678670000000 1.0
C      1  0.5351240000000  0.4400130000000  0.4866840000000 1.0
C      1  0.4605630000000  0.5758890000000  0.5590250000000 1.0
C      1  0.4990810000000  0.5672080000000  0.4613490000000 1.0
C      1  0.5368310000000  0.5583890000000  0.5552710000000 1.0
C      1  0.4869440000000  0.5391510000000  0.4973950000000 1.0
C      1  0.4305580000000  0.5390690000000  0.5607130000000 1.0
C      1  0.4548820000000  0.5653680000000  0.5320720000000 1.0
C      1  0.4608110000000  0.4998520000000  0.4667610000000 1.0
C      1  0.5238960000000  0.4781950000000  0.5994280000000 1.0
C      1  0.5365830000000  0.4021350000000  0.4472410000000 1.0
C      1  0.5509350000000  0.4823920000000  0.5394800000000 1.0
C      1  0.4415390000000  0.5700160000000  0.4760430000000 1.0
C      1  0.5536990000000  0.5897390000000  0.5222130000000 1.0
C      1  0.4824280000000  0.5278720000000  0.4107740000000 1.0
C      1  0.4944610000000  0.4639150000000  0.4676850000000 1.0
C      1  0.4278680000000  0.6052460000000  0.5171930000000 1.0
C      1  0.4565360000000  0.4972580000000  0.4970130000000 1.0
C      1  0.5159300000000  0.4856480000000  0.3983440000000 1.0
C      1  0.5322870000000  0.5187090000000  0.5102950000000 1.0
C      1  0.4262490000000  0.4380860000000  0.4667660000000 1.0
C      1  0.5557560000000  0.5158900000000  0.4154450000000 1.0
C      1  0.4983070000000  0.5621500000000  0.5820630000000 1.0
C      1  0.4521410000000  0.5532420000000  0.5760130000000 1.0
C      1  0.5326540000000  0.5601020000000  0.4723370000000 1.0
C      1  0.6040830000000  0.5303050000000  0.5230150000000 1.0
C      1  0.5985770000000  0.5267180000000  0.4766590000000 1.0
C      1  0.5211280000000  0.5000700000000  0.4899290000000 1.0
C      1  0.4368630000000  0.5147300000000  0.4222890000000 1.0
C      1  0.5819090000000  0.4708520000000  0.5607480000000 1.0
C      1  0.4410870000000  0.5675070000000  0.4454290000000 1.0
C      1  0.4232520000000  0.5114710000000  0.5603970000000 1.0
C      1  0.6126960000000  0.5021310000000  0.5168570000000 1.0
C      1  0.5741680000000  0.4335590000000  0.4542870000000 1.0
C      1  0.4794930000000  0.4827520000000  0.4507320000000 1.0
C      1  0.4817450000000  0.5395420000000  0.4407590000000 1.0
C      1  0.5012270000000  0.4008490000000  0.5095040000000 1.0
C      1  0.4453220000000  0.5254330000000  0.5023570000000 1.0
C      1  0.5446350000000  0.4760360000000  0.5102170000000 1.0
C      1  0.4657940000000  0.4336690000000  0.5575480000000 1.0
C      1  0.4958460000000  0.4404230000000  0.5893180000000 1.0
C      1  0.5622260000000  0.5196410000000  0.5122860000000 1.0
C      1  0.4800320000000  0.4477580000000  0.6111170000000 1.0
C      1  0.4998980000000  0.4408850000000  0.4497140000000 1.0
C      1  0.3983710000000  0.4749870000000  0.5383480000000 1.0
C      1  0.5989740000000  0.4279630000000  0.4976060000000 1.0
C      1  0.5071020000000  0.4091410000000  0.5372070000000 1.0
C      1  0.5148370000000  0.5421340000000  0.5679760000000 1.0
C      1  0.3951130000000  0.5498350000000  0.4711810000000 1.0
C      1  0.4641120000000  0.5781360000000  0.4323030000000 1.0
C      1  0.4607400000000  0.5084810000000  0.4063860000000 1.0
C      1  0.4029220000000  0.5029850000000  0.4531170000000 1.0
C      1  0.4165610000000  0.4473920000000  0.4423080000000 1.0
C      1  0.6137840000000  0.4494380000000  0.4877590000000 1.0
C      1  0.5486810000000  0.4149980000000  0.4952460000000 1.0
C      1  0.5525260000000  0.5705910000000  0.4349160000000 1.0
C      1  0.4110480000000  0.4330320000000  0.5165840000000 1.0
C      1  0.4145760000000  0.5587220000000  0.4888330000000 1.0
C      1  0.4584910000000  0.5288490000000  0.4573960000000 1.0
C      1  0.5402580000000  0.6064510000000  0.4651990000000 1.0
C      1  0.5257500000000  0.4883350000000  0.5523140000000 1.0
C      1  0.5767780000000  0.5793260000000  0.5323920000000 1.0
C      1  0.5806430000000  0.4825210000000  0.4313140000000 1.0
C      1  0.5770010000000  0.5179210000000  0.5687560000000 1.0
C      1  0.4919890000000  0.5820750000000  0.4368380000000 1.0
C      1  0.5740150000000  0.5107600000000  0.4360520000000 1.0
C      1  0.6070920000000  0.4718550000000  0.4729450000000 1.0
C      1  0.5725760000000  0.4914270000000  0.5027370000000 1.0
C      1  0.4893360000000  0.5814460000000  0.5600960000000 1.0
C      1  0.4241260000000  0.4479640000000  0.5626340000000 1.0
C      1  0.4842720000000  0.4135430000000  0.5522830000000 1.0
C      1  0.5765850000000  0.4182190000000  0.4808270000000 1.0
C      1  0.5325700000000  0.5314820000000  0.4144970000000 1.0
C      1  0.5370540000000  0.4463830000000  0.5607450000000 1.0
C      1  0.5268220000000  0.4459270000000  0.4337060000000 1.0
C      1  0.4857450000000  0.4214550000000  0.4949920000000 1.0
C      1  0.4357220000000  0.4158220000000  0.5092020000000 1.0
C      1  0.5350240000000  0.4723770000000  0.4195930000000 1.0
C      1  0.4078370000000  0.4914300000000  0.4945680000000 1.0
C      1  0.4800180000000  0.5181580000000  0.6022200000000 1.0
C      1  0.4200400000000  0.5378700000000  0.5108180000000 1.0
C      1  0.4833390000000  0.5809200000000  0.4845060000000 1.0
C      1  0.4444660000000  0.4529710000000  0.4862700000000 1.0
C      1  0.5717370000000  0.5599330000000  0.4542210000000 1.0
C      1  0.4627740000000  0.6018020000000  0.4738560000000 1.0
C      1  0.5623260000000  0.5111090000000  0.5419680000000 1.0
C      1  0.4752990000000  0.5466240000000  0.5933440000000 1.0
C      1  0.5256790000000  0.3933990000000  0.4922440000000 1.0
C      1  0.4681620000000  0.4794410000000  0.4033990000000 1.0
C      1  0.4924220000000  0.4732220000000  0.3912400000000 1.0
C      1  0.4012060000000  0.5141760000000  0.5145330000000 1.0
C      1  0.5225580000000  0.4529690000000  0.5092540000000 1.0
C      1  0.4407150000000  0.4259440000000  0.5675460000000 1.0
C      1  0.5378950000000  0.4949670000000  0.5799720000000 1.0
C      1  0.4785740000000  0.5424960000000  0.5259930000000 1.0
C      1  0.5843330000000  0.5642810000000  0.5551850000000 1.0
C      1  0.4032640000000  0.5324560000000  0.4513300000000 1.0
C      1  0.4367900000000  0.4115280000000  0.4613090000000 1.0
C      1  0.5668120000000  0.4460300000000  0.5582710000000 1.0
C      1  0.5326380000000  0.5814540000000  0.5389550000000 1.0
C      1  0.5491930000000  0.4592820000000  0.4690150000000 1.0
C      1  0.5395480000000  0.5975180000000  0.4384160000000 1.0
C      1  0.4614570000000  0.4135170000000  0.4451730000000 1.0
C      1  0.5700440000000  0.4902200000000  0.5801880000000 1.0
C      1  0.4593520000000  0.4351430000000  0.5063970000000 1.0
C      1  0.3837420000000  0.4843520000000  0.4647740000000 1.0
C      1  0.5967310000000  0.5374260000000  0.5515730000000 1.0
C      1  0.5835690000000  0.5328420000000  0.4529450000000 1.0
C      1  0.4591930000000  0.5437430000000  0.4836320000000 1.0
C      1  0.4627320000000  0.4657900000000  0.4294750000000 1.0
C      1  0.5219000000000  0.4518230000000  0.5864520000000 1.0
C      1  0.4726080000000  0.4700330000000  0.5959290000000 1.0
C      1  0.4195540000000  0.4563140000000  0.5338700000000 1.0
C      1  0.4340500000000  0.3987120000000  0.4864030000000 1.0
END
