TITL C-951334-9093-652 -4.36184591650973e-06 125000 -740.66252090901 0 0 119 (C1) n - 1
REM
REM in /home/bkarasulu/work/CARBON/AIRSS/Generating-Clusters/EDIP-Nigel-Params/with-SteepDescent/Only-C1/SD-CG/HFTN-CG
REM
REM
REM
REM
REM
REM ./C.cell (11c1c37f851c82e70ff6c80c92926a4b)
REM
REM compiler GCC version 9.2.1 20190827 (Red Hat 9.2.1-1)
REM options -cpp -mtune=generic -march=x86-64 -g -O0 -fpre-include=/usr/include/finclude/math-vector-fortran.h
REM seed 713693568 87996411 1738864413 718832900 1280810284 1617953382 114079109 1751568477 2122019094 -1459856802 1473951775 -596659350 2058380807 -1044261683 -843206138 -289188871 2011667722 63919495 1833371122 1495720979 -1461508999 1769427126 -716123315 -1344956525 -1838268338 -1533399959 -655795676 2135452260 1580296177 -114213473 -294200883 1423968211 1138302949
REM
CELL 1.54180   50.00000   50.00000   50.00000   90.00000   90.00000   90.00000
LATT -1
SFAC C  
C      1  0.5819930000000  0.5503470000000  0.5203690000000 1.0
C      1  0.5703670000000  0.5499180000000  0.4472600000000 1.0
C      1  0.4528070000000  0.4288900000000  0.5435560000000 1.0
C      1  0.4819680000000  0.4705380000000  0.5198550000000 1.0
C      1  0.4991700000000  0.5058990000000  0.4013780000000 1.0
C      1  0.5831080000000  0.5406220000000  0.5467660000000 1.0
C      1  0.5659950000000  0.4489900000000  0.5306730000000 1.0
C      1  0.4813950000000  0.5756040000000  0.5303930000000 1.0
C      1  0.4743820000000  0.4663910000000  0.4296670000000 1.0
C      1  0.5458480000000  0.4851540000000  0.4198880000000 1.0
C      1  0.5517780000000  0.5810710000000  0.4802420000000 1.0
C      1  0.4925770000000  0.5279410000000  0.5848270000000 1.0
C      1  0.4108890000000  0.5161880000000  0.5445980000000 1.0
C      1  0.5657670000000  0.5048320000000  0.5728600000000 1.0
C      1  0.4552210000000  0.5772970000000  0.4868150000000 1.0
C      1  0.4596150000000  0.5624650000000  0.5719520000000 1.0
C      1  0.4925090000000  0.5175920000000  0.5152240000000 1.0
C      1  0.4828420000000  0.5435690000000  0.5609400000000 1.0
C      1  0.4750160000000  0.5053550000000  0.5932550000000 1.0
C      1  0.4433560000000  0.4361120000000  0.4739550000000 1.0
C      1  0.5661030000000  0.5340950000000  0.5687350000000 1.0
C      1  0.5282980000000  0.5634240000000  0.4885510000000 1.0
C      1  0.4627060000000  0.4237780000000  0.4582520000000 1.0
C      1  0.5254780000000  0.4773760000000  0.5728520000000 1.0
C      1  0.5214370000000  0.5281680000000  0.5896810000000 1.0
C      1  0.4792170000000  0.4944310000000  0.5034900000000 1.0
C      1  0.4595260000000  0.4435910000000  0.5696150000000 1.0
C      1  0.4563820000000  0.4911540000000  0.4315560000000 1.0
C      1  0.4617450000000  0.5457960000000  0.4505750000000 1.0
C      1  0.5814960000000  0.4746720000000  0.5329700000000 1.0
C      1  0.4711570000000  0.5113620000000  0.4140000000000 1.0
C      1  0.5623070000000  0.5911720000000  0.5038700000000 1.0
C      1  0.4747170000000  0.5241140000000  0.5378660000000 1.0
C      1  0.5455930000000  0.4908900000000  0.4952160000000 1.0
C      1  0.5769730000000  0.4949410000000  0.4594220000000 1.0
C      1  0.4956860000000  0.5817850000000  0.4586130000000 1.0
C      1  0.5039430000000  0.5729000000000  0.5480050000000 1.0
C      1  0.5247330000000  0.4739470000000  0.5091470000000 1.0
C      1  0.4504240000000  0.4480380000000  0.4981450000000 1.0
C      1  0.4364310000000  0.5523190000000  0.5368970000000 1.0
C      1  0.5092170000000  0.4497190000000  0.4661300000000 1.0
C      1  0.4996470000000  0.4829010000000  0.4318340000000 1.0
C      1  0.5454570000000  0.5162940000000  0.5202250000000 1.0
C      1  0.4788610000000  0.4236600000000  0.5285230000000 1.0
C      1  0.5000820000000  0.4265550000000  0.4232900000000 1.0
C      1  0.4906080000000  0.4408430000000  0.5724080000000 1.0
C      1  0.4024910000000  0.4991610000000  0.4468720000000 1.0
C      1  0.4534800000000  0.4737220000000  0.5614890000000 1.0
C      1  0.5709200000000  0.4507560000000  0.4808170000000 1.0
C      1  0.5256640000000  0.4166780000000  0.4327240000000 1.0
C      1  0.5715320000000  0.5724330000000  0.4628670000000 1.0
C      1  0.5054440000000  0.4625580000000  0.5889720000000 1.0
C      1  0.4711690000000  0.3998310000000  0.4692130000000 1.0
C      1  0.5225120000000  0.5517680000000  0.5456670000000 1.0
C      1  0.4663330000000  0.5733050000000  0.4590780000000 1.0
C      1  0.4811940000000  0.3982220000000  0.5153100000000 1.0
C      1  0.5429310000000  0.5349290000000  0.4099740000000 1.0
C      1  0.5070790000000  0.4806900000000  0.4616520000000 1.0
C      1  0.4138980000000  0.5167660000000  0.4648310000000 1.0
C      1  0.5166370000000  0.5006310000000  0.5272030000000 1.0
C      1  0.4792150000000  0.4444790000000  0.5070190000000 1.0
C      1  0.5074250000000  0.4902810000000  0.5541900000000 1.0
C      1  0.4868760000000  0.5388590000000  0.4918290000000 1.0
C      1  0.4153590000000  0.5611610000000  0.5177820000000 1.0
C      1  0.4884770000000  0.4818010000000  0.6008070000000 1.0
C      1  0.5169850000000  0.5429510000000  0.4673320000000 1.0
C      1  0.5334010000000  0.4092380000000  0.4806920000000 1.0
C      1  0.5176990000000  0.4439950000000  0.4067790000000 1.0
C      1  0.4561640000000  0.5750350000000  0.5447900000000 1.0
C      1  0.4326830000000  0.5583190000000  0.4923810000000 1.0
C      1  0.5935870000000  0.4843550000000  0.5074420000000 1.0
C      1  0.4513390000000  0.5338420000000  0.4949790000000 1.0
C      1  0.4819820000000  0.4918840000000  0.4742220000000 1.0
C      1  0.5196720000000  0.4736830000000  0.4104900000000 1.0
C      1  0.3804370000000  0.4982980000000  0.4634940000000 1.0
C      1  0.5335390000000  0.5121600000000  0.4272080000000 1.0
C      1  0.4482610000000  0.5264320000000  0.5247780000000 1.0
C      1  0.4814930000000  0.5686540000000  0.5007730000000 1.0
C      1  0.4311300000000  0.5213220000000  0.5672910000000 1.0
C      1  0.4328160000000  0.4721550000000  0.5398060000000 1.0
C      1  0.5043410000000  0.5818100000000  0.4873880000000 1.0
C      1  0.5016260000000  0.4305700000000  0.5462370000000 1.0
C      1  0.5986540000000  0.5116740000000  0.5061410000000 1.0
C      1  0.4400780000000  0.5130720000000  0.4758780000000 1.0
C      1  0.4356650000000  0.4461940000000  0.5247160000000 1.0
C      1  0.5376790000000  0.5492670000000  0.5193830000000 1.0
C      1  0.4842340000000  0.4408460000000  0.4452420000000 1.0
C      1  0.4739100000000  0.5374230000000  0.4266750000000 1.0
C      1  0.5326840000000  0.4299680000000  0.4578890000000 1.0
C      1  0.5329090000000  0.4261690000000  0.5053560000000 1.0
C      1  0.5299750000000  0.4969600000000  0.4715260000000 1.0
C      1  0.5605010000000  0.4374140000000  0.5046260000000 1.0
C      1  0.4506600000000  0.5001160000000  0.5769790000000 1.0
C      1  0.5369700000000  0.5206970000000  0.4579550000000 1.0
C      1  0.4982250000000  0.5505930000000  0.4198300000000 1.0
C      1  0.5503000000000  0.4369120000000  0.5509840000000 1.0
C      1  0.5372270000000  0.5439860000000  0.5705640000000 1.0
C      1  0.5134680000000  0.5337280000000  0.4010610000000 1.0
C      1  0.4245380000000  0.4970140000000  0.5273190000000 1.0
C      1  0.5735210000000  0.4795710000000  0.4862820000000 1.0
C      1  0.5139020000000  0.3898790000000  0.4823130000000 1.0
C      1  0.3794920000000  0.5290540000000  0.5062450000000 1.0
C      1  0.3959580000000  0.5383300000000  0.5268330000000 1.0
C      1  0.4872210000000  0.3899150000000  0.4894020000000 1.0
C      1  0.5580690000000  0.4755100000000  0.4447110000000 1.0
C      1  0.3741190000000  0.5150530000000  0.4842890000000 1.0
C      1  0.4340720000000  0.5486160000000  0.5755500000000 1.0
C      1  0.5575610000000  0.4470950000000  0.4551100000000 1.0
C      1  0.5669080000000  0.4968690000000  0.5448410000000 1.0
C      1  0.5288110000000  0.4252070000000  0.5366380000000 1.0
C      1  0.5605960000000  0.5695720000000  0.5219920000000 1.0
C      1  0.5140040000000  0.5619990000000  0.4426610000000 1.0
C      1  0.5123230000000  0.4482310000000  0.4967930000000 1.0
C      1  0.5417300000000  0.4965280000000  0.5874060000000 1.0
C      1  0.5484060000000  0.5559310000000  0.4288680000000 1.0
C      1  0.4625630000000  0.5077310000000  0.4572920000000 1.0
C      1  0.5799790000000  0.5307930000000  0.4974400000000 1.0
C      1  0.5678610000000  0.5250870000000  0.4654340000000 1.0
C      1  0.4846070000000  0.4715610000000  0.5490600000000 1.0
END
