TITL C-950533-5798-190 -3.0541462209499e-07 125000 -273.73535442473 0 0 45 (C1) n - 1
REM
REM in /home/bkarasulu/work/CARBON/AIRSS/Generating-Clusters/EDIP-Nigel-Params/with-SteepDescent/Only-C1/SD-CG/HFTN-CG
REM
REM
REM
REM
REM
REM ./C.cell (11c1c37f851c82e70ff6c80c92926a4b)
REM
REM compiler GCC version 9.2.1 20190827 (Red Hat 9.2.1-1)
REM options -cpp -mtune=generic -march=x86-64 -g -O0 -fpre-include=/usr/include/finclude/math-vector-fortran.h
REM seed 663703041 -2042088876 -1548451281 1112286639 788986794 2098784639 -1425656180 -309059468 1540130826 1886639002 -890874813 -100218129 36614123 -533804807 -207398231 42442348 -786388097 -850418428 684174653 -536799552 -1623070599 -60746019 1445017994 938105351 -1209924539 1145597818 -238174878 -1463775811 -1718046875 -402034981 -1411339386 679180551 -1349616959
REM
CELL 1.54180   50.00000   50.00000   50.00000   90.00000   90.00000   90.00000
LATT -1
SFAC C  
C      1  0.4900130000000  0.5156050000000  0.4376990000000 1.0
C      1  0.4570650000000  0.4697020000000  0.5386470000000 1.0
C      1  0.5282350000000  0.4877620000000  0.5789700000000 1.0
C      1  0.5039870000000  0.5243070000000  0.5522890000000 1.0
C      1  0.5547460000000  0.4963730000000  0.5081100000000 1.0
C      1  0.5000020000000  0.4805740000000  0.5141190000000 1.0
C      1  0.4410270000000  0.5016220000000  0.5079390000000 1.0
C      1  0.4874150000000  0.4906890000000  0.4855210000000 1.0
C      1  0.4806580000000  0.4607440000000  0.5266140000000 1.0
C      1  0.4622580000000  0.4476070000000  0.4817610000000 1.0
C      1  0.5547600000000  0.4586600000000  0.4729130000000 1.0
C      1  0.5083750000000  0.4383310000000  0.4945500000000 1.0
C      1  0.5277170000000  0.4880770000000  0.4440760000000 1.0
C      1  0.5457260000000  0.4708750000000  0.4969330000000 1.0
C      1  0.5218760000000  0.4603460000000  0.5096460000000 1.0
C      1  0.5223890000000  0.5492300000000  0.4666360000000 1.0
C      1  0.5170150000000  0.5129350000000  0.5768270000000 1.0
C      1  0.5354730000000  0.5203930000000  0.4647400000000 1.0
C      1  0.5411670000000  0.5065340000000  0.5336690000000 1.0
C      1  0.4808210000000  0.5517160000000  0.5206030000000 1.0
C      1  0.4818530000000  0.4655870000000  0.4672160000000 1.0
C      1  0.5212290000000  0.5488590000000  0.5444980000000 1.0
C      1  0.5498040000000  0.5443740000000  0.5055730000000 1.0
C      1  0.4267960000000  0.4801550000000  0.4970590000000 1.0
C      1  0.5260040000000  0.5608980000000  0.4963110000000 1.0
C      1  0.5024540000000  0.4892260000000  0.4270950000000 1.0
C      1  0.4753630000000  0.4745240000000  0.4387440000000 1.0
C      1  0.4708840000000  0.5419070000000  0.5462850000000 1.0
C      1  0.5461400000000  0.5365190000000  0.5338550000000 1.0
C      1  0.4509580000000  0.5116720000000  0.4633320000000 1.0
C      1  0.4775800000000  0.5378760000000  0.4949140000000 1.0
C      1  0.5474430000000  0.4961470000000  0.5609910000000 1.0
C      1  0.4945410000000  0.5508450000000  0.4751950000000 1.0
C      1  0.5321210000000  0.4614100000000  0.4559680000000 1.0
C      1  0.4631090000000  0.5110760000000  0.4891210000000 1.0
C      1  0.4368210000000  0.4571480000000  0.4877320000000 1.0
C      1  0.4624860000000  0.5033750000000  0.4393870000000 1.0
C      1  0.5070770000000  0.4488120000000  0.4663970000000 1.0
C      1  0.4482840000000  0.4960320000000  0.5355370000000 1.0
C      1  0.5079450000000  0.5637510000000  0.5222210000000 1.0
C      1  0.4614530000000  0.5165070000000  0.5486020000000 1.0
C      1  0.4793810000000  0.4390440000000  0.5053530000000 1.0
C      1  0.5540470000000  0.5195930000000  0.4894330000000 1.0
C      1  0.5043420000000  0.5092280000000  0.4659190000000 1.0
C      1  0.5111600000000  0.5033540000000  0.5309960000000 1.0
END
