TITL C-951334-9093-529 2.48342766309852e-06 125000 -482.325201330603 0 0 79 (C1) n - 1
REM
REM in /home/bkarasulu/work/CARBON/AIRSS/Generating-Clusters/EDIP-Nigel-Params/with-SteepDescent/Only-C1/SD-CG/HFTN-CG
REM
REM
REM
REM
REM
REM ./C.cell (11c1c37f851c82e70ff6c80c92926a4b)
REM
REM compiler GCC version 9.2.1 20190827 (Red Hat 9.2.1-1)
REM options -cpp -mtune=generic -march=x86-64 -g -O0 -fpre-include=/usr/include/finclude/math-vector-fortran.h
REM seed -1620571250 -1144822386 1862729514 1676057081 2004653562 737767610 309313460 10876601 182418516 1246606792 -313146614 450511533 -1846202046 -1560040632 903944761 -1019432369 -448674759 1724465761 2059543357 1086500697 1783321300 1437729936 -1025554081 1696982480 -1151852868 308888985 404343547 1423705853 -1793663576 588941543 937725401 1297916740 622938825
REM
CELL 1.54180   50.00000   50.00000   50.00000   90.00000   90.00000   90.00000
LATT -1
SFAC C  
C      1  0.5457870000000  0.5380340000000  0.5237820000000 1.0
C      1  0.5362070000000  0.5139540000000  0.5688050000000 1.0
C      1  0.5073630000000  0.5691580000000  0.5347150000000 1.0
C      1  0.5346280000000  0.5126920000000  0.5123580000000 1.0
C      1  0.5693610000000  0.5459790000000  0.5060890000000 1.0
C      1  0.4947540000000  0.5162640000000  0.5468940000000 1.0
C      1  0.4224220000000  0.4909500000000  0.4696350000000 1.0
C      1  0.4649970000000  0.5173120000000  0.4923260000000 1.0
C      1  0.4550550000000  0.5577800000000  0.5340050000000 1.0
C      1  0.5447840000000  0.4517250000000  0.4451200000000 1.0
C      1  0.5142500000000  0.4852180000000  0.4819380000000 1.0
C      1  0.5284450000000  0.5642910000000  0.4882500000000 1.0
C      1  0.5170410000000  0.4482380000000  0.4502560000000 1.0
C      1  0.5614980000000  0.4492980000000  0.4862330000000 1.0
C      1  0.4197470000000  0.4980670000000  0.5205940000000 1.0
C      1  0.4677380000000  0.5429780000000  0.5559090000000 1.0
C      1  0.4662860000000  0.5743400000000  0.4921060000000 1.0
C      1  0.5474660000000  0.5256610000000  0.4640040000000 1.0
C      1  0.5140140000000  0.5610660000000  0.4465990000000 1.0
C      1  0.5233090000000  0.5615960000000  0.5606770000000 1.0
C      1  0.5767610000000  0.4988520000000  0.4915460000000 1.0
C      1  0.5257880000000  0.4448090000000  0.5149750000000 1.0
C      1  0.4430620000000  0.4731460000000  0.5574050000000 1.0
C      1  0.5257190000000  0.4192880000000  0.5009850000000 1.0
C      1  0.5107270000000  0.4912030000000  0.4315000000000 1.0
C      1  0.4955480000000  0.5412360000000  0.5282020000000 1.0
C      1  0.5550090000000  0.4902400000000  0.5097140000000 1.0
C      1  0.5446030000000  0.5403100000000  0.5543580000000 1.0
C      1  0.5675530000000  0.4931420000000  0.4647580000000 1.0
C      1  0.4724400000000  0.5767340000000  0.5207120000000 1.0
C      1  0.5279460000000  0.4607510000000  0.5623950000000 1.0
C      1  0.4847630000000  0.5409220000000  0.4994480000000 1.0
C      1  0.4309180000000  0.4959410000000  0.5473670000000 1.0
C      1  0.4294180000000  0.4656020000000  0.4767790000000 1.0
C      1  0.5015560000000  0.4151400000000  0.4873330000000 1.0
C      1  0.4691240000000  0.4933310000000  0.5082580000000 1.0
C      1  0.4958490000000  0.4284120000000  0.4593290000000 1.0
C      1  0.4863270000000  0.5630860000000  0.4494570000000 1.0
C      1  0.5626020000000  0.4828090000000  0.5371870000000 1.0
C      1  0.5548860000000  0.5518760000000  0.4807880000000 1.0
C      1  0.5853190000000  0.5243660000000  0.4980240000000 1.0
C      1  0.5690950000000  0.4541450000000  0.5346080000000 1.0
C      1  0.4521410000000  0.5232040000000  0.4333060000000 1.0
C      1  0.4230450000000  0.5231560000000  0.5045570000000 1.0
C      1  0.4964910000000  0.4818830000000  0.5092160000000 1.0
C      1  0.4775240000000  0.5585270000000  0.5773870000000 1.0
C      1  0.4747030000000  0.4747770000000  0.4547670000000 1.0
C      1  0.5390800000000  0.4666070000000  0.4962870000000 1.0
C      1  0.4792380000000  0.5203030000000  0.4217070000000 1.0
C      1  0.4248140000000  0.5184090000000  0.4756060000000 1.0
C      1  0.4637000000000  0.5606330000000  0.4660690000000 1.0
C      1  0.5048320000000  0.4742430000000  0.4546920000000 1.0
C      1  0.4439560000000  0.4414120000000  0.4736840000000 1.0
C      1  0.4823970000000  0.4367840000000  0.4950950000000 1.0
C      1  0.5135380000000  0.4981100000000  0.5304460000000 1.0
C      1  0.4687310000000  0.5063170000000  0.4620820000000 1.0
C      1  0.4668370000000  0.4713130000000  0.4267100000000 1.0
C      1  0.4549660000000  0.4506690000000  0.5455410000000 1.0
C      1  0.5078250000000  0.5208020000000  0.5739080000000 1.0
C      1  0.5256070000000  0.5759090000000  0.5137320000000 1.0
C      1  0.4409250000000  0.4420820000000  0.5216670000000 1.0
C      1  0.5276310000000  0.5357310000000  0.4415200000000 1.0
C      1  0.4842570000000  0.4495370000000  0.5440050000000 1.0
C      1  0.4672090000000  0.4439480000000  0.4545580000000 1.0
C      1  0.5042860000000  0.5496870000000  0.5802020000000 1.0
C      1  0.5795440000000  0.4480970000000  0.5083720000000 1.0
C      1  0.5006720000000  0.4556940000000  0.5655130000000 1.0
C      1  0.4444700000000  0.5370370000000  0.4590710000000 1.0
C      1  0.4430960000000  0.5410980000000  0.5141060000000 1.0
C      1  0.4536040000000  0.4298490000000  0.4989260000000 1.0
C      1  0.4434820000000  0.4792930000000  0.5142050000000 1.0
C      1  0.5244710000000  0.5160530000000  0.4831190000000 1.0
C      1  0.5653770000000  0.4636820000000  0.4605250000000 1.0
C      1  0.4851610000000  0.4896320000000  0.4132840000000 1.0
C      1  0.5080810000000  0.5426740000000  0.4804490000000 1.0
C      1  0.5361920000000  0.4878220000000  0.5516020000000 1.0
C      1  0.4962600000000  0.4527530000000  0.5170340000000 1.0
C      1  0.5413260000000  0.4438940000000  0.5413010000000 1.0
C      1  0.5043650000000  0.5184340000000  0.4403250000000 1.0
END
