TITL C-951337-3020-586 -1.0152729688237e-06 125000 -229.806982908004 0 0 39 (C1) n - 1
REM
REM in /home/bkarasulu/work/CARBON/AIRSS/Generating-Clusters/EDIP-Nigel-Params/with-SteepDescent/Only-C1/SD-CG/HFTN-CG
REM
REM
REM
REM
REM
REM ./C.cell (11c1c37f851c82e70ff6c80c92926a4b)
REM
REM compiler GCC version 9.2.1 20190827 (Red Hat 9.2.1-1)
REM options -cpp -mtune=generic -march=x86-64 -g -O0 -fpre-include=/usr/include/finclude/math-vector-fortran.h
REM seed 89544723 526540481 972458773 -1824211546 1459727441 -1405868272 1750380247 225667277 -25114726 1317630702 -2057615821 -1325688586 -238514935 323120148 -1297920423 -1055847401 -1521836141 765793005 1925758976 1087494508 1277138577 613488868 -941229938 625056014 907774686 1828143973 565371818 1827867706 1849392961 2115793694 -1241822869 -1889866672 -1194820758
REM
CELL 1.54180   50.00000   50.00000   50.00000   90.00000   90.00000   90.00000
LATT -1
SFAC C  
C      1  0.5436750000000  0.5148830000000  0.5161130000000 1.0
C      1  0.4881840000000  0.4996300000000  0.4371070000000 1.0
C      1  0.5065530000000  0.5468630000000  0.5103810000000 1.0
C      1  0.5350520000000  0.5371550000000  0.4740670000000 1.0
C      1  0.5012010000000  0.4745310000000  0.4423200000000 1.0
C      1  0.5422090000000  0.4441900000000  0.5008030000000 1.0
C      1  0.5183770000000  0.4575210000000  0.5568470000000 1.0
C      1  0.4997230000000  0.5189120000000  0.4573220000000 1.0
C      1  0.4392150000000  0.5409780000000  0.4734120000000 1.0
C      1  0.5620090000000  0.4506770000000  0.5197490000000 1.0
C      1  0.4782830000000  0.4968150000000  0.4999690000000 1.0
C      1  0.5631140000000  0.4954730000000  0.5130530000000 1.0
C      1  0.5611550000000  0.4756840000000  0.5344800000000 1.0
C      1  0.5363380000000  0.4807240000000  0.5507720000000 1.0
C      1  0.5072710000000  0.4442830000000  0.5349660000000 1.0
C      1  0.4516890000000  0.4766490000000  0.4705180000000 1.0
C      1  0.4294430000000  0.4928750000000  0.4774690000000 1.0
C      1  0.4970620000000  0.4553620000000  0.4865970000000 1.0
C      1  0.4606610000000  0.5105230000000  0.5481010000000 1.0
C      1  0.5121400000000  0.5540490000000  0.4650020000000 1.0
C      1  0.4564870000000  0.5178310000000  0.5001220000000 1.0
C      1  0.5595310000000  0.4764850000000  0.4901760000000 1.0
C      1  0.4226480000000  0.5188350000000  0.4737000000000 1.0
C      1  0.4674490000000  0.5387650000000  0.4795120000000 1.0
C      1  0.4503820000000  0.5281570000000  0.5279950000000 1.0
C      1  0.5120100000000  0.4759450000000  0.4696680000000 1.0
C      1  0.4706640000000  0.4690340000000  0.4936120000000 1.0
C      1  0.4637910000000  0.5531840000000  0.5318190000000 1.0
C      1  0.5380560000000  0.5137780000000  0.4570900000000 1.0
C      1  0.5028470000000  0.5028750000000  0.4839310000000 1.0
C      1  0.5022480000000  0.4763710000000  0.5712560000000 1.0
C      1  0.4908460000000  0.5436930000000  0.5355730000000 1.0
C      1  0.4885710000000  0.5163380000000  0.5468840000000 1.0
C      1  0.4639070000000  0.4850770000000  0.4451730000000 1.0
C      1  0.5145960000000  0.4460760000000  0.5080430000000 1.0
C      1  0.5408830000000  0.4858510000000  0.4676470000000 1.0
C      1  0.4911750000000  0.5562370000000  0.4859000000000 1.0
C      1  0.5073610000000  0.5032220000000  0.5639270000000 1.0
C      1  0.5231950000000  0.5244690000000  0.4989230000000 1.0
END
