TITL C-950532-2784-427 0.000130891015955852 125000 -790.569742710416 0 0 130 (C1) n - 1
REM
REM in /home/bkarasulu/work/CARBON/AIRSS/Generating-Clusters/EDIP-Nigel-Params/with-SteepDescent/Only-C1/SD-CG/HFTN-CG
REM
REM
REM
REM
REM
REM ./C.cell (11c1c37f851c82e70ff6c80c92926a4b)
REM
REM compiler GCC version 9.2.1 20190827 (Red Hat 9.2.1-1)
REM options -cpp -mtune=generic -march=x86-64 -g -O0 -fpre-include=/usr/include/finclude/math-vector-fortran.h
REM seed 74840811 1186445165 237121162 -1327375801 -1103732226 1693914414 1513165197 -406425739 -379935625 369453053 -1173554676 747028733 529541951 1050683118 -614335897 884155058 -1399507083 1823052318 811151806 909030469 -183486350 -1520851430 -805798581 -1121982840 1798446122 -2128948285 -1635672267 -1249953819 -189228772 -1914238513 2094549959 -1696139695 1120008364
REM
CELL 1.54180   50.00000   50.00000   50.00000   90.00000   90.00000   90.00000
LATT -1
SFAC C  
C      1  0.4898980000000  0.5418190000000  0.5073940000000 1.0
C      1  0.4129960000000  0.4429540000000  0.4851500000000 1.0
C      1  0.4471300000000  0.5416190000000  0.4236050000000 1.0
C      1  0.5044850000000  0.5156010000000  0.5642360000000 1.0
C      1  0.5408440000000  0.4264710000000  0.4535730000000 1.0
C      1  0.5789200000000  0.5122890000000  0.4227290000000 1.0
C      1  0.5539180000000  0.4702970000000  0.5010870000000 1.0
C      1  0.5158930000000  0.5016950000000  0.4010450000000 1.0
C      1  0.5708780000000  0.4297040000000  0.5263170000000 1.0
C      1  0.5017550000000  0.4901950000000  0.6086290000000 1.0
C      1  0.4470070000000  0.4701000000000  0.5345010000000 1.0
C      1  0.5809360000000  0.4577620000000  0.4935860000000 1.0
C      1  0.4866790000000  0.5690780000000  0.5227980000000 1.0
C      1  0.4684460000000  0.4122360000000  0.5265420000000 1.0
C      1  0.4911810000000  0.4307880000000  0.5711320000000 1.0
C      1  0.5318590000000  0.5340170000000  0.5353460000000 1.0
C      1  0.4735610000000  0.4965510000000  0.6080940000000 1.0
C      1  0.4934620000000  0.5346440000000  0.5837170000000 1.0
C      1  0.5430310000000  0.4274530000000  0.4821560000000 1.0
C      1  0.5182670000000  0.4800000000000  0.5312870000000 1.0
C      1  0.5266060000000  0.4643510000000  0.5732590000000 1.0
C      1  0.6044810000000  0.4884910000000  0.5311060000000 1.0
C      1  0.4755960000000  0.4561760000000  0.4987730000000 1.0
C      1  0.5635600000000  0.5544570000000  0.4474830000000 1.0
C      1  0.4904510000000  0.5387090000000  0.4281040000000 1.0
C      1  0.4729510000000  0.5316910000000  0.4806790000000 1.0
C      1  0.4198700000000  0.4570160000000  0.5323740000000 1.0
C      1  0.4978580000000  0.4672480000000  0.5475580000000 1.0
C      1  0.4558270000000  0.5657170000000  0.4349470000000 1.0
C      1  0.4595880000000  0.5157430000000  0.5372810000000 1.0
C      1  0.5737590000000  0.5816460000000  0.4918840000000 1.0
C      1  0.5546310000000  0.4964720000000  0.4856950000000 1.0
C      1  0.4897330000000  0.5101110000000  0.4152850000000 1.0
C      1  0.5289170000000  0.5855690000000  0.5119190000000 1.0
C      1  0.4446310000000  0.4919910000000  0.4895710000000 1.0
C      1  0.4703960000000  0.5701830000000  0.5474070000000 1.0
C      1  0.4984530000000  0.4045480000000  0.4857560000000 1.0
C      1  0.4417760000000  0.4961410000000  0.5211620000000 1.0
C      1  0.5901990000000  0.5050920000000  0.5533910000000 1.0
C      1  0.5466130000000  0.4407060000000  0.5375950000000 1.0
C      1  0.5041350000000  0.4800250000000  0.4495980000000 1.0
C      1  0.6013860000000  0.5100970000000  0.5107250000000 1.0
C      1  0.4528480000000  0.5665280000000  0.4635730000000 1.0
C      1  0.4437560000000  0.5639190000000  0.5396790000000 1.0
C      1  0.5372510000000  0.4375250000000  0.5650250000000 1.0
C      1  0.5562800000000  0.5266320000000  0.5172410000000 1.0
C      1  0.5167640000000  0.4189810000000  0.5696900000000 1.0
C      1  0.4900360000000  0.4880330000000  0.5683220000000 1.0
C      1  0.4724850000000  0.4551250000000  0.5306460000000 1.0
C      1  0.5722040000000  0.4291240000000  0.4964110000000 1.0
C      1  0.5116150000000  0.4708010000000  0.4769740000000 1.0
C      1  0.5100840000000  0.5870050000000  0.4878740000000 1.0
C      1  0.5364140000000  0.5197360000000  0.4427700000000 1.0
C      1  0.5133230000000  0.5630670000000  0.4661830000000 1.0
C      1  0.4074900000000  0.4643600000000  0.5040840000000 1.0
C      1  0.4550100000000  0.5059590000000  0.5669790000000 1.0
C      1  0.5065240000000  0.4986730000000  0.5125230000000 1.0
C      1  0.4945640000000  0.5625780000000  0.5748970000000 1.0
C      1  0.5254730000000  0.4061430000000  0.4933000000000 1.0
C      1  0.4323290000000  0.4209750000000  0.4874330000000 1.0
C      1  0.5193640000000  0.4656020000000  0.4266180000000 1.0
C      1  0.4240190000000  0.5042480000000  0.4451400000000 1.0
C      1  0.4314630000000  0.5390610000000  0.5510530000000 1.0
C      1  0.5462420000000  0.4694940000000  0.5299050000000 1.0
C      1  0.4060180000000  0.5297930000000  0.5384590000000 1.0
C      1  0.5662610000000  0.5598490000000  0.5397080000000 1.0
C      1  0.5225480000000  0.5452360000000  0.4951780000000 1.0
C      1  0.4903530000000  0.5199750000000  0.5282660000000 1.0
C      1  0.4634740000000  0.4960920000000  0.4177540000000 1.0
C      1  0.4091810000000  0.4840360000000  0.5562740000000 1.0
C      1  0.5008060000000  0.4657080000000  0.4032820000000 1.0
C      1  0.5259900000000  0.5347500000000  0.4195410000000 1.0
C      1  0.4927340000000  0.4311650000000  0.4362570000000 1.0
C      1  0.5841010000000  0.4642090000000  0.5371580000000 1.0
C      1  0.5228940000000  0.4357530000000  0.4339970000000 1.0
C      1  0.4598730000000  0.4665080000000  0.4261940000000 1.0
C      1  0.4426250000000  0.4206570000000  0.5154400000000 1.0
C      1  0.4221270000000  0.5026610000000  0.4733070000000 1.0
C      1  0.5895700000000  0.5473670000000  0.4826610000000 1.0
C      1  0.5150070000000  0.5693860000000  0.5315590000000 1.0
C      1  0.5139750000000  0.5119090000000  0.4601370000000 1.0
C      1  0.5618180000000  0.4837770000000  0.4586120000000 1.0
C      1  0.4232980000000  0.4281020000000  0.5348370000000 1.0
C      1  0.4775810000000  0.4369100000000  0.4645870000000 1.0
C      1  0.5835660000000  0.5278120000000  0.5313380000000 1.0
C      1  0.4423310000000  0.5659690000000  0.5105740000000 1.0
C      1  0.3992800000000  0.4914910000000  0.4886690000000 1.0
C      1  0.5731970000000  0.4820250000000  0.5616690000000 1.0
C      1  0.5256300000000  0.5119340000000  0.4887660000000 1.0
C      1  0.5555860000000  0.4994060000000  0.4341210000000 1.0
C      1  0.4863800000000  0.4510330000000  0.5923250000000 1.0
C      1  0.4426150000000  0.5140460000000  0.4266910000000 1.0
C      1  0.5860800000000  0.4691770000000  0.4666740000000 1.0
C      1  0.5602270000000  0.5395010000000  0.4890550000000 1.0
C      1  0.5111100000000  0.4648280000000  0.5993250000000 1.0
C      1  0.4493910000000  0.4244950000000  0.4622860000000 1.0
C      1  0.4802170000000  0.4480750000000  0.4139200000000 1.0
C      1  0.4007600000000  0.5377650000000  0.5103370000000 1.0
C      1  0.4268870000000  0.5454670000000  0.4984100000000 1.0
C      1  0.4902250000000  0.4826300000000  0.4936790000000 1.0
C      1  0.4467970000000  0.4624060000000  0.4846250000000 1.0
C      1  0.5548730000000  0.5706010000000  0.5117840000000 1.0
C      1  0.4679450000000  0.5209970000000  0.5910110000000 1.0
C      1  0.4826630000000  0.5951620000000  0.4951730000000 1.0
C      1  0.4375870000000  0.5440720000000  0.4719150000000 1.0
C      1  0.4251270000000  0.5051350000000  0.5697560000000 1.0
C      1  0.4748510000000  0.4683650000000  0.4528500000000 1.0
C      1  0.3865150000000  0.5140210000000  0.5011700000000 1.0
C      1  0.5929240000000  0.5033640000000  0.4824390000000 1.0
C      1  0.4970720000000  0.5678830000000  0.4193090000000 1.0
C      1  0.4736850000000  0.5831330000000  0.4220610000000 1.0
C      1  0.4933780000000  0.4122400000000  0.5119400000000 1.0
C      1  0.5394830000000  0.4844000000000  0.4140260000000 1.0
C      1  0.5836260000000  0.5334940000000  0.4408850000000 1.0
C      1  0.5196150000000  0.5718400000000  0.5615440000000 1.0
C      1  0.4386560000000  0.4511050000000  0.4505720000000 1.0
C      1  0.5196620000000  0.5747450000000  0.4373880000000 1.0
C      1  0.5456180000000  0.4876660000000  0.5700240000000 1.0
C      1  0.5726140000000  0.5768220000000  0.4636740000000 1.0
C      1  0.4949820000000  0.5365780000000  0.4588510000000 1.0
C      1  0.5998130000000  0.5265740000000  0.4643840000000 1.0
C      1  0.4699840000000  0.4236560000000  0.5529850000000 1.0
C      1  0.4655940000000  0.4721080000000  0.5932990000000 1.0
C      1  0.4593380000000  0.5787460000000  0.4896540000000 1.0
C      1  0.5438450000000  0.5526560000000  0.5605510000000 1.0
C      1  0.5323360000000  0.4542190000000  0.4897050000000 1.0
C      1  0.5429950000000  0.5603130000000  0.4268910000000 1.0
C      1  0.4114600000000  0.5000640000000  0.5302810000000 1.0
C      1  0.5345410000000  0.5151930000000  0.5685500000000 1.0
C      1  0.4706000000000  0.5019250000000  0.4808630000000 1.0
END
