TITL C-951337-3020-566 -3.60326408051175e-07 125000 -1031.02093861037 0 0 163 (C1) n - 1
REM
REM in /home/bkarasulu/work/CARBON/AIRSS/Generating-Clusters/EDIP-Nigel-Params/with-SteepDescent/Only-C1/SD-CG/HFTN-CG
REM
REM
REM
REM
REM
REM ./C.cell (11c1c37f851c82e70ff6c80c92926a4b)
REM
REM compiler GCC version 9.2.1 20190827 (Red Hat 9.2.1-1)
REM options -cpp -mtune=generic -march=x86-64 -g -O0 -fpre-include=/usr/include/finclude/math-vector-fortran.h
REM seed 1500231192 -1529032052 -1170577087 -1429518399 1794442501 -57034811 75864816 518881578 1361655471 1155179543 -1708201848 40312984 1907195202 436398025 391408926 -474875270 781109995 -2122502317 1105641439 27575857 -73825922 286663022 265293184 296103696 1753567223 -1755664024 72415364 890869530 -1148826692 -246085307 1757512993 -1568018464 -1958925252
REM
CELL 1.54180   50.00000   50.00000   50.00000   90.00000   90.00000   90.00000
LATT -1
SFAC C  
C      1  0.5376340000000  0.5738970000000  0.4243880000000 1.0
C      1  0.4830440000000  0.4359430000000  0.5169650000000 1.0
C      1  0.4522420000000  0.4425060000000  0.4336870000000 1.0
C      1  0.4274400000000  0.4981700000000  0.5718930000000 1.0
C      1  0.5080230000000  0.5942750000000  0.4774480000000 1.0
C      1  0.5152950000000  0.5422430000000  0.5764710000000 1.0
C      1  0.4037760000000  0.5449330000000  0.4970810000000 1.0
C      1  0.5117900000000  0.4878690000000  0.4696770000000 1.0
C      1  0.5499030000000  0.5768510000000  0.4496500000000 1.0
C      1  0.5112330000000  0.5444770000000  0.4974740000000 1.0
C      1  0.4561680000000  0.5548090000000  0.4049940000000 1.0
C      1  0.4932700000000  0.4999310000000  0.4496520000000 1.0
C      1  0.5035850000000  0.5565620000000  0.5251070000000 1.0
C      1  0.5490280000000  0.4322610000000  0.5604020000000 1.0
C      1  0.5469590000000  0.5595470000000  0.5459500000000 1.0
C      1  0.5318640000000  0.4232730000000  0.5359310000000 1.0
C      1  0.5934970000000  0.5084520000000  0.4726610000000 1.0
C      1  0.5478910000000  0.5045610000000  0.5383700000000 1.0
C      1  0.4968000000000  0.4426430000000  0.4107020000000 1.0
C      1  0.4639480000000  0.5363320000000  0.5602460000000 1.0
C      1  0.4527190000000  0.5280300000000  0.4115590000000 1.0
C      1  0.4514320000000  0.5439100000000  0.5107510000000 1.0
C      1  0.5983190000000  0.4881350000000  0.5593610000000 1.0
C      1  0.4684440000000  0.4981130000000  0.6027910000000 1.0
C      1  0.5754740000000  0.4725840000000  0.5252040000000 1.0
C      1  0.5130240000000  0.4588780000000  0.4646920000000 1.0
C      1  0.4458300000000  0.4966570000000  0.4499780000000 1.0
C      1  0.4736770000000  0.5473740000000  0.6024100000000 1.0
C      1  0.5345710000000  0.5271260000000  0.4531190000000 1.0
C      1  0.4754350000000  0.4842380000000  0.5087230000000 1.0
C      1  0.5515470000000  0.5288390000000  0.4264040000000 1.0
C      1  0.4577700000000  0.5063130000000  0.3946460000000 1.0
C      1  0.5382280000000  0.5003790000000  0.4651430000000 1.0
C      1  0.5868370000000  0.5254180000000  0.5218870000000 1.0
C      1  0.4498760000000  0.4187760000000  0.4787750000000 1.0
C      1  0.6081680000000  0.4683980000000  0.4957000000000 1.0
C      1  0.4199960000000  0.5211320000000  0.5530550000000 1.0
C      1  0.4620220000000  0.5271560000000  0.4871500000000 1.0
C      1  0.5322650000000  0.5978550000000  0.5170770000000 1.0
C      1  0.4291870000000  0.5832460000000  0.5257520000000 1.0
C      1  0.5155780000000  0.4638620000000  0.5503450000000 1.0
C      1  0.4432240000000  0.4977410000000  0.4810380000000 1.0
C      1  0.5933220000000  0.5166490000000  0.4440650000000 1.0
C      1  0.4780700000000  0.4306920000000  0.4288850000000 1.0
C      1  0.4983310000000  0.4063850000000  0.5728190000000 1.0
C      1  0.4375720000000  0.5622910000000  0.4546890000000 1.0
C      1  0.5735810000000  0.4972630000000  0.5734670000000 1.0
C      1  0.4722970000000  0.5642760000000  0.5229230000000 1.0
C      1  0.5392030000000  0.4804440000000  0.4096610000000 1.0
C      1  0.5617680000000  0.4770100000000  0.5904800000000 1.0
C      1  0.4864440000000  0.5214570000000  0.6101980000000 1.0
C      1  0.4615420000000  0.3959150000000  0.5408940000000 1.0
C      1  0.4561010000000  0.5218460000000  0.4393940000000 1.0
C      1  0.5307740000000  0.4069840000000  0.4201040000000 1.0
C      1  0.5004020000000  0.5970790000000  0.5507300000000 1.0
C      1  0.5338970000000  0.4705670000000  0.5943100000000 1.0
C      1  0.4782920000000  0.4282540000000  0.4843170000000 1.0
C      1  0.3944570000000  0.4832380000000  0.5327540000000 1.0
C      1  0.4204310000000  0.5498160000000  0.5666500000000 1.0
C      1  0.5679560000000  0.4560890000000  0.5589410000000 1.0
C      1  0.5216190000000  0.4092760000000  0.4937790000000 1.0
C      1  0.5491100000000  0.5863060000000  0.4972020000000 1.0
C      1  0.4851930000000  0.4498450000000  0.4617340000000 1.0
C      1  0.5218920000000  0.5792830000000  0.5372710000000 1.0
C      1  0.5827310000000  0.5551920000000  0.4836930000000 1.0
C      1  0.4370690000000  0.4351030000000  0.4574150000000 1.0
C      1  0.4609130000000  0.5933990000000  0.4833360000000 1.0
C      1  0.5081480000000  0.4041670000000  0.4516420000000 1.0
C      1  0.4436910000000  0.4767350000000  0.5466740000000 1.0
C      1  0.4125760000000  0.5502320000000  0.4502600000000 1.0
C      1  0.5988110000000  0.4568880000000  0.5595100000000 1.0
C      1  0.5585620000000  0.5014160000000  0.4145290000000 1.0
C      1  0.4243560000000  0.4849030000000  0.4313200000000 1.0
C      1  0.5290330000000  0.4465390000000  0.4850850000000 1.0
C      1  0.4617880000000  0.5764900000000  0.4201650000000 1.0
C      1  0.5095860000000  0.4041730000000  0.5447470000000 1.0
C      1  0.6191300000000  0.4884330000000  0.5129470000000 1.0
C      1  0.5083740000000  0.5138440000000  0.3945400000000 1.0
C      1  0.5358660000000  0.5493940000000  0.4104270000000 1.0
C      1  0.5963970000000  0.4961720000000  0.5297210000000 1.0
C      1  0.5910340000000  0.4788310000000  0.4742690000000 1.0
C      1  0.5843340000000  0.4692210000000  0.4458450000000 1.0
C      1  0.5451580000000  0.5471320000000  0.5728490000000 1.0
C      1  0.4321110000000  0.4227460000000  0.5027770000000 1.0
C      1  0.5443040000000  0.5347950000000  0.4902490000000 1.0
C      1  0.4101240000000  0.5198260000000  0.5095910000000 1.0
C      1  0.5018720000000  0.5642550000000  0.4784760000000 1.0
C      1  0.3991330000000  0.5355110000000  0.4694740000000 1.0
C      1  0.4432920000000  0.4519370000000  0.5072910000000 1.0
C      1  0.5510850000000  0.4857780000000  0.5124120000000 1.0
C      1  0.4599970000000  0.4960250000000  0.5331450000000 1.0
C      1  0.5618740000000  0.5232880000000  0.5698630000000 1.0
C      1  0.5734700000000  0.5717650000000  0.5048250000000 1.0
C      1  0.4147490000000  0.4519050000000  0.4665560000000 1.0
C      1  0.5140180000000  0.4867940000000  0.3966800000000 1.0
C      1  0.4981080000000  0.4062200000000  0.4782030000000 1.0
C      1  0.4820560000000  0.5819170000000  0.5684370000000 1.0
C      1  0.6099100000000  0.4439820000000  0.5366850000000 1.0
C      1  0.4359590000000  0.4099780000000  0.5322620000000 1.0
C      1  0.5764980000000  0.5397950000000  0.4373590000000 1.0
C      1  0.5835020000000  0.4933680000000  0.4284770000000 1.0
C      1  0.5126760000000  0.5193960000000  0.5962460000000 1.0
C      1  0.4830600000000  0.5791950000000  0.4382120000000 1.0
C      1  0.4917260000000  0.5226330000000  0.4933480000000 1.0
C      1  0.5259300000000  0.4486960000000  0.5739560000000 1.0
C      1  0.5575290000000  0.5041900000000  0.4873350000000 1.0
C      1  0.4055180000000  0.4742350000000  0.5082820000000 1.0
C      1  0.5135710000000  0.4478260000000  0.5266870000000 1.0
C      1  0.4279960000000  0.5632270000000  0.5024110000000 1.0
C      1  0.5925900000000  0.5299510000000  0.4936700000000 1.0
C      1  0.3981910000000  0.5115110000000  0.5345050000000 1.0
C      1  0.4705310000000  0.4784400000000  0.4515040000000 1.0
C      1  0.4437420000000  0.4656720000000  0.4180770000000 1.0
C      1  0.3952730000000  0.4986010000000  0.4672260000000 1.0
C      1  0.4458640000000  0.5240500000000  0.5355900000000 1.0
C      1  0.4628450000000  0.5924800000000  0.5140990000000 1.0
C      1  0.4558040000000  0.4293060000000  0.5749620000000 1.0
C      1  0.4592350000000  0.4717820000000  0.4884810000000 1.0
C      1  0.4040030000000  0.4749140000000  0.4505980000000 1.0
C      1  0.5437890000000  0.5331280000000  0.5248500000000 1.0
C      1  0.5029590000000  0.5086270000000  0.5407100000000 1.0
C      1  0.4952620000000  0.5638220000000  0.5882790000000 1.0
C      1  0.4061770000000  0.4473620000000  0.4948200000000 1.0
C      1  0.4528760000000  0.4517250000000  0.5356560000000 1.0
C      1  0.4376620000000  0.4328130000000  0.5513820000000 1.0
C      1  0.4857350000000  0.4068620000000  0.5267910000000 1.0
C      1  0.4424150000000  0.5100480000000  0.5940560000000 1.0
C      1  0.5624400000000  0.4233450000000  0.4560780000000 1.0
C      1  0.4779060000000  0.4502600000000  0.5792460000000 1.0
C      1  0.5388990000000  0.5937000000000  0.4704130000000 1.0
C      1  0.5229430000000  0.4929620000000  0.5531970000000 1.0
C      1  0.5097830000000  0.5356020000000  0.4118870000000 1.0
C      1  0.5250800000000  0.4336490000000  0.4109670000000 1.0
C      1  0.4864990000000  0.6084190000000  0.5254700000000 1.0
C      1  0.5572060000000  0.4428700000000  0.4788130000000 1.0
C      1  0.5010140000000  0.4952830000000  0.4991930000000 1.0
C      1  0.4352480000000  0.5728840000000  0.5530230000000 1.0
C      1  0.5671550000000  0.4212760000000  0.4945320000000 1.0
C      1  0.5674200000000  0.4465280000000  0.4358930000000 1.0
C      1  0.4818850000000  0.5997120000000  0.4608590000000 1.0
C      1  0.4882990000000  0.5540020000000  0.4542280000000 1.0
C      1  0.5450260000000  0.4106120000000  0.5107310000000 1.0
C      1  0.5464230000000  0.4531360000000  0.4157140000000 1.0
C      1  0.4914190000000  0.4697640000000  0.4025120000000 1.0
C      1  0.5052610000000  0.5292540000000  0.4416770000000 1.0
C      1  0.4640600000000  0.5649640000000  0.5516420000000 1.0
C      1  0.5147130000000  0.4923610000000  0.5844510000000 1.0
C      1  0.5675450000000  0.5559150000000  0.4592940000000 1.0
C      1  0.5060750000000  0.5362530000000  0.5473240000000 1.0
C      1  0.5757760000000  0.5548870000000  0.5296220000000 1.0
C      1  0.5259390000000  0.4668130000000  0.5066980000000 1.0
C      1  0.5081580000000  0.6089390000000  0.5048330000000 1.0
C      1  0.4791110000000  0.5019180000000  0.5548970000000 1.0
C      1  0.4638480000000  0.4795580000000  0.4013840000000 1.0
C      1  0.4363690000000  0.5789600000000  0.4779100000000 1.0
C      1  0.4131470000000  0.4970680000000  0.4911060000000 1.0
C      1  0.5019890000000  0.4339970000000  0.5839040000000 1.0
C      1  0.5939660000000  0.4503300000000  0.5139070000000 1.0
C      1  0.4603620000000  0.5425610000000  0.4596980000000 1.0
C      1  0.4833160000000  0.4829730000000  0.5811400000000 1.0
C      1  0.5377440000000  0.4054510000000  0.4480530000000 1.0
C      1  0.4480290000000  0.5383120000000  0.5863520000000 1.0
C      1  0.4681040000000  0.4021790000000  0.5703040000000 1.0
END
