TITL C-950526-5686-13 -1.53933589276396e-07 125000 -580.115267475591 0 0 95 (C1) n - 1
REM
REM in /home/bkarasulu/work/CARBON/AIRSS/Generating-Clusters/EDIP-Nigel-Params/with-SteepDescent/Only-C1/SD-CG/HFTN-CG
REM
REM
REM
REM
REM
REM ./C.cell (11c1c37f851c82e70ff6c80c92926a4b)
REM
REM compiler GCC version 9.2.1 20190827 (Red Hat 9.2.1-1)
REM options -cpp -mtune=generic -march=x86-64 -g -O0 -fpre-include=/usr/include/finclude/math-vector-fortran.h
REM seed -1145526401 -605018470 1527850339 568268612 445440160 1515496474 854042086 1542224961 -1727276339 588220878 -1848373389 1113795899 1784267816 -2069970652 -1816294645 -699513043 1375065139 -131186212 1996825468 -576462399 545313384 -1621292976 -30302723 1320881564 -1662387551 526197573 -2113734345 2036912160 19302661 -617653591 1192077119 -1969590938 -454575342
REM
CELL 1.54180   50.00000   50.00000   50.00000   90.00000   90.00000   90.00000
LATT -1
SFAC C  
C      1  0.5544780000000  0.5069050000000  0.5454160000000 1.0
C      1  0.5733250000000  0.4467570000000  0.4666010000000 1.0
C      1  0.4454580000000  0.5232580000000  0.5604500000000 1.0
C      1  0.4139490000000  0.4807730000000  0.4578490000000 1.0
C      1  0.4445530000000  0.4909310000000  0.5259340000000 1.0
C      1  0.4753270000000  0.5055200000000  0.4226910000000 1.0
C      1  0.5805260000000  0.5325790000000  0.4840600000000 1.0
C      1  0.5661770000000  0.4803180000000  0.5344350000000 1.0
C      1  0.5356220000000  0.5454360000000  0.4675030000000 1.0
C      1  0.5173820000000  0.5893980000000  0.4766270000000 1.0
C      1  0.5697230000000  0.4983210000000  0.4582810000000 1.0
C      1  0.4869780000000  0.4217210000000  0.4659670000000 1.0
C      1  0.4156710000000  0.4513470000000  0.5250010000000 1.0
C      1  0.5325780000000  0.5823360000000  0.5140790000000 1.0
C      1  0.5212810000000  0.4202950000000  0.4990140000000 1.0
C      1  0.4623800000000  0.4537750000000  0.5550880000000 1.0
C      1  0.4684230000000  0.4422840000000  0.4729340000000 1.0
C      1  0.4229410000000  0.4743180000000  0.5398650000000 1.0
C      1  0.4949820000000  0.5043800000000  0.5859950000000 1.0
C      1  0.5226620000000  0.4996900000000  0.4447850000000 1.0
C      1  0.4869030000000  0.4185080000000  0.5356930000000 1.0
C      1  0.5134760000000  0.5479080000000  0.5792330000000 1.0
C      1  0.5488090000000  0.4993800000000  0.4822420000000 1.0
C      1  0.5487230000000  0.4302320000000  0.5086770000000 1.0
C      1  0.5974300000000  0.4893650000000  0.4967240000000 1.0
C      1  0.5429580000000  0.4645190000000  0.5400100000000 1.0
C      1  0.4166200000000  0.5337260000000  0.5223860000000 1.0
C      1  0.5295840000000  0.5087630000000  0.5311770000000 1.0
C      1  0.4601990000000  0.4305460000000  0.5363650000000 1.0
C      1  0.4226080000000  0.5241130000000  0.4747610000000 1.0
C      1  0.5589080000000  0.5558570000000  0.5430110000000 1.0
C      1  0.5380400000000  0.4671020000000  0.4332490000000 1.0
C      1  0.5157550000000  0.5396060000000  0.4226710000000 1.0
C      1  0.4942860000000  0.4632210000000  0.5179240000000 1.0
C      1  0.5355240000000  0.5164890000000  0.4251610000000 1.0
C      1  0.5015950000000  0.5107150000000  0.4910630000000 1.0
C      1  0.4445450000000  0.5642260000000  0.4951630000000 1.0
C      1  0.4816440000000  0.5646850000000  0.5454330000000 1.0
C      1  0.5932400000000  0.5067370000000  0.4750570000000 1.0
C      1  0.5504840000000  0.4460050000000  0.4495500000000 1.0
C      1  0.4566760000000  0.5698080000000  0.4688840000000 1.0
C      1  0.4249180000000  0.5427910000000  0.4972030000000 1.0
C      1  0.4942350000000  0.5575970000000  0.4975550000000 1.0
C      1  0.4737460000000  0.5201180000000  0.4760030000000 1.0
C      1  0.5034030000000  0.5762220000000  0.4542470000000 1.0
C      1  0.4425700000000  0.4804970000000  0.4505540000000 1.0
C      1  0.4530970000000  0.4365460000000  0.5000770000000 1.0
C      1  0.5255040000000  0.5154070000000  0.4708150000000 1.0
C      1  0.5348860000000  0.5301660000000  0.5864800000000 1.0
C      1  0.4879670000000  0.5333660000000  0.5834860000000 1.0
C      1  0.4820840000000  0.4692870000000  0.4756610000000 1.0
C      1  0.5304890000000  0.4459430000000  0.4715490000000 1.0
C      1  0.4150280000000  0.4963180000000  0.4816810000000 1.0
C      1  0.5141170000000  0.4194260000000  0.4696820000000 1.0
C      1  0.5646640000000  0.5426460000000  0.4607050000000 1.0
C      1  0.4746980000000  0.4545380000000  0.4257950000000 1.0
C      1  0.4391250000000  0.5199560000000  0.5323380000000 1.0
C      1  0.5231050000000  0.5060390000000  0.5966410000000 1.0
C      1  0.4305750000000  0.4540690000000  0.5012150000000 1.0
C      1  0.4747760000000  0.4748220000000  0.5382140000000 1.0
C      1  0.5439150000000  0.4364100000000  0.5372590000000 1.0
C      1  0.5196240000000  0.4286740000000  0.5524610000000 1.0
C      1  0.4450320000000  0.4969770000000  0.5721830000000 1.0
C      1  0.5680040000000  0.5310460000000  0.5333000000000 1.0
C      1  0.5225960000000  0.5664930000000  0.4930020000000 1.0
C      1  0.5113890000000  0.5621710000000  0.5533820000000 1.0
C      1  0.5637550000000  0.5211400000000  0.4388220000000 1.0
C      1  0.4885280000000  0.4792770000000  0.4257060000000 1.0
C      1  0.4864620000000  0.5328730000000  0.4241350000000 1.0
C      1  0.4963810000000  0.4928520000000  0.5562290000000 1.0
C      1  0.4482620000000  0.5049300000000  0.4336830000000 1.0
C      1  0.4475150000000  0.5543840000000  0.4449950000000 1.0
C      1  0.5422970000000  0.4921480000000  0.5789830000000 1.0
C      1  0.5251630000000  0.4730800000000  0.5618930000000 1.0
C      1  0.5024180000000  0.4792400000000  0.4942900000000 1.0
C      1  0.5306140000000  0.4726680000000  0.4870460000000 1.0
C      1  0.4839220000000  0.5573860000000  0.4694890000000 1.0
C      1  0.5678060000000  0.4493920000000  0.4946650000000 1.0
C      1  0.5615210000000  0.5259070000000  0.5051880000000 1.0
C      1  0.4731610000000  0.5365120000000  0.5575870000000 1.0
C      1  0.4462110000000  0.5265640000000  0.4558270000000 1.0
C      1  0.5244260000000  0.5593060000000  0.4429630000000 1.0
C      1  0.5791870000000  0.4723780000000  0.5093080000000 1.0
C      1  0.4540560000000  0.4518760000000  0.4460170000000 1.0
C      1  0.5076780000000  0.5213470000000  0.5188530000000 1.0
C      1  0.4384290000000  0.4700280000000  0.5645240000000 1.0
C      1  0.5358950000000  0.5717650000000  0.5400300000000 1.0
C      1  0.4982490000000  0.4338340000000  0.5141370000000 1.0
C      1  0.5122320000000  0.4640680000000  0.4206190000000 1.0
C      1  0.5164910000000  0.4475620000000  0.5735190000000 1.0
C      1  0.4869440000000  0.5169050000000  0.5389370000000 1.0
C      1  0.4379770000000  0.4830210000000  0.4968420000000 1.0
C      1  0.4750660000000  0.5679050000000  0.5168100000000 1.0
C      1  0.4674000000000  0.5537260000000  0.4249780000000 1.0
C      1  0.4599860000000  0.4885490000000  0.4754290000000 1.0
END
