TITL C-950532-2784-112 -4.41159225993907e-06 125000 -659.689565489086 0 0 107 (C1) n - 1
REM
REM in /home/bkarasulu/work/CARBON/AIRSS/Generating-Clusters/EDIP-Nigel-Params/with-SteepDescent/Only-C1/SD-CG/HFTN-CG
REM
REM
REM
REM
REM
REM ./C.cell (11c1c37f851c82e70ff6c80c92926a4b)
REM
REM compiler GCC version 9.2.1 20190827 (Red Hat 9.2.1-1)
REM options -cpp -mtune=generic -march=x86-64 -g -O0 -fpre-include=/usr/include/finclude/math-vector-fortran.h
REM seed -2084511995 1687386391 835979780 -168888319 64823131 772394212 -1258248625 -1170322243 -1389109848 96572349 -1944412256 -218487214 -416832595 1824661797 -592887304 2012848273 167744707 385503136 -1779213149 2023402813 -867750517 1968690138 344580929 1319767483 -723232084 -272672932 1890955549 652691880 -2116386664 804363326 361968583 1838158044 891808472
REM
CELL 1.54180   50.00000   50.00000   50.00000   90.00000   90.00000   90.00000
LATT -1
SFAC C  
C      1  0.4661520000000  0.4658190000000  0.5708520000000 1.0
C      1  0.5201800000000  0.4652030000000  0.5843880000000 1.0
C      1  0.5032620000000  0.4508150000000  0.5061520000000 1.0
C      1  0.5246490000000  0.5319730000000  0.5260820000000 1.0
C      1  0.4748790000000  0.3990430000000  0.5044390000000 1.0
C      1  0.5326930000000  0.5762020000000  0.4678340000000 1.0
C      1  0.4330590000000  0.5501260000000  0.4926600000000 1.0
C      1  0.5568750000000  0.5366710000000  0.4615980000000 1.0
C      1  0.4587510000000  0.4602830000000  0.4999950000000 1.0
C      1  0.4773490000000  0.4626340000000  0.4416970000000 1.0
C      1  0.5123880000000  0.5174010000000  0.5678460000000 1.0
C      1  0.4959380000000  0.6066260000000  0.5010470000000 1.0
C      1  0.4898360000000  0.5426480000000  0.4401760000000 1.0
C      1  0.4650680000000  0.5169840000000  0.5573950000000 1.0
C      1  0.4870640000000  0.4701990000000  0.5492300000000 1.0
C      1  0.5158500000000  0.4930710000000  0.4219790000000 1.0
C      1  0.4142270000000  0.5169120000000  0.4632720000000 1.0
C      1  0.4782590000000  0.4536390000000  0.5217630000000 1.0
C      1  0.5742000000000  0.4609900000000  0.4874660000000 1.0
C      1  0.5506400000000  0.4397300000000  0.5281260000000 1.0
C      1  0.5498250000000  0.4573000000000  0.4569590000000 1.0
C      1  0.5805420000000  0.5323330000000  0.4816170000000 1.0
C      1  0.4964250000000  0.5705550000000  0.4370500000000 1.0
C      1  0.4308480000000  0.4725960000000  0.4654880000000 1.0
C      1  0.4871020000000  0.5942080000000  0.4774020000000 1.0
C      1  0.5480230000000  0.5689880000000  0.5417600000000 1.0
C      1  0.5515790000000  0.4429330000000  0.4987700000000 1.0
C      1  0.5428900000000  0.4997170000000  0.4870480000000 1.0
C      1  0.5329710000000  0.4160210000000  0.4343430000000 1.0
C      1  0.5459390000000  0.4915200000000  0.4293430000000 1.0
C      1  0.5345430000000  0.4240730000000  0.4820120000000 1.0
C      1  0.4395060000000  0.5021860000000  0.5534620000000 1.0
C      1  0.5013880000000  0.5091340000000  0.5214730000000 1.0
C      1  0.4791120000000  0.4890350000000  0.4566910000000 1.0
C      1  0.4772230000000  0.5245690000000  0.5127310000000 1.0
C      1  0.4598680000000  0.5590670000000  0.5481070000000 1.0
C      1  0.4186800000000  0.4487630000000  0.5113100000000 1.0
C      1  0.4474700000000  0.5590800000000  0.4679050000000 1.0
C      1  0.5109840000000  0.4309190000000  0.4302770000000 1.0
C      1  0.4433840000000  0.5417560000000  0.5288500000000 1.0
C      1  0.5095000000000  0.5257670000000  0.4580070000000 1.0
C      1  0.4524770000000  0.4235250000000  0.5408010000000 1.0
C      1  0.5323380000000  0.5288000000000  0.4775860000000 1.0
C      1  0.4690390000000  0.5652850000000  0.5052140000000 1.0
C      1  0.5064940000000  0.5839540000000  0.4589720000000 1.0
C      1  0.4903240000000  0.5458790000000  0.4967600000000 1.0
C      1  0.4790150000000  0.4230380000000  0.5522850000000 1.0
C      1  0.5206260000000  0.5480450000000  0.4999960000000 1.0
C      1  0.5869770000000  0.5055190000000  0.5259010000000 1.0
C      1  0.5703970000000  0.4896570000000  0.4775660000000 1.0
C      1  0.5604480000000  0.4678590000000  0.4326320000000 1.0
C      1  0.4956060000000  0.4807960000000  0.5899590000000 1.0
C      1  0.5424440000000  0.5799230000000  0.4945110000000 1.0
C      1  0.5038070000000  0.4323080000000  0.4790250000000 1.0
C      1  0.4428230000000  0.4723720000000  0.5543850000000 1.0
C      1  0.4767640000000  0.4838030000000  0.4857660000000 1.0
C      1  0.5623590000000  0.5226490000000  0.5583800000000 1.0
C      1  0.5134650000000  0.5443880000000  0.5534750000000 1.0
C      1  0.5078350000000  0.4974180000000  0.4519130000000 1.0
C      1  0.5404620000000  0.5060730000000  0.5692150000000 1.0
C      1  0.4306630000000  0.4981350000000  0.4509010000000 1.0
C      1  0.5692880000000  0.4809430000000  0.5203200000000 1.0
C      1  0.5165170000000  0.5205140000000  0.4091380000000 1.0
C      1  0.5649910000000  0.4614590000000  0.5436850000000 1.0
C      1  0.4886710000000  0.5290480000000  0.4130470000000 1.0
C      1  0.4179590000000  0.4747780000000  0.4945080000000 1.0
C      1  0.4866940000000  0.4795120000000  0.4139510000000 1.0
C      1  0.4701440000000  0.5050040000000  0.4149290000000 1.0
C      1  0.5329770000000  0.5833080000000  0.5210850000000 1.0
C      1  0.4132520000000  0.5286330000000  0.4884790000000 1.0
C      1  0.4100510000000  0.5090640000000  0.5105880000000 1.0
C      1  0.4628170000000  0.5381470000000  0.4522690000000 1.0
C      1  0.5302770000000  0.5649860000000  0.5636200000000 1.0
C      1  0.5759300000000  0.5305670000000  0.5118870000000 1.0
C      1  0.4794460000000  0.4137600000000  0.4806860000000 1.0
C      1  0.4239820000000  0.5196860000000  0.5354720000000 1.0
C      1  0.4369060000000  0.4274460000000  0.4969190000000 1.0
C      1  0.4681270000000  0.5513470000000  0.5752470000000 1.0
C      1  0.5417020000000  0.4921150000000  0.5170740000000 1.0
C      1  0.5550740000000  0.5395050000000  0.5341580000000 1.0
C      1  0.5868790000000  0.5093490000000  0.5539840000000 1.0
C      1  0.5490770000000  0.5621460000000  0.4489430000000 1.0
C      1  0.5403220000000  0.4767120000000  0.5645560000000 1.0
C      1  0.5064950000000  0.4306710000000  0.5540490000000 1.0
C      1  0.4539090000000  0.4276190000000  0.4719100000000 1.0
C      1  0.5243110000000  0.4811170000000  0.4725810000000 1.0
C      1  0.4581850000000  0.5085780000000  0.4437860000000 1.0
C      1  0.5469890000000  0.4274770000000  0.4559250000000 1.0
C      1  0.4760540000000  0.5780450000000  0.5315400000000 1.0
C      1  0.5004380000000  0.4458740000000  0.4511060000000 1.0
C      1  0.4957140000000  0.5107050000000  0.5924900000000 1.0
C      1  0.4366060000000  0.4492610000000  0.5363730000000 1.0
C      1  0.4984240000000  0.5967450000000  0.5270610000000 1.0
C      1  0.5243660000000  0.4753850000000  0.5383160000000 1.0
C      1  0.4596370000000  0.5855420000000  0.4734940000000 1.0
C      1  0.5377330000000  0.5375320000000  0.4214150000000 1.0
C      1  0.4694220000000  0.5241630000000  0.5872050000000 1.0
C      1  0.5213650000000  0.4454620000000  0.5314890000000 1.0
C      1  0.4506280000000  0.4086550000000  0.5155510000000 1.0
C      1  0.4611880000000  0.5056790000000  0.4976860000000 1.0
C      1  0.5568100000000  0.5189880000000  0.4346550000000 1.0
C      1  0.4909700000000  0.5021740000000  0.5486250000000 1.0
C      1  0.4416570000000  0.4867270000000  0.5127320000000 1.0
C      1  0.5153320000000  0.4383650000000  0.5792330000000 1.0
C      1  0.5923520000000  0.5077120000000  0.4745000000000 1.0
C      1  0.5046460000000  0.4794170000000  0.4968380000000 1.0
C      1  0.4521970000000  0.4531560000000  0.4570460000000 1.0
END
