TITL C-951343-2256-273 -1.15068924757193e-06 125000 -1183.07513255378 0 0 189 (C1) n - 1
REM
REM in /home/bkarasulu/work/CARBON/AIRSS/Generating-Clusters/EDIP-Nigel-Params/with-SteepDescent/Only-C1/SD-CG/HFTN-CG
REM
REM
REM
REM
REM
REM ./C.cell (11c1c37f851c82e70ff6c80c92926a4b)
REM
REM compiler GCC version 9.2.1 20190827 (Red Hat 9.2.1-1)
REM options -cpp -mtune=generic -march=x86-64 -g -O0 -fpre-include=/usr/include/finclude/math-vector-fortran.h
REM seed -433510009 222283237 -1152361470 2138910295 -905596198 378679973 42161593 1137820104 54529629 400494759 -1285352859 -1204808509 -412283577 -898133941 1653396906 1094102280 -551876209 543776582 -1832206136 290265542 -950028713 290333550 -1175717584 246881710 629424006 -1072296345 -618144055 1334860911 -356685167 976006443 774967688 922320956 359551966
REM
CELL 1.54180   50.00000   50.00000   50.00000   90.00000   90.00000   90.00000
LATT -1
SFAC C  
C      1  0.5024080000000  0.5081970000000  0.6010360000000 1.0
C      1  0.4697540000000  0.5990400000000  0.4365920000000 1.0
C      1  0.4733390000000  0.5246550000000  0.5864720000000 1.0
C      1  0.5326250000000  0.5924830000000  0.4594560000000 1.0
C      1  0.4920090000000  0.5945510000000  0.5172700000000 1.0
C      1  0.4033020000000  0.5126700000000  0.4485430000000 1.0
C      1  0.5921700000000  0.5446600000000  0.5622300000000 1.0
C      1  0.4315290000000  0.5438300000000  0.4094400000000 1.0
C      1  0.5254620000000  0.4674230000000  0.5336050000000 1.0
C      1  0.4196440000000  0.4362410000000  0.4463330000000 1.0
C      1  0.4554150000000  0.4749920000000  0.5288280000000 1.0
C      1  0.5575100000000  0.4558840000000  0.5830710000000 1.0
C      1  0.4782270000000  0.5745170000000  0.5610530000000 1.0
C      1  0.5871200000000  0.5304540000000  0.4845050000000 1.0
C      1  0.5543230000000  0.4277860000000  0.5423650000000 1.0
C      1  0.6065170000000  0.4797760000000  0.4972440000000 1.0
C      1  0.4356090000000  0.4604180000000  0.4349340000000 1.0
C      1  0.3798700000000  0.5239840000000  0.4899350000000 1.0
C      1  0.4300490000000  0.5001950000000  0.5929200000000 1.0
C      1  0.5348420000000  0.4045850000000  0.5186650000000 1.0
C      1  0.4366740000000  0.4504830000000  0.4876560000000 1.0
C      1  0.5269990000000  0.4733070000000  0.5022480000000 1.0
C      1  0.4223670000000  0.4988620000000  0.5000420000000 1.0
C      1  0.4244200000000  0.4498900000000  0.5618990000000 1.0
C      1  0.5706390000000  0.4695560000000  0.5577590000000 1.0
C      1  0.4518260000000  0.5870350000000  0.5588810000000 1.0
C      1  0.5169990000000  0.5268780000000  0.4122260000000 1.0
C      1  0.5537490000000  0.4574540000000  0.5361320000000 1.0
C      1  0.5763010000000  0.4106120000000  0.5048920000000 1.0
C      1  0.5548430000000  0.5678930000000  0.4298580000000 1.0
C      1  0.5080670000000  0.5527840000000  0.4565160000000 1.0
C      1  0.5378470000000  0.4597870000000  0.4673900000000 1.0
C      1  0.4797600000000  0.5144540000000  0.5297260000000 1.0
C      1  0.5937970000000  0.4212640000000  0.4864560000000 1.0
C      1  0.5292250000000  0.3993270000000  0.4533060000000 1.0
C      1  0.5965990000000  0.4880710000000  0.4507060000000 1.0
C      1  0.5604710000000  0.5976820000000  0.4679690000000 1.0
C      1  0.5466310000000  0.5387370000000  0.5524790000000 1.0
C      1  0.4643750000000  0.4151050000000  0.4575540000000 1.0
C      1  0.4643740000000  0.4773050000000  0.6216950000000 1.0
C      1  0.4710470000000  0.5086560000000  0.5588270000000 1.0
C      1  0.5206250000000  0.4325650000000  0.5742580000000 1.0
C      1  0.5816180000000  0.4202140000000  0.5319670000000 1.0
C      1  0.5908130000000  0.5655730000000  0.4420680000000 1.0
C      1  0.3968260000000  0.4683290000000  0.5300750000000 1.0
C      1  0.4989710000000  0.5915910000000  0.5468720000000 1.0
C      1  0.4324050000000  0.4115550000000  0.4569000000000 1.0
C      1  0.5184880000000  0.4942420000000  0.5490790000000 1.0
C      1  0.4491130000000  0.4192310000000  0.5067290000000 1.0
C      1  0.5562480000000  0.4414620000000  0.4911090000000 1.0
C      1  0.5416090000000  0.5084670000000  0.5606590000000 1.0
C      1  0.4840860000000  0.5529970000000  0.5810700000000 1.0
C      1  0.6001030000000  0.5767970000000  0.4905370000000 1.0
C      1  0.4425220000000  0.4756590000000  0.6037690000000 1.0
C      1  0.4915460000000  0.5218680000000  0.3966330000000 1.0
C      1  0.4228210000000  0.4973730000000  0.5632500000000 1.0
C      1  0.4677430000000  0.4088890000000  0.5574190000000 1.0
C      1  0.4427970000000  0.4519680000000  0.5860720000000 1.0
C      1  0.3900060000000  0.5191080000000  0.5333710000000 1.0
C      1  0.5466870000000  0.5459650000000  0.4497390000000 1.0
C      1  0.4918780000000  0.5653240000000  0.5032150000000 1.0
C      1  0.4551560000000  0.4904110000000  0.4020470000000 1.0
C      1  0.4164640000000  0.5230450000000  0.5465310000000 1.0
C      1  0.3946370000000  0.5339310000000  0.4670200000000 1.0
C      1  0.5953440000000  0.4460110000000  0.5231630000000 1.0
C      1  0.3937360000000  0.4961620000000  0.5126320000000 1.0
C      1  0.5351280000000  0.4676600000000  0.5967110000000 1.0
C      1  0.5080450000000  0.3986060000000  0.4782880000000 1.0
C      1  0.5498290000000  0.4290760000000  0.5723910000000 1.0
C      1  0.5302090000000  0.5824930000000  0.4316270000000 1.0
C      1  0.5926420000000  0.4403660000000  0.4663110000000 1.0
C      1  0.3989770000000  0.4764290000000  0.4627110000000 1.0
C      1  0.5406420000000  0.6110910000000  0.5125070000000 1.0
C      1  0.5596260000000  0.5155750000000  0.4079260000000 1.0
C      1  0.4296100000000  0.5454660000000  0.5882100000000 1.0
C      1  0.5440100000000  0.4794750000000  0.4411400000000 1.0
C      1  0.4198570000000  0.5482170000000  0.5623770000000 1.0
C      1  0.4908950000000  0.5288630000000  0.4598800000000 1.0
C      1  0.5197810000000  0.5520710000000  0.5128130000000 1.0
C      1  0.3869470000000  0.5397470000000  0.5131420000000 1.0
C      1  0.5874270000000  0.5545510000000  0.5322890000000 1.0
C      1  0.5562610000000  0.5300530000000  0.5957680000000 1.0
C      1  0.5796430000000  0.5741150000000  0.4685860000000 1.0
C      1  0.4110810000000  0.4409950000000  0.5271070000000 1.0
C      1  0.4867880000000  0.3905800000000  0.5474430000000 1.0
C      1  0.4349280000000  0.4728940000000  0.5080090000000 1.0
C      1  0.4834460000000  0.4267270000000  0.4088880000000 1.0
C      1  0.5695480000000  0.4346280000000  0.4496960000000 1.0
C      1  0.5214770000000  0.5539000000000  0.5514290000000 1.0
C      1  0.6008970000000  0.5189440000000  0.4598280000000 1.0
C      1  0.4938530000000  0.4898680000000  0.5675930000000 1.0
C      1  0.4185260000000  0.5772100000000  0.4649280000000 1.0
C      1  0.4640120000000  0.6057480000000  0.5165250000000 1.0
C      1  0.5078980000000  0.4448160000000  0.5483470000000 1.0
C      1  0.4778230000000  0.3951050000000  0.4745640000000 1.0
C      1  0.4177490000000  0.5500650000000  0.4772070000000 1.0
C      1  0.5764710000000  0.5835190000000  0.5323610000000 1.0
C      1  0.5984860000000  0.4672460000000  0.5439750000000 1.0
C      1  0.4335590000000  0.5266920000000  0.5169540000000 1.0
C      1  0.5988870000000  0.4902670000000  0.5227170000000 1.0
C      1  0.5188750000000  0.5224500000000  0.5102080000000 1.0
C      1  0.5061270000000  0.4081340000000  0.5831760000000 1.0
C      1  0.5630070000000  0.5385960000000  0.5259660000000 1.0
C      1  0.5644790000000  0.6118660000000  0.4939560000000 1.0
C      1  0.4890130000000  0.3885770000000  0.5188510000000 1.0
C      1  0.4735180000000  0.4461490000000  0.5880980000000 1.0
C      1  0.4530360000000  0.5535650000000  0.4470340000000 1.0
C      1  0.4444540000000  0.5381250000000  0.4702730000000 1.0
C      1  0.4472280000000  0.4621610000000  0.4056380000000 1.0
C      1  0.4640570000000  0.4506560000000  0.5423550000000 1.0
C      1  0.5709690000000  0.5063900000000  0.5232100000000 1.0
C      1  0.5469880000000  0.5892130000000  0.5304550000000 1.0
C      1  0.5634420000000  0.5498060000000  0.4767870000000 1.0
C      1  0.5192810000000  0.4978800000000  0.4317570000000 1.0
C      1  0.4683330000000  0.5288750000000  0.4337460000000 1.0
C      1  0.5017160000000  0.4787030000000  0.4181140000000 1.0
C      1  0.5639870000000  0.5246340000000  0.4356080000000 1.0
C      1  0.4858670000000  0.5664940000000  0.4113260000000 1.0
C      1  0.4545120000000  0.6099940000000  0.5426620000000 1.0
C      1  0.4701990000000  0.4497260000000  0.4209190000000 1.0
C      1  0.4201740000000  0.4950030000000  0.4671740000000 1.0
C      1  0.4846010000000  0.4929710000000  0.3977060000000 1.0
C      1  0.4428930000000  0.4853260000000  0.4506800000000 1.0
C      1  0.4864840000000  0.4418700000000  0.4983580000000 1.0
C      1  0.5324960000000  0.4295010000000  0.5042000000000 1.0
C      1  0.5269800000000  0.5825450000000  0.5505870000000 1.0
C      1  0.4482060000000  0.5048790000000  0.4283210000000 1.0
C      1  0.6022830000000  0.5497660000000  0.5041540000000 1.0
C      1  0.4483860000000  0.4919880000000  0.5519440000000 1.0
C      1  0.4166010000000  0.4085190000000  0.4815340000000 1.0
C      1  0.5072210000000  0.5162590000000  0.5339880000000 1.0
C      1  0.4865360000000  0.4593200000000  0.4546660000000 1.0
C      1  0.4960040000000  0.4726730000000  0.4979940000000 1.0
C      1  0.5380690000000  0.5095100000000  0.4728390000000 1.0
C      1  0.5693070000000  0.4599720000000  0.5105600000000 1.0
C      1  0.4459440000000  0.5873600000000  0.5031840000000 1.0
C      1  0.4426190000000  0.5907160000000  0.4746060000000 1.0
C      1  0.5841240000000  0.5161310000000  0.5736100000000 1.0
C      1  0.5841510000000  0.4748880000000  0.4237820000000 1.0
C      1  0.5390170000000  0.5273690000000  0.3938360000000 1.0
C      1  0.5552120000000  0.4104600000000  0.4534520000000 1.0
C      1  0.4836440000000  0.4308710000000  0.5296960000000 1.0
C      1  0.4225090000000  0.5190630000000  0.4233470000000 1.0
C      1  0.4858220000000  0.4618130000000  0.6116730000000 1.0
C      1  0.4322760000000  0.5691530000000  0.5468350000000 1.0
C      1  0.5134380000000  0.4502900000000  0.4127310000000 1.0
C      1  0.5662340000000  0.4882350000000  0.4048220000000 1.0
C      1  0.5678410000000  0.4990570000000  0.5541950000000 1.0
C      1  0.5603440000000  0.5014650000000  0.4545050000000 1.0
C      1  0.4775490000000  0.4165000000000  0.5836160000000 1.0
C      1  0.5488050000000  0.5542810000000  0.5033750000000 1.0
C      1  0.5102920000000  0.4785970000000  0.6064890000000 1.0
C      1  0.4066160000000  0.4725730000000  0.5576790000000 1.0
C      1  0.4938910000000  0.5747930000000  0.4726160000000 1.0
C      1  0.4665060000000  0.5371970000000  0.5131050000000 1.0
C      1  0.5097920000000  0.4279960000000  0.4858490000000 1.0
C      1  0.5445470000000  0.4563090000000  0.4093510000000 1.0
C      1  0.4451880000000  0.5249950000000  0.5987120000000 1.0
C      1  0.5254510000000  0.5285600000000  0.5963360000000 1.0
C      1  0.4103090000000  0.4507590000000  0.4700240000000 1.0
C      1  0.5129030000000  0.4431750000000  0.4600590000000 1.0
C      1  0.4700050000000  0.5324110000000  0.4836960000000 1.0
C      1  0.5095980000000  0.5045890000000  0.4601110000000 1.0
C      1  0.5109510000000  0.5588680000000  0.4264160000000 1.0
C      1  0.4149930000000  0.5495850000000  0.5071470000000 1.0
C      1  0.6005670000000  0.4685140000000  0.4720250000000 1.0
C      1  0.4859140000000  0.4108710000000  0.4336930000000 1.0
C      1  0.5699520000000  0.4485640000000  0.4243580000000 1.0
C      1  0.4201260000000  0.4171340000000  0.5098730000000 1.0
C      1  0.5879060000000  0.5976190000000  0.5086340000000 1.0
C      1  0.4288750000000  0.5620680000000  0.4315350000000 1.0
C      1  0.5144930000000  0.4214250000000  0.4389730000000 1.0
C      1  0.4699760000000  0.5419210000000  0.4057720000000 1.0
C      1  0.4921510000000  0.4829680000000  0.4707350000000 1.0
C      1  0.5155500000000  0.3865150000000  0.5056260000000 1.0
C      1  0.4845740000000  0.4598380000000  0.5634600000000 1.0
C      1  0.5126340000000  0.6115410000000  0.5013020000000 1.0
C      1  0.5920580000000  0.5361260000000  0.4371860000000 1.0
C      1  0.5393150000000  0.5021790000000  0.5014400000000 1.0
C      1  0.4664950000000  0.4425620000000  0.4730110000000 1.0
C      1  0.5126650000000  0.5503080000000  0.5803140000000 1.0
C      1  0.5091420000000  0.3867410000000  0.5642400000000 1.0
C      1  0.4247470000000  0.5749450000000  0.5192810000000 1.0
C      1  0.4752330000000  0.5921190000000  0.4113800000000 1.0
C      1  0.5116240000000  0.6076750000000  0.4721800000000 1.0
C      1  0.4664110000000  0.3956500000000  0.5011180000000 1.0
C      1  0.4659260000000  0.5804990000000  0.4579680000000 1.0
C      1  0.4777330000000  0.4882310000000  0.5161810000000 1.0
C      1  0.5640970000000  0.5505520000000  0.5748690000000 1.0
END
