TITL C-950535-5962-737 -1.29600079155128e-06 125000 -680.884879169519 0 0 109 (C1) n - 1
REM
REM in /home/bkarasulu/work/CARBON/AIRSS/Generating-Clusters/EDIP-Nigel-Params/with-SteepDescent/Only-C1/SD-CG/HFTN-CG
REM
REM
REM
REM
REM
REM ./C.cell (11c1c37f851c82e70ff6c80c92926a4b)
REM
REM compiler GCC version 9.2.1 20190827 (Red Hat 9.2.1-1)
REM options -cpp -mtune=generic -march=x86-64 -g -O0 -fpre-include=/usr/include/finclude/math-vector-fortran.h
REM seed -597398922 -129871813 -1025037522 1938895732 1549273870 -1984514136 1406385068 742907145 -1242561773 375181203 1532326346 2126717305 2117898776 -1403723886 -1661465350 -1582892820 -749657838 -1108243734 1117336507 815733564 1004759270 1732138201 1471924465 1698508110 -2006780322 -777802464 1250985495 -449008242 500298888 -423262574 1811152215 76107297 -809388813
REM
CELL 1.54180   50.00000   50.00000   50.00000   90.00000   90.00000   90.00000
LATT -1
SFAC C  
C      1  0.4760030000000  0.5300450000000  0.4780050000000 1.0
C      1  0.5738040000000  0.4915620000000  0.5416240000000 1.0
C      1  0.5033170000000  0.4664860000000  0.4765230000000 1.0
C      1  0.5281710000000  0.4144350000000  0.4974460000000 1.0
C      1  0.5092820000000  0.5882750000000  0.5209040000000 1.0
C      1  0.5682550000000  0.4821470000000  0.5690780000000 1.0
C      1  0.5404930000000  0.5771990000000  0.4698310000000 1.0
C      1  0.5356780000000  0.5612420000000  0.4451530000000 1.0
C      1  0.5467400000000  0.4648380000000  0.4354160000000 1.0
C      1  0.4918300000000  0.5056950000000  0.4416770000000 1.0
C      1  0.4132470000000  0.5203340000000  0.4756460000000 1.0
C      1  0.4960590000000  0.4179760000000  0.4525900000000 1.0
C      1  0.4279240000000  0.5712640000000  0.4553630000000 1.0
C      1  0.5073820000000  0.5524630000000  0.4408110000000 1.0
C      1  0.4361770000000  0.4923550000000  0.5641800000000 1.0
C      1  0.5084270000000  0.5549080000000  0.5643720000000 1.0
C      1  0.4827340000000  0.4208860000000  0.4814210000000 1.0
C      1  0.4244870000000  0.5386110000000  0.4352920000000 1.0
C      1  0.4741720000000  0.5758000000000  0.4688150000000 1.0
C      1  0.5325280000000  0.5578950000000  0.5480280000000 1.0
C      1  0.5615070000000  0.4721120000000  0.5222870000000 1.0
C      1  0.5012980000000  0.5051450000000  0.5855710000000 1.0
C      1  0.4649670000000  0.5928450000000  0.5167730000000 1.0
C      1  0.5626350000000  0.5186560000000  0.5318860000000 1.0
C      1  0.5352550000000  0.5127570000000  0.5162810000000 1.0
C      1  0.4545940000000  0.5294350000000  0.5023080000000 1.0
C      1  0.4894030000000  0.5032560000000  0.5358350000000 1.0
C      1  0.4533190000000  0.5398080000000  0.4368850000000 1.0
C      1  0.5549280000000  0.5395210000000  0.5540330000000 1.0
C      1  0.5680460000000  0.5003310000000  0.4629200000000 1.0
C      1  0.5181300000000  0.4542310000000  0.5715310000000 1.0
C      1  0.4953680000000  0.5116800000000  0.4892080000000 1.0
C      1  0.4655180000000  0.5164760000000  0.4537920000000 1.0
C      1  0.5198110000000  0.4813870000000  0.5840910000000 1.0
C      1  0.4843540000000  0.5909950000000  0.5371240000000 1.0
C      1  0.4135770000000  0.5156000000000  0.4480590000000 1.0
C      1  0.4810820000000  0.5651590000000  0.5534640000000 1.0
C      1  0.5570010000000  0.5808380000000  0.5139460000000 1.0
C      1  0.5802040000000  0.5254680000000  0.5073310000000 1.0
C      1  0.5280790000000  0.4195400000000  0.4490450000000 1.0
C      1  0.5056660000000  0.4690260000000  0.5071820000000 1.0
C      1  0.4686260000000  0.5205020000000  0.5433320000000 1.0
C      1  0.5535700000000  0.5385060000000  0.4359320000000 1.0
C      1  0.5147150000000  0.5311260000000  0.5810230000000 1.0
C      1  0.5341770000000  0.4831240000000  0.5130790000000 1.0
C      1  0.5167360000000  0.5533280000000  0.4870280000000 1.0
C      1  0.5040800000000  0.4427950000000  0.5214910000000 1.0
C      1  0.5378240000000  0.5057450000000  0.4694990000000 1.0
C      1  0.4236740000000  0.4528530000000  0.4800640000000 1.0
C      1  0.4232090000000  0.4804380000000  0.4395920000000 1.0
C      1  0.5446930000000  0.4205880000000  0.5441690000000 1.0
C      1  0.4520200000000  0.4679220000000  0.5631850000000 1.0
C      1  0.4923170000000  0.4408710000000  0.5694260000000 1.0
C      1  0.4253770000000  0.5358800000000  0.4956360000000 1.0
C      1  0.5241860000000  0.4338370000000  0.4747430000000 1.0
C      1  0.4593250000000  0.5628080000000  0.5724360000000 1.0
C      1  0.5360970000000  0.5822260000000  0.5326950000000 1.0
C      1  0.4546280000000  0.4890700000000  0.4734710000000 1.0
C      1  0.4293910000000  0.5783610000000  0.4837830000000 1.0
C      1  0.5426440000000  0.4392140000000  0.5652150000000 1.0
C      1  0.5617260000000  0.5709630000000  0.4882080000000 1.0
C      1  0.4143230000000  0.5614500000000  0.5002670000000 1.0
C      1  0.5428430000000  0.5247960000000  0.5768190000000 1.0
C      1  0.4704740000000  0.4558490000000  0.5809980000000 1.0
C      1  0.5073690000000  0.5264090000000  0.4269190000000 1.0
C      1  0.4862570000000  0.4275700000000  0.5415800000000 1.0
C      1  0.4737260000000  0.5060300000000  0.5893930000000 1.0
C      1  0.4708570000000  0.4608130000000  0.4370640000000 1.0
C      1  0.5091890000000  0.4738980000000  0.4089510000000 1.0
C      1  0.4572630000000  0.5801260000000  0.4926510000000 1.0
C      1  0.4438430000000  0.5411900000000  0.5780290000000 1.0
C      1  0.5748590000000  0.4188980000000  0.5038480000000 1.0
C      1  0.5354370000000  0.4382720000000  0.4272090000000 1.0
C      1  0.5836450000000  0.5002410000000  0.4893110000000 1.0
C      1  0.4608140000000  0.4415050000000  0.4833310000000 1.0
C      1  0.4792030000000  0.4821870000000  0.5183050000000 1.0
C      1  0.4553870000000  0.5686530000000  0.4461700000000 1.0
C      1  0.4270010000000  0.4789440000000  0.4683130000000 1.0
C      1  0.4209010000000  0.4941810000000  0.5409570000000 1.0
C      1  0.4857770000000  0.4830950000000  0.4241100000000 1.0
C      1  0.5498800000000  0.4183440000000  0.5164240000000 1.0
C      1  0.4542100000000  0.4969620000000  0.5033030000000 1.0
C      1  0.5735450000000  0.4546180000000  0.4774450000000 1.0
C      1  0.5826780000000  0.4281080000000  0.4794920000000 1.0
C      1  0.5692780000000  0.4708190000000  0.4530810000000 1.0
C      1  0.5744020000000  0.5308990000000  0.4559160000000 1.0
C      1  0.4933530000000  0.5532490000000  0.4678120000000 1.0
C      1  0.5384660000000  0.5284050000000  0.4885830000000 1.0
C      1  0.5089900000000  0.4959640000000  0.4677710000000 1.0
C      1  0.5660360000000  0.5412500000000  0.4852150000000 1.0
C      1  0.4574250000000  0.4313100000000  0.5343520000000 1.0
C      1  0.4855580000000  0.4354380000000  0.4298360000000 1.0
C      1  0.5440790000000  0.4958410000000  0.5769650000000 1.0
C      1  0.5049280000000  0.5195140000000  0.5166830000000 1.0
C      1  0.5346420000000  0.5158090000000  0.4265840000000 1.0
C      1  0.4430780000000  0.4635970000000  0.4291100000000 1.0
C      1  0.5812150000000  0.4723020000000  0.4997780000000 1.0
C      1  0.5655020000000  0.4541500000000  0.5704390000000 1.0
C      1  0.4277040000000  0.4586160000000  0.5081120000000 1.0
C      1  0.4999990000000  0.4168760000000  0.5066940000000 1.0
C      1  0.4429990000000  0.4417990000000  0.5567950000000 1.0
C      1  0.4274800000000  0.4871960000000  0.5144600000000 1.0
C      1  0.4725520000000  0.5464740000000  0.5289890000000 1.0
C      1  0.4558910000000  0.4514560000000  0.5124020000000 1.0
C      1  0.5039720000000  0.5580250000000  0.5147210000000 1.0
C      1  0.5353300000000  0.4861240000000  0.4187220000000 1.0
C      1  0.4547800000000  0.5156000000000  0.5697090000000 1.0
C      1  0.5093430000000  0.4437900000000  0.4128340000000 1.0
C      1  0.4730500000000  0.4645170000000  0.4678130000000 1.0
END
