TITL C-950526-5686-589 -2.74942678482434e-06 125000 -360.983718686938 0 0 61 (C1) n - 1
REM
REM in /home/bkarasulu/work/CARBON/AIRSS/Generating-Clusters/EDIP-Nigel-Params/with-SteepDescent/Only-C1/SD-CG/HFTN-CG
REM
REM
REM
REM
REM
REM ./C.cell (11c1c37f851c82e70ff6c80c92926a4b)
REM
REM compiler GCC version 9.2.1 20190827 (Red Hat 9.2.1-1)
REM options -cpp -mtune=generic -march=x86-64 -g -O0 -fpre-include=/usr/include/finclude/math-vector-fortran.h
REM seed -1697416156 324073957 801614317 812109176 76699599 1871395287 -1205942188 703524913 -397107298 -1433316622 191368806 1598581437 1501618439 -1647600124 -1551855557 -55856737 -69773693 981536459 2037640543 1901510649 -42216281 1565838930 218707355 -610945946 -153604099 1340464343 -392580866 -1214402136 1324076896 -1027847838 -1837998451 1066755426 -1484693913
REM
CELL 1.54180   50.00000   50.00000   50.00000   90.00000   90.00000   90.00000
LATT -1
SFAC C  
C      1  0.5424600000000  0.4332330000000  0.4640500000000 1.0
C      1  0.4789290000000  0.4622950000000  0.4875440000000 1.0
C      1  0.5034810000000  0.4810900000000  0.4931840000000 1.0
C      1  0.4635030000000  0.5699550000000  0.4952730000000 1.0
C      1  0.4578900000000  0.4993530000000  0.4552210000000 1.0
C      1  0.4609880000000  0.5379480000000  0.5593640000000 1.0
C      1  0.4634660000000  0.4717330000000  0.4628620000000 1.0
C      1  0.5293060000000  0.5702570000000  0.4793580000000 1.0
C      1  0.5091970000000  0.5015290000000  0.4736720000000 1.0
C      1  0.5095700000000  0.5451800000000  0.4421200000000 1.0
C      1  0.4490080000000  0.5078390000000  0.5060530000000 1.0
C      1  0.4917250000000  0.5135300000000  0.6014410000000 1.0
C      1  0.5108260000000  0.4803850000000  0.4551390000000 1.0
C      1  0.4516100000000  0.5762420000000  0.4709950000000 1.0
C      1  0.5587000000000  0.4930360000000  0.4481940000000 1.0
C      1  0.5227500000000  0.5256760000000  0.5676480000000 1.0
C      1  0.5549230000000  0.5401770000000  0.4514620000000 1.0
C      1  0.4973580000000  0.5013140000000  0.4188050000000 1.0
C      1  0.5172940000000  0.5185320000000  0.4334440000000 1.0
C      1  0.5179120000000  0.4589960000000  0.5608720000000 1.0
C      1  0.5146990000000  0.4482670000000  0.4258300000000 1.0
C      1  0.5464960000000  0.5163750000000  0.4388430000000 1.0
C      1  0.5487620000000  0.4438210000000  0.5253670000000 1.0
C      1  0.4912460000000  0.4951310000000  0.5334590000000 1.0
C      1  0.5671340000000  0.4785970000000  0.4705440000000 1.0
C      1  0.4495270000000  0.5201380000000  0.5768760000000 1.0
C      1  0.4371520000000  0.4989740000000  0.5642410000000 1.0
C      1  0.4650820000000  0.5149450000000  0.5991110000000 1.0
C      1  0.4758380000000  0.5159750000000  0.5183240000000 1.0
C      1  0.4700400000000  0.5414940000000  0.5332190000000 1.0
C      1  0.5157510000000  0.5723610000000  0.5034060000000 1.0
C      1  0.5579910000000  0.4383370000000  0.4993500000000 1.0
C      1  0.5736350000000  0.4905250000000  0.5192400000000 1.0
C      1  0.5328170000000  0.4671120000000  0.5360350000000 1.0
C      1  0.4980200000000  0.4279230000000  0.5301620000000 1.0
C      1  0.5260600000000  0.5427290000000  0.5473180000000 1.0
C      1  0.5244630000000  0.5580160000000  0.5254560000000 1.0
C      1  0.4852350000000  0.5578700000000  0.4386160000000 1.0
C      1  0.5160820000000  0.4870060000000  0.5199060000000 1.0
C      1  0.4751600000000  0.4695820000000  0.5386380000000 1.0
C      1  0.4939250000000  0.4365430000000  0.4800130000000 1.0
C      1  0.4704150000000  0.5052500000000  0.4296050000000 1.0
C      1  0.4928520000000  0.4471660000000  0.5499690000000 1.0
C      1  0.4421790000000  0.4776360000000  0.5473170000000 1.0
C      1  0.5071470000000  0.4733730000000  0.4117460000000 1.0
C      1  0.5769270000000  0.4921660000000  0.4926600000000 1.0
C      1  0.5007290000000  0.4234710000000  0.5037300000000 1.0
C      1  0.5133640000000  0.5067810000000  0.5856920000000 1.0
C      1  0.4856210000000  0.4669950000000  0.4438330000000 1.0
C      1  0.4613840000000  0.4599800000000  0.5117620000000 1.0
C      1  0.4385580000000  0.4805230000000  0.5166260000000 1.0
C      1  0.4497170000000  0.5544390000000  0.5158340000000 1.0
C      1  0.5324850000000  0.5567010000000  0.4553520000000 1.0
C      1  0.5153530000000  0.4365020000000  0.4547140000000 1.0
C      1  0.5149040000000  0.4800000000000  0.5789210000000 1.0
C      1  0.4889550000000  0.5790470000000  0.5017180000000 1.0
C      1  0.4319940000000  0.5325940000000  0.5073510000000 1.0
C      1  0.5515330000000  0.4558730000000  0.4784970000000 1.0
C      1  0.5606520000000  0.4771420000000  0.5395910000000 1.0
C      1  0.4457640000000  0.5142280000000  0.4766130000000 1.0
C      1  0.4634560000000  0.5701100000000  0.4478140000000 1.0
END
