TITL C-950524-1808-332 -3.39677753718501e-06 125000 -979.509967074238 0 0 156 (C1) n - 1
REM
REM in /home/bkarasulu/work/CARBON/AIRSS/Generating-Clusters/EDIP-Nigel-Params/with-SteepDescent/Only-C1/SD-CG/HFTN-CG
REM
REM
REM
REM
REM
REM ./C.cell (11c1c37f851c82e70ff6c80c92926a4b)
REM
REM compiler GCC version 9.2.1 20190827 (Red Hat 9.2.1-1)
REM options -cpp -mtune=generic -march=x86-64 -g -O0 -fpre-include=/usr/include/finclude/math-vector-fortran.h
REM seed -1549561567 56861969 297949389 -1069676894 -2116169225 -252870658 -573045266 -2140095333 1405931266 -468238304 1424040556 1862541826 -183127385 -2133348464 1196781823 -1565481826 -1880572560 -1797057771 -1068782716 -2104281041 1601418605 2051308353 -1797111198 955475727 -226184594 -1503744981 542069540 405487138 -1527589295 1832684941 -1819006847 -2043533599 692290009
REM
CELL 1.54180   50.00000   50.00000   50.00000   90.00000   90.00000   90.00000
LATT -1
SFAC C  
C      1  0.4461080000000  0.4994270000000  0.5016210000000 1.0
C      1  0.4850810000000  0.5451840000000  0.5232320000000 1.0
C      1  0.4909600000000  0.4468290000000  0.4644160000000 1.0
C      1  0.4360010000000  0.4735780000000  0.5146730000000 1.0
C      1  0.4420090000000  0.5259200000000  0.4745760000000 1.0
C      1  0.4491770000000  0.4317580000000  0.4701880000000 1.0
C      1  0.5048850000000  0.5119850000000  0.6005160000000 1.0
C      1  0.4276260000000  0.5270790000000  0.4200460000000 1.0
C      1  0.4751620000000  0.3995620000000  0.5344050000000 1.0
C      1  0.5186150000000  0.5189170000000  0.5517860000000 1.0
C      1  0.4904470000000  0.5305220000000  0.5484380000000 1.0
C      1  0.5464790000000  0.5229230000000  0.5344250000000 1.0
C      1  0.5358100000000  0.4712000000000  0.5288550000000 1.0
C      1  0.5095640000000  0.4259860000000  0.4763920000000 1.0
C      1  0.4842500000000  0.4260960000000  0.5725200000000 1.0
C      1  0.4451010000000  0.5650540000000  0.5391870000000 1.0
C      1  0.5321080000000  0.5486170000000  0.4639660000000 1.0
C      1  0.4815530000000  0.5650200000000  0.4162190000000 1.0
C      1  0.4373310000000  0.4738030000000  0.5765440000000 1.0
C      1  0.5927680000000  0.4657470000000  0.5325940000000 1.0
C      1  0.5488830000000  0.4460080000000  0.4217270000000 1.0
C      1  0.5044280000000  0.4014810000000  0.5386380000000 1.0
C      1  0.4883290000000  0.5423340000000  0.4792390000000 1.0
C      1  0.4896650000000  0.4844490000000  0.5166190000000 1.0
C      1  0.5237140000000  0.4345760000000  0.5021850000000 1.0
C      1  0.5674350000000  0.4646950000000  0.5789010000000 1.0
C      1  0.5765390000000  0.5540850000000  0.5261570000000 1.0
C      1  0.5034200000000  0.4703700000000  0.4115940000000 1.0
C      1  0.4594340000000  0.5483530000000  0.4819150000000 1.0
C      1  0.4757060000000  0.4984320000000  0.4956880000000 1.0
C      1  0.4917700000000  0.5883450000000  0.4900370000000 1.0
C      1  0.4408530000000  0.4350040000000  0.5433830000000 1.0
C      1  0.5543150000000  0.5590880000000  0.5684800000000 1.0
C      1  0.5417630000000  0.5276580000000  0.5044690000000 1.0
C      1  0.5399900000000  0.5908010000000  0.5321800000000 1.0
C      1  0.4397790000000  0.4116850000000  0.4990500000000 1.0
C      1  0.4423980000000  0.5031280000000  0.4279600000000 1.0
C      1  0.5011670000000  0.4611920000000  0.5527060000000 1.0
C      1  0.4261990000000  0.4788520000000  0.4542380000000 1.0
C      1  0.5001870000000  0.4735340000000  0.4557110000000 1.0
C      1  0.4168200000000  0.5456870000000  0.4397610000000 1.0
C      1  0.5218530000000  0.3907120000000  0.5166680000000 1.0
C      1  0.5654080000000  0.5195140000000  0.4861200000000 1.0
C      1  0.4431530000000  0.5955920000000  0.5073550000000 1.0
C      1  0.5276650000000  0.4171360000000  0.4531970000000 1.0
C      1  0.3981090000000  0.4325160000000  0.5132280000000 1.0
C      1  0.5584190000000  0.4929800000000  0.5362960000000 1.0
C      1  0.5391460000000  0.4594370000000  0.5018310000000 1.0
C      1  0.5286790000000  0.5551320000000  0.4163510000000 1.0
C      1  0.5318860000000  0.5546700000000  0.4940880000000 1.0
C      1  0.5140740000000  0.4969300000000  0.4021330000000 1.0
C      1  0.5429430000000  0.4110310000000  0.5080430000000 1.0
C      1  0.5575410000000  0.5698350000000  0.5416780000000 1.0
C      1  0.5829800000000  0.4430990000000  0.5142640000000 1.0
C      1  0.5836790000000  0.5286830000000  0.5420470000000 1.0
C      1  0.5466460000000  0.4371100000000  0.5437900000000 1.0
C      1  0.5964200000000  0.4817350000000  0.4848860000000 1.0
C      1  0.5055650000000  0.3819940000000  0.4947350000000 1.0
C      1  0.3928820000000  0.5185120000000  0.5368000000000 1.0
C      1  0.4011640000000  0.5139700000000  0.4863440000000 1.0
C      1  0.4884020000000  0.4033280000000  0.4835780000000 1.0
C      1  0.4108980000000  0.5640450000000  0.4848320000000 1.0
C      1  0.4683840000000  0.4095890000000  0.4585470000000 1.0
C      1  0.4321930000000  0.5850210000000  0.4826110000000 1.0
C      1  0.5508800000000  0.4869150000000  0.5677250000000 1.0
C      1  0.4765090000000  0.4784730000000  0.5421760000000 1.0
C      1  0.4384690000000  0.5656400000000  0.4387140000000 1.0
C      1  0.4142690000000  0.5373050000000  0.4691070000000 1.0
C      1  0.5107070000000  0.4144460000000  0.5650490000000 1.0
C      1  0.4236050000000  0.4540330000000  0.5588580000000 1.0
C      1  0.5501550000000  0.5355850000000  0.4128540000000 1.0
C      1  0.4747840000000  0.4412280000000  0.5103850000000 1.0
C      1  0.6027650000000  0.5238890000000  0.4758360000000 1.0
C      1  0.5037210000000  0.5448910000000  0.4550970000000 1.0
C      1  0.5915670000000  0.5526150000000  0.4747220000000 1.0
C      1  0.4720710000000  0.6000240000000  0.5107150000000 1.0
C      1  0.4563500000000  0.4570760000000  0.5285900000000 1.0
C      1  0.5502970000000  0.5246190000000  0.4581410000000 1.0
C      1  0.4736050000000  0.4712940000000  0.4109820000000 1.0
C      1  0.4541020000000  0.5053850000000  0.4561470000000 1.0
C      1  0.5209010000000  0.4789910000000  0.5698070000000 1.0
C      1  0.5535950000000  0.4311390000000  0.4466920000000 1.0
C      1  0.5264760000000  0.5554980000000  0.5801000000000 1.0
C      1  0.5025500000000  0.4427180000000  0.5230330000000 1.0
C      1  0.5779830000000  0.5609980000000  0.4489340000000 1.0
C      1  0.5692880000000  0.4910870000000  0.4963660000000 1.0
C      1  0.4772530000000  0.5533790000000  0.5758570000000 1.0
C      1  0.5640240000000  0.4230860000000  0.5263010000000 1.0
C      1  0.5517760000000  0.4429110000000  0.5888130000000 1.0
C      1  0.4649930000000  0.4736590000000  0.5873370000000 1.0
C      1  0.5686250000000  0.5357090000000  0.4369080000000 1.0
C      1  0.5097250000000  0.4213930000000  0.4294290000000 1.0
C      1  0.5838840000000  0.4678000000000  0.4447600000000 1.0
C      1  0.4547770000000  0.5545260000000  0.4182680000000 1.0
C      1  0.4778930000000  0.5869690000000  0.4622850000000 1.0
C      1  0.5755830000000  0.4451840000000  0.4614290000000 1.0
C      1  0.5015970000000  0.5677080000000  0.5686140000000 1.0
C      1  0.4937930000000  0.5162550000000  0.4136590000000 1.0
C      1  0.4260000000000  0.5008090000000  0.5718960000000 1.0
C      1  0.5254380000000  0.5251610000000  0.5813800000000 1.0
C      1  0.5872820000000  0.4390650000000  0.4863880000000 1.0
C      1  0.4499680000000  0.5563290000000  0.5666400000000 1.0
C      1  0.6115750000000  0.5032230000000  0.4997840000000 1.0
C      1  0.5973130000000  0.4900180000000  0.4571810000000 1.0
C      1  0.5236750000000  0.5056150000000  0.4974310000000 1.0
C      1  0.4503690000000  0.5187300000000  0.5722420000000 1.0
C      1  0.5408230000000  0.5058670000000  0.4130010000000 1.0
C      1  0.4809850000000  0.6008990000000  0.5372610000000 1.0
C      1  0.5652010000000  0.4698950000000  0.4226500000000 1.0
C      1  0.5630640000000  0.4895620000000  0.4035590000000 1.0
C      1  0.4385550000000  0.5226120000000  0.5185890000000 1.0
C      1  0.5319180000000  0.5049910000000  0.4434370000000 1.0
C      1  0.5592300000000  0.5819150000000  0.4892630000000 1.0
C      1  0.5380420000000  0.4276690000000  0.5689970000000 1.0
C      1  0.3905550000000  0.4595430000000  0.5198590000000 1.0
C      1  0.4558490000000  0.5474180000000  0.5168490000000 1.0
C      1  0.4687560000000  0.4116180000000  0.5075370000000 1.0
C      1  0.4707950000000  0.5082350000000  0.5528200000000 1.0
C      1  0.5532560000000  0.5131780000000  0.5825910000000 1.0
C      1  0.4197540000000  0.5759460000000  0.5305420000000 1.0
C      1  0.4084780000000  0.4984560000000  0.5481100000000 1.0
C      1  0.4106250000000  0.4856580000000  0.4803870000000 1.0
C      1  0.4837080000000  0.4985060000000  0.4644560000000 1.0
C      1  0.5026750000000  0.5166530000000  0.4435270000000 1.0
C      1  0.4750700000000  0.5011730000000  0.5960550000000 1.0
C      1  0.4830240000000  0.4513720000000  0.5856350000000 1.0
C      1  0.5392450000000  0.4832220000000  0.4845250000000 1.0
C      1  0.5184420000000  0.6023760000000  0.4843080000000 1.0
C      1  0.4620560000000  0.4159760000000  0.5555000000000 1.0
C      1  0.5201520000000  0.4448490000000  0.4135640000000 1.0
C      1  0.5249450000000  0.6054760000000  0.5503350000000 1.0
C      1  0.4045630000000  0.5582980000000  0.5125180000000 1.0
C      1  0.5424040000000  0.5709350000000  0.4467010000000 1.0
C      1  0.4378000000000  0.4515090000000  0.4479200000000 1.0
C      1  0.5870230000000  0.4601020000000  0.5594830000000 1.0
C      1  0.5294290000000  0.5947310000000  0.4587280000000 1.0
C      1  0.5980770000000  0.4963260000000  0.5265320000000 1.0
C      1  0.3937930000000  0.4646560000000  0.4914070000000 1.0
C      1  0.5293130000000  0.4788770000000  0.4567170000000 1.0
C      1  0.5003290000000  0.5943370000000  0.5563400000000 1.0
C      1  0.5155810000000  0.4937010000000  0.5225180000000 1.0
C      1  0.5401610000000  0.5967590000000  0.5036860000000 1.0
C      1  0.5017130000000  0.5460670000000  0.4063830000000 1.0
C      1  0.4087260000000  0.5277920000000  0.5144910000000 1.0
C      1  0.4666210000000  0.4995870000000  0.4105660000000 1.0
C      1  0.4239040000000  0.4218170000000  0.5210490000000 1.0
C      1  0.4518990000000  0.5725560000000  0.4649680000000 1.0
C      1  0.4816210000000  0.4227160000000  0.4362350000000 1.0
C      1  0.4689500000000  0.4504040000000  0.4828770000000 1.0
C      1  0.4548440000000  0.4553960000000  0.4254490000000 1.0
C      1  0.5102830000000  0.4843700000000  0.5958460000000 1.0
C      1  0.5706820000000  0.5336850000000  0.5698440000000 1.0
C      1  0.5010080000000  0.5587080000000  0.4998530000000 1.0
C      1  0.4951130000000  0.5720080000000  0.4421120000000 1.0
C      1  0.4131480000000  0.4718950000000  0.5353890000000 1.0
C      1  0.5757120000000  0.5607940000000  0.4977360000000 1.0
END
