TITL C-950522-5749-416 1.60265104802038e-07 125000 -532.720598791266 0 0 86 (C1) n - 1
REM
REM in /home/bkarasulu/work/CARBON/AIRSS/Generating-Clusters/EDIP-Nigel-Params/with-SteepDescent/Only-C1/SD-CG/HFTN-CG
REM
REM
REM
REM
REM
REM ./C.cell (11c1c37f851c82e70ff6c80c92926a4b)
REM
REM compiler GCC version 9.2.1 20190827 (Red Hat 9.2.1-1)
REM options -cpp -mtune=generic -march=x86-64 -g -O0 -fpre-include=/usr/include/finclude/math-vector-fortran.h
REM seed 1913516844 -2006166286 530428159 34769855 -1843950429 493935892 1307955362 2140875076 -1747602653 -780093970 -1354420236 -2147026224 1396601246 -1094601562 -1821572443 280171217 1432855901 371839098 1847485813 1464267220 25381490 -888439387 966469122 -944984665 598427879 227212643 921785013 -421401582 -169753241 980346409 1506883893 451651 -1782588579
REM
CELL 1.54180   50.00000   50.00000   50.00000   90.00000   90.00000   90.00000
LATT -1
SFAC C  
C      1  0.5637940000000  0.4368220000000  0.5050290000000 1.0
C      1  0.5798840000000  0.4719890000000  0.4728710000000 1.0
C      1  0.5393360000000  0.5494320000000  0.5117340000000 1.0
C      1  0.5084300000000  0.4249600000000  0.4391720000000 1.0
C      1  0.4925200000000  0.4691320000000  0.4307500000000 1.0
C      1  0.4855840000000  0.4347950000000  0.5383480000000 1.0
C      1  0.4440290000000  0.4538580000000  0.5188480000000 1.0
C      1  0.4497660000000  0.4613130000000  0.4684440000000 1.0
C      1  0.5561840000000  0.5524190000000  0.4602770000000 1.0
C      1  0.4989170000000  0.5835900000000  0.5240490000000 1.0
C      1  0.4658060000000  0.5337770000000  0.5272970000000 1.0
C      1  0.4990020000000  0.5228350000000  0.4288200000000 1.0
C      1  0.4581610000000  0.4800510000000  0.5260470000000 1.0
C      1  0.4838530000000  0.4456230000000  0.5676600000000 1.0
C      1  0.4612470000000  0.5793800000000  0.4675270000000 1.0
C      1  0.4713730000000  0.4886450000000  0.4327690000000 1.0
C      1  0.5226370000000  0.4963710000000  0.4934940000000 1.0
C      1  0.5354740000000  0.4032220000000  0.5012010000000 1.0
C      1  0.4679170000000  0.5774210000000  0.5466310000000 1.0
C      1  0.5318590000000  0.4112360000000  0.5284160000000 1.0
C      1  0.4353880000000  0.5332970000000  0.4594920000000 1.0
C      1  0.4880280000000  0.4434950000000  0.4436790000000 1.0
C      1  0.5599310000000  0.5290410000000  0.5030240000000 1.0
C      1  0.5303070000000  0.4688840000000  0.5609970000000 1.0
C      1  0.5801660000000  0.5079560000000  0.4605680000000 1.0
C      1  0.4641370000000  0.4912390000000  0.4978480000000 1.0
C      1  0.4603490000000  0.4288310000000  0.5201880000000 1.0
C      1  0.5059570000000  0.5124840000000  0.5120710000000 1.0
C      1  0.5573170000000  0.4616850000000  0.4893470000000 1.0
C      1  0.5125180000000  0.5704420000000  0.5472240000000 1.0
C      1  0.5301330000000  0.5543430000000  0.4463450000000 1.0
C      1  0.5310880000000  0.4613470000000  0.5318600000000 1.0
C      1  0.5587150000000  0.5246050000000  0.4726110000000 1.0
C      1  0.5158250000000  0.5290290000000  0.4499670000000 1.0
C      1  0.4970280000000  0.5114840000000  0.5923620000000 1.0
C      1  0.5465750000000  0.5376750000000  0.5616250000000 1.0
C      1  0.5447580000000  0.5779960000000  0.5017700000000 1.0
C      1  0.5329330000000  0.5090880000000  0.4655680000000 1.0
C      1  0.4882080000000  0.5607900000000  0.5603570000000 1.0
C      1  0.5525770000000  0.5111790000000  0.5496000000000 1.0
C      1  0.4257040000000  0.5223500000000  0.5056280000000 1.0
C      1  0.4318630000000  0.5044040000000  0.4612750000000 1.0
C      1  0.5329210000000  0.4580970000000  0.4694120000000 1.0
C      1  0.4640750000000  0.4654510000000  0.5742710000000 1.0
C      1  0.4658460000000  0.5634400000000  0.5199410000000 1.0
C      1  0.5145740000000  0.5831350000000  0.4986830000000 1.0
C      1  0.4754070000000  0.5131480000000  0.4200310000000 1.0
C      1  0.4887150000000  0.5837990000000  0.4628480000000 1.0
C      1  0.4322150000000  0.5444720000000  0.4863970000000 1.0
C      1  0.4836820000000  0.5307430000000  0.5524080000000 1.0
C      1  0.5447030000000  0.4822630000000  0.5099440000000 1.0
C      1  0.4855190000000  0.4796640000000  0.5394080000000 1.0
C      1  0.5261480000000  0.4286540000000  0.4606260000000 1.0
C      1  0.5591000000000  0.5745560000000  0.4777580000000 1.0
C      1  0.4556280000000  0.4927990000000  0.5698950000000 1.0
C      1  0.5099810000000  0.4729950000000  0.4818100000000 1.0
C      1  0.5112320000000  0.5545620000000  0.4854980000000 1.0
C      1  0.5606500000000  0.5055290000000  0.5210080000000 1.0
C      1  0.4403640000000  0.4965050000000  0.5438680000000 1.0
C      1  0.5229210000000  0.5147000000000  0.5825260000000 1.0
C      1  0.4456900000000  0.5737040000000  0.4448850000000 1.0
C      1  0.5194970000000  0.4775150000000  0.4262830000000 1.0
C      1  0.5021560000000  0.5050930000000  0.5404840000000 1.0
C      1  0.4638510000000  0.4377630000000  0.4604790000000 1.0
C      1  0.4888730000000  0.4619510000000  0.4972840000000 1.0
C      1  0.4332950000000  0.5506190000000  0.4373800000000 1.0
C      1  0.4999280000000  0.4585090000000  0.5261170000000 1.0
C      1  0.5267750000000  0.4982510000000  0.5583410000000 1.0
C      1  0.5613890000000  0.4115330000000  0.4919190000000 1.0
C      1  0.4483600000000  0.4832960000000  0.4496330000000 1.0
C      1  0.4894440000000  0.4288200000000  0.4949990000000 1.0
C      1  0.4382210000000  0.5237780000000  0.5324250000000 1.0
C      1  0.4319790000000  0.4610840000000  0.4923950000000 1.0
C      1  0.5387950000000  0.4816240000000  0.4485650000000 1.0
C      1  0.4324420000000  0.4964800000000  0.4901370000000 1.0
C      1  0.5310630000000  0.5492780000000  0.5405990000000 1.0
C      1  0.4742120000000  0.5155780000000  0.5763240000000 1.0
C      1  0.5150610000000  0.5781180000000  0.4548130000000 1.0
C      1  0.5098130000000  0.4549880000000  0.5741230000000 1.0
C      1  0.5144240000000  0.4139360000000  0.4833310000000 1.0
C      1  0.4855690000000  0.5405640000000  0.4847810000000 1.0
C      1  0.4507800000000  0.5668740000000  0.4929340000000 1.0
C      1  0.5463240000000  0.4358240000000  0.5288110000000 1.0
C      1  0.5695530000000  0.4833040000000  0.4474830000000 1.0
C      1  0.4790460000000  0.5194790000000  0.5033290000000 1.0
C      1  0.4645010000000  0.4190100000000  0.4830260000000 1.0
END
