TITL C-951337-3020-517 1.54749354709188e-06 125000 -719.74412334144 0 0 116 (C1) n - 1
REM
REM in /home/bkarasulu/work/CARBON/AIRSS/Generating-Clusters/EDIP-Nigel-Params/with-SteepDescent/Only-C1/SD-CG/HFTN-CG
REM
REM
REM
REM
REM
REM ./C.cell (11c1c37f851c82e70ff6c80c92926a4b)
REM
REM compiler GCC version 9.2.1 20190827 (Red Hat 9.2.1-1)
REM options -cpp -mtune=generic -march=x86-64 -g -O0 -fpre-include=/usr/include/finclude/math-vector-fortran.h
REM seed 1774287224 -1945418915 1115725117 1388431776 -2015896206 746348702 -917055847 -242356115 1707655797 -335495006 -65207022 44818398 -346887845 1467566651 -866335635 -1645909026 643608483 1660819724 -1516552700 -314305025 -1696112215 -1645441477 45892574 1527419850 1156131736 1778734341 -78299939 -1344846934 1693825687 1352419773 1977793634 1409167238 -27129634
REM
CELL 1.54180   50.00000   50.00000   50.00000   90.00000   90.00000   90.00000
LATT -1
SFAC C  
C      1  0.5674830000000  0.5335160000000  0.5783060000000 1.0
C      1  0.4534820000000  0.5216450000000  0.4442220000000 1.0
C      1  0.4342030000000  0.5617380000000  0.5328990000000 1.0
C      1  0.4621680000000  0.5822580000000  0.5036050000000 1.0
C      1  0.5226780000000  0.4302090000000  0.4571440000000 1.0
C      1  0.4884190000000  0.4317220000000  0.5562000000000 1.0
C      1  0.4579270000000  0.4576870000000  0.5817130000000 1.0
C      1  0.5329680000000  0.5766090000000  0.4804470000000 1.0
C      1  0.5342660000000  0.5743900000000  0.5132260000000 1.0
C      1  0.5670040000000  0.4292350000000  0.4993990000000 1.0
C      1  0.4734410000000  0.5007120000000  0.5684760000000 1.0
C      1  0.5096850000000  0.4848790000000  0.4499550000000 1.0
C      1  0.6014350000000  0.5112730000000  0.5293060000000 1.0
C      1  0.5223610000000  0.4129100000000  0.4806040000000 1.0
C      1  0.5370010000000  0.4237990000000  0.5592320000000 1.0
C      1  0.4036160000000  0.5030490000000  0.5233570000000 1.0
C      1  0.5364720000000  0.5426680000000  0.5092500000000 1.0
C      1  0.5628620000000  0.4846630000000  0.5715140000000 1.0
C      1  0.4684200000000  0.4708600000000  0.4799140000000 1.0
C      1  0.4040560000000  0.4741280000000  0.5181770000000 1.0
C      1  0.4881610000000  0.5677530000000  0.5383200000000 1.0
C      1  0.4977190000000  0.5200050000000  0.5258000000000 1.0
C      1  0.4660620000000  0.4215720000000  0.5425270000000 1.0
C      1  0.5428180000000  0.4139970000000  0.5010550000000 1.0
C      1  0.5762880000000  0.4468480000000  0.5207680000000 1.0
C      1  0.4216220000000  0.5123460000000  0.5451750000000 1.0
C      1  0.5223090000000  0.4780020000000  0.4238760000000 1.0
C      1  0.4643000000000  0.5837320000000  0.4495830000000 1.0
C      1  0.4999170000000  0.4636160000000  0.3977660000000 1.0
C      1  0.5858410000000  0.4554890000000  0.4784380000000 1.0
C      1  0.4379490000000  0.4669440000000  0.4821950000000 1.0
C      1  0.4458320000000  0.5636440000000  0.4562020000000 1.0
C      1  0.5730240000000  0.5468770000000  0.5534240000000 1.0
C      1  0.4297040000000  0.4971210000000  0.4789140000000 1.0
C      1  0.5307490000000  0.5567560000000  0.4307260000000 1.0
C      1  0.5663940000000  0.4888640000000  0.4410520000000 1.0
C      1  0.4506540000000  0.4834080000000  0.5744920000000 1.0
C      1  0.4262360000000  0.4926270000000  0.5646590000000 1.0
C      1  0.5150970000000  0.5157670000000  0.4061170000000 1.0
C      1  0.4886000000000  0.5074930000000  0.4537490000000 1.0
C      1  0.5164210000000  0.5172540000000  0.5895350000000 1.0
C      1  0.5016600000000  0.5587930000000  0.5642080000000 1.0
C      1  0.5026330000000  0.5329160000000  0.4602220000000 1.0
C      1  0.5040220000000  0.5072280000000  0.4983970000000 1.0
C      1  0.5132730000000  0.4212960000000  0.5455870000000 1.0
C      1  0.4587620000000  0.5791080000000  0.5369500000000 1.0
C      1  0.4834770000000  0.4519120000000  0.4956350000000 1.0
C      1  0.4982470000000  0.4057550000000  0.4962980000000 1.0
C      1  0.4339870000000  0.4440700000000  0.4616310000000 1.0
C      1  0.4749060000000  0.4345040000000  0.4413560000000 1.0
C      1  0.4948980000000  0.5375170000000  0.5848760000000 1.0
C      1  0.4858210000000  0.5454690000000  0.5192260000000 1.0
C      1  0.5638050000000  0.5366100000000  0.4569680000000 1.0
C      1  0.5268110000000  0.5272510000000  0.5358520000000 1.0
C      1  0.4907260000000  0.5958730000000  0.4993350000000 1.0
C      1  0.5733600000000  0.5259990000000  0.4817120000000 1.0
C      1  0.4248630000000  0.4827550000000  0.4330680000000 1.0
C      1  0.5024040000000  0.5548930000000  0.4393070000000 1.0
C      1  0.4172590000000  0.5716390000000  0.5112920000000 1.0
C      1  0.5895530000000  0.5026650000000  0.4827530000000 1.0
C      1  0.5125910000000  0.4423410000000  0.4119280000000 1.0
C      1  0.4726510000000  0.4239000000000  0.4935050000000 1.0
C      1  0.4339710000000  0.4563780000000  0.4342250000000 1.0
C      1  0.5825530000000  0.4813020000000  0.4648090000000 1.0
C      1  0.5506030000000  0.4625900000000  0.5854480000000 1.0
C      1  0.5460820000000  0.5605220000000  0.4566110000000 1.0
C      1  0.4852020000000  0.4555120000000  0.5746710000000 1.0
C      1  0.4603080000000  0.4513380000000  0.4228530000000 1.0
C      1  0.5127800000000  0.4037600000000  0.5227300000000 1.0
C      1  0.4732320000000  0.4704170000000  0.4049500000000 1.0
C      1  0.5373680000000  0.5298390000000  0.4181930000000 1.0
C      1  0.5795770000000  0.5294350000000  0.5306250000000 1.0
C      1  0.5235750000000  0.4844950000000  0.4989930000000 1.0
C      1  0.5567320000000  0.4409650000000  0.5679460000000 1.0
C      1  0.4289860000000  0.5402730000000  0.5524470000000 1.0
C      1  0.4540160000000  0.4192320000000  0.5173180000000 1.0
C      1  0.5938830000000  0.4638020000000  0.5055920000000 1.0
C      1  0.4920200000000  0.5803990000000  0.4508680000000 1.0
C      1  0.5182460000000  0.4865360000000  0.5500670000000 1.0
C      1  0.4685070000000  0.5260380000000  0.5833790000000 1.0
C      1  0.5494020000000  0.4669670000000  0.4315180000000 1.0
C      1  0.5068860000000  0.5860730000000  0.5225050000000 1.0
C      1  0.4243990000000  0.5731450000000  0.4730170000000 1.0
C      1  0.4334400000000  0.5892420000000  0.4948010000000 1.0
C      1  0.4584200000000  0.4250090000000  0.4644660000000 1.0
C      1  0.4607460000000  0.5413090000000  0.4694480000000 1.0
C      1  0.4889470000000  0.5041140000000  0.4111170000000 1.0
C      1  0.5004460000000  0.4855770000000  0.5748960000000 1.0
C      1  0.5126800000000  0.4724840000000  0.5248190000000 1.0
C      1  0.5780190000000  0.4493690000000  0.5497520000000 1.0
C      1  0.5029880000000  0.4291450000000  0.4355860000000 1.0
C      1  0.5229680000000  0.4715630000000  0.4725290000000 1.0
C      1  0.5448130000000  0.4971960000000  0.5519850000000 1.0
C      1  0.4837210000000  0.4659530000000  0.5211750000000 1.0
C      1  0.4852720000000  0.5463860000000  0.4177110000000 1.0
C      1  0.5063880000000  0.5885280000000  0.4750170000000 1.0
C      1  0.4788640000000  0.4991550000000  0.4813360000000 1.0
C      1  0.5508890000000  0.5666930000000  0.5458890000000 1.0
C      1  0.5932750000000  0.4929500000000  0.5091840000000 1.0
C      1  0.5183070000000  0.5302970000000  0.4854020000000 1.0
C      1  0.4300510000000  0.5040540000000  0.4498450000000 1.0
C      1  0.4639790000000  0.4881740000000  0.5217000000000 1.0
C      1  0.4533240000000  0.5112620000000  0.4926540000000 1.0
C      1  0.4051510000000  0.5044150000000  0.4938840000000 1.0
C      1  0.4472320000000  0.5414970000000  0.5736340000000 1.0
C      1  0.5287720000000  0.5487890000000  0.5569860000000 1.0
C      1  0.4671910000000  0.5525920000000  0.4977980000000 1.0
C      1  0.5458540000000  0.4473340000000  0.4530710000000 1.0
C      1  0.5390680000000  0.5349140000000  0.5806560000000 1.0
C      1  0.4687040000000  0.5239050000000  0.4179830000000 1.0
C      1  0.5873940000000  0.4745310000000  0.5599680000000 1.0
C      1  0.5660970000000  0.5381370000000  0.5064920000000 1.0
C      1  0.4263660000000  0.4588200000000  0.5085220000000 1.0
C      1  0.4740930000000  0.5075980000000  0.5393810000000 1.0
C      1  0.4296390000000  0.4322740000000  0.5155560000000 1.0
C      1  0.5572210000000  0.5171550000000  0.4365630000000 1.0
END
