TITL C-950525-1983-627 2.07038575960768e-06 125000 -1154.04514505154 0 0 183 (C1) n - 1
REM
REM in /home/bkarasulu/work/CARBON/AIRSS/Generating-Clusters/EDIP-Nigel-Params/with-SteepDescent/Only-C1/SD-CG/HFTN-CG
REM
REM
REM
REM
REM
REM ./C.cell (11c1c37f851c82e70ff6c80c92926a4b)
REM
REM compiler GCC version 9.2.1 20190827 (Red Hat 9.2.1-1)
REM options -cpp -mtune=generic -march=x86-64 -g -O0 -fpre-include=/usr/include/finclude/math-vector-fortran.h
REM seed -710437002 114203288 320026722 -1139207985 -442331956 -1077802218 -451939853 2094775586 -1620105261 491292573 154364315 154998979 -162809358 826105494 1700866386 -1114251837 233339396 -590887477 455335195 1493765661 -554428840 -1037240068 182436245 2099118577 1473364092 -713183563 1241679607 1703161855 215335996 2019187522 -811080476 566986090 -586504229
REM
CELL 1.54180   50.00000   50.00000   50.00000   90.00000   90.00000   90.00000
LATT -1
SFAC C  
C      1  0.4189820000000  0.4271610000000  0.4426010000000 1.0
C      1  0.4333320000000  0.3977410000000  0.5152820000000 1.0
C      1  0.4196670000000  0.4768620000000  0.4340650000000 1.0
C      1  0.5483490000000  0.6036250000000  0.5236550000000 1.0
C      1  0.4579460000000  0.5920570000000  0.5707520000000 1.0
C      1  0.3883360000000  0.4751320000000  0.4683440000000 1.0
C      1  0.4646530000000  0.4378390000000  0.4446400000000 1.0
C      1  0.4373350000000  0.4090840000000  0.4682970000000 1.0
C      1  0.5168390000000  0.5777040000000  0.4355620000000 1.0
C      1  0.5416610000000  0.3971040000000  0.4883750000000 1.0
C      1  0.5104040000000  0.6232140000000  0.5060130000000 1.0
C      1  0.5089510000000  0.4658940000000  0.5578790000000 1.0
C      1  0.4279650000000  0.5571080000000  0.5526790000000 1.0
C      1  0.5079140000000  0.3899180000000  0.5197090000000 1.0
C      1  0.4643870000000  0.3931270000000  0.4766320000000 1.0
C      1  0.3950100000000  0.5033510000000  0.4605810000000 1.0
C      1  0.5270180000000  0.4872370000000  0.5919790000000 1.0
C      1  0.4856170000000  0.4237600000000  0.5368210000000 1.0
C      1  0.4792840000000  0.5137350000000  0.3803940000000 1.0
C      1  0.5984910000000  0.5247800000000  0.5128270000000 1.0
C      1  0.4630570000000  0.4666010000000  0.5382930000000 1.0
C      1  0.4918170000000  0.5299390000000  0.4943850000000 1.0
C      1  0.4445060000000  0.5139010000000  0.4615500000000 1.0
C      1  0.5449280000000  0.5723220000000  0.5711120000000 1.0
C      1  0.4861130000000  0.4723180000000  0.4041640000000 1.0
C      1  0.4483530000000  0.5713490000000  0.4462390000000 1.0
C      1  0.5376000000000  0.5173650000000  0.5555560000000 1.0
C      1  0.5298460000000  0.4178030000000  0.5640560000000 1.0
C      1  0.5428580000000  0.4728090000000  0.5302520000000 1.0
C      1  0.4655410000000  0.5205180000000  0.5345460000000 1.0
C      1  0.5928330000000  0.4480830000000  0.5402590000000 1.0
C      1  0.5937590000000  0.4439030000000  0.4914270000000 1.0
C      1  0.5562860000000  0.4251220000000  0.5701690000000 1.0
C      1  0.4805570000000  0.4282840000000  0.5673280000000 1.0
C      1  0.4848880000000  0.4740410000000  0.4612330000000 1.0
C      1  0.5368770000000  0.4538460000000  0.4830750000000 1.0
C      1  0.5045400000000  0.4509990000000  0.4595650000000 1.0
C      1  0.5733180000000  0.4461760000000  0.5629670000000 1.0
C      1  0.5513230000000  0.5306090000000  0.5953140000000 1.0
C      1  0.5582330000000  0.5221020000000  0.4641340000000 1.0
C      1  0.5374560000000  0.4151790000000  0.4433870000000 1.0
C      1  0.4102170000000  0.5490880000000  0.4432160000000 1.0
C      1  0.5892720000000  0.5467950000000  0.4385650000000 1.0
C      1  0.5350900000000  0.5032930000000  0.4234210000000 1.0
C      1  0.4189190000000  0.5869880000000  0.5090060000000 1.0
C      1  0.4948630000000  0.4014900000000  0.4717530000000 1.0
C      1  0.4727880000000  0.5703460000000  0.5804760000000 1.0
C      1  0.4929600000000  0.5167250000000  0.4413790000000 1.0
C      1  0.5884300000000  0.4974110000000  0.4235180000000 1.0
C      1  0.5095480000000  0.4444360000000  0.6019250000000 1.0
C      1  0.4510030000000  0.4364230000000  0.4720100000000 1.0
C      1  0.5187930000000  0.5827300000000  0.5679860000000 1.0
C      1  0.5167090000000  0.6048710000000  0.5453430000000 1.0
C      1  0.6086110000000  0.5178070000000  0.4841290000000 1.0
C      1  0.5480240000000  0.5294120000000  0.5096520000000 1.0
C      1  0.4747950000000  0.5245510000000  0.5987010000000 1.0
C      1  0.4980000000000  0.4975180000000  0.3934560000000 1.0
C      1  0.4410900000000  0.4653820000000  0.4194330000000 1.0
C      1  0.4631890000000  0.4381320000000  0.5247470000000 1.0
C      1  0.3854400000000  0.4734310000000  0.4976850000000 1.0
C      1  0.4187410000000  0.5762670000000  0.4828670000000 1.0
C      1  0.4969740000000  0.5284800000000  0.5779550000000 1.0
C      1  0.4921450000000  0.5539780000000  0.4029100000000 1.0
C      1  0.4974490000000  0.5570220000000  0.5360660000000 1.0
C      1  0.5024010000000  0.5761640000000  0.4905040000000 1.0
C      1  0.6157660000000  0.4892040000000  0.4804050000000 1.0
C      1  0.5783880000000  0.5237450000000  0.4218610000000 1.0
C      1  0.4688530000000  0.5363010000000  0.3940490000000 1.0
C      1  0.5557240000000  0.4596010000000  0.5074780000000 1.0
C      1  0.5998630000000  0.4731300000000  0.4997720000000 1.0
C      1  0.5748110000000  0.4353030000000  0.4692990000000 1.0
C      1  0.4021240000000  0.4483300000000  0.5217700000000 1.0
C      1  0.5385840000000  0.5588880000000  0.4251490000000 1.0
C      1  0.5191960000000  0.5419990000000  0.4043250000000 1.0
C      1  0.5942060000000  0.5425200000000  0.5562840000000 1.0
C      1  0.5269180000000  0.5163610000000  0.5837380000000 1.0
C      1  0.5920450000000  0.5538930000000  0.5100710000000 1.0
C      1  0.5082060000000  0.4383380000000  0.5730850000000 1.0
C      1  0.4252730000000  0.4849480000000  0.5555900000000 1.0
C      1  0.6100600000000  0.5224660000000  0.5409830000000 1.0
C      1  0.5612110000000  0.5492300000000  0.5745100000000 1.0
C      1  0.4720750000000  0.4719270000000  0.4904570000000 1.0
C      1  0.4171720000000  0.4365220000000  0.5447190000000 1.0
C      1  0.4591650000000  0.4489280000000  0.5785570000000 1.0
C      1  0.4902360000000  0.6040330000000  0.4664830000000 1.0
C      1  0.5315490000000  0.4569270000000  0.4150690000000 1.0
C      1  0.4208270000000  0.5298590000000  0.4245270000000 1.0
C      1  0.4943750000000  0.4347190000000  0.4361170000000 1.0
C      1  0.4164330000000  0.5471230000000  0.5277460000000 1.0
C      1  0.5875580000000  0.4311440000000  0.5171220000000 1.0
C      1  0.5606070000000  0.4227250000000  0.5180740000000 1.0
C      1  0.6068850000000  0.4727130000000  0.5308410000000 1.0
C      1  0.4682690000000  0.5845780000000  0.4312490000000 1.0
C      1  0.5499480000000  0.4706710000000  0.4581720000000 1.0
C      1  0.5226230000000  0.4294910000000  0.4981790000000 1.0
C      1  0.4643970000000  0.6054810000000  0.5123770000000 1.0
C      1  0.5522160000000  0.4150620000000  0.4686390000000 1.0
C      1  0.5365420000000  0.6144770000000  0.4992520000000 1.0
C      1  0.4429460000000  0.5819360000000  0.5497220000000 1.0
C      1  0.4916540000000  0.6154880000000  0.5260010000000 1.0
C      1  0.4271360000000  0.4555260000000  0.4788770000000 1.0
C      1  0.5552000000000  0.4812860000000  0.6008140000000 1.0
C      1  0.5671010000000  0.5684910000000  0.4393610000000 1.0
C      1  0.5708890000000  0.4530370000000  0.4451700000000 1.0
C      1  0.4976310000000  0.4304520000000  0.4821650000000 1.0
C      1  0.5557930000000  0.3975890000000  0.5301390000000 1.0
C      1  0.4306590000000  0.5112090000000  0.4898100000000 1.0
C      1  0.4421490000000  0.4361700000000  0.4259290000000 1.0
C      1  0.4572040000000  0.5472700000000  0.5907660000000 1.0
C      1  0.3851160000000  0.5079060000000  0.5318930000000 1.0
C      1  0.4752100000000  0.4753920000000  0.5870370000000 1.0
C      1  0.6138630000000  0.4781970000000  0.4547880000000 1.0
C      1  0.4651700000000  0.5076440000000  0.4346580000000 1.0
C      1  0.5810770000000  0.5595780000000  0.5365330000000 1.0
C      1  0.4728640000000  0.5784820000000  0.4982390000000 1.0
C      1  0.5505410000000  0.4367600000000  0.4262320000000 1.0
C      1  0.4977360000000  0.5602670000000  0.5663400000000 1.0
C      1  0.5400110000000  0.5761230000000  0.5212370000000 1.0
C      1  0.5036150000000  0.4482160000000  0.4101840000000 1.0
C      1  0.5150020000000  0.5163490000000  0.5386100000000 1.0
C      1  0.5072280000000  0.4083260000000  0.4432460000000 1.0
C      1  0.4368690000000  0.5066400000000  0.5746670000000 1.0
C      1  0.4904180000000  0.5662180000000  0.4302310000000 1.0
C      1  0.5647370000000  0.5806610000000  0.4674360000000 1.0
C      1  0.4803320000000  0.5404480000000  0.5191990000000 1.0
C      1  0.4008480000000  0.5193410000000  0.4843770000000 1.0
C      1  0.4836270000000  0.4804720000000  0.5585810000000 1.0
C      1  0.5025650000000  0.4975580000000  0.4631620000000 1.0
C      1  0.5623530000000  0.4934280000000  0.4715980000000 1.0
C      1  0.5711090000000  0.5096590000000  0.5164060000000 1.0
C      1  0.4881590000000  0.5106710000000  0.5523010000000 1.0
C      1  0.5311650000000  0.4776990000000  0.4361410000000 1.0
C      1  0.5697760000000  0.5083740000000  0.5990770000000 1.0
C      1  0.5802890000000  0.4946110000000  0.5668630000000 1.0
C      1  0.4190260000000  0.4090790000000  0.4921310000000 1.0
C      1  0.5109860000000  0.4369250000000  0.5244600000000 1.0
C      1  0.5137660000000  0.4655250000000  0.5291710000000 1.0
C      1  0.4550790000000  0.5539400000000  0.4924770000000 1.0
C      1  0.5264880000000  0.5101020000000  0.5133710000000 1.0
C      1  0.4108150000000  0.4373960000000  0.4961780000000 1.0
C      1  0.5582470000000  0.4979160000000  0.5444210000000 1.0
C      1  0.4511050000000  0.5288460000000  0.4177840000000 1.0
C      1  0.4881370000000  0.5447030000000  0.4525270000000 1.0
C      1  0.3852550000000  0.5013230000000  0.5040920000000 1.0
C      1  0.5391430000000  0.5958680000000  0.4756630000000 1.0
C      1  0.5511180000000  0.5252020000000  0.4346110000000 1.0
C      1  0.3975760000000  0.4901080000000  0.5493980000000 1.0
C      1  0.5518300000000  0.5529230000000  0.5347880000000 1.0
C      1  0.4384290000000  0.5979180000000  0.5262940000000 1.0
C      1  0.4193910000000  0.5053810000000  0.4433820000000 1.0
C      1  0.3927510000000  0.5340020000000  0.5335410000000 1.0
C      1  0.4711770000000  0.4415960000000  0.4941560000000 1.0
C      1  0.5174300000000  0.5981130000000  0.4560900000000 1.0
C      1  0.5389650000000  0.5380540000000  0.4814220000000 1.0
C      1  0.4585770000000  0.4996930000000  0.5937810000000 1.0
C      1  0.5104890000000  0.5149840000000  0.4148370000000 1.0
C      1  0.4297160000000  0.4556580000000  0.5653700000000 1.0
C      1  0.5940460000000  0.4727930000000  0.4360020000000 1.0
C      1  0.4395750000000  0.4822510000000  0.4982390000000 1.0
C      1  0.5857670000000  0.5360110000000  0.4672000000000 1.0
C      1  0.5293440000000  0.3997400000000  0.5395780000000 1.0
C      1  0.6063920000000  0.4950290000000  0.5513280000000 1.0
C      1  0.4925820000000  0.4822330000000  0.5095550000000 1.0
C      1  0.4388310000000  0.5362470000000  0.5708600000000 1.0
C      1  0.4578910000000  0.5462300000000  0.4621250000000 1.0
C      1  0.4413680000000  0.4839450000000  0.5291150000000 1.0
C      1  0.4798490000000  0.3883510000000  0.5260530000000 1.0
C      1  0.4057780000000  0.5512350000000  0.4713810000000 1.0
C      1  0.5146290000000  0.3871820000000  0.4908460000000 1.0
C      1  0.5720770000000  0.4850200000000  0.4982880000000 1.0
C      1  0.5029500000000  0.4719910000000  0.6014870000000 1.0
C      1  0.4399400000000  0.4199060000000  0.5347320000000 1.0
C      1  0.5049720000000  0.5043030000000  0.4935240000000 1.0
C      1  0.4091800000000  0.4571000000000  0.4535030000000 1.0
C      1  0.5111920000000  0.5769230000000  0.5199070000000 1.0
C      1  0.4386340000000  0.5325490000000  0.5112880000000 1.0
C      1  0.5777310000000  0.5591510000000  0.4846820000000 1.0
C      1  0.5076260000000  0.5485150000000  0.4780170000000 1.0
C      1  0.4672960000000  0.4778430000000  0.4269060000000 1.0
C      1  0.4382760000000  0.5902930000000  0.4656590000000 1.0
C      1  0.4592040000000  0.3860730000000  0.5052950000000 1.0
C      1  0.5756800000000  0.4683860000000  0.5810780000000 1.0
C      1  0.4612700000000  0.6088920000000  0.4768700000000 1.0
END
