TITL C-950532-2784-583 1.54758881005919e-08 125000 -526.641238512276 0 0 85 (C1) n - 1
REM
REM in /home/bkarasulu/work/CARBON/AIRSS/Generating-Clusters/EDIP-Nigel-Params/with-SteepDescent/Only-C1/SD-CG/HFTN-CG
REM
REM
REM
REM
REM
REM ./C.cell (11c1c37f851c82e70ff6c80c92926a4b)
REM
REM compiler GCC version 9.2.1 20190827 (Red Hat 9.2.1-1)
REM options -cpp -mtune=generic -march=x86-64 -g -O0 -fpre-include=/usr/include/finclude/math-vector-fortran.h
REM seed 1836496929 -32617751 2107583527 2121263796 -1309675137 -1714501983 -506536323 -1130287438 -2113564303 -1222575197 1530581666 -2013975853 -269976832 1816235640 1203311611 1103495506 1359725175 -2080212755 1118720202 -1292201835 633566891 -809211775 1099087644 1500435981 -1223500472 -1776214529 -1198778538 54426730 -942065509 -1658992659 1081401504 -586317657 2005365567
REM
CELL 1.54180   50.00000   50.00000   50.00000   90.00000   90.00000   90.00000
LATT -1
SFAC C  
C      1  0.5069350000000  0.4414700000000  0.4580770000000 1.0
C      1  0.5232000000000  0.4898070000000  0.5542100000000 1.0
C      1  0.4375220000000  0.5091810000000  0.4719100000000 1.0
C      1  0.5179480000000  0.4685120000000  0.4681570000000 1.0
C      1  0.4795420000000  0.4476170000000  0.4450980000000 1.0
C      1  0.4520130000000  0.4283690000000  0.5018620000000 1.0
C      1  0.5563210000000  0.5285660000000  0.5076460000000 1.0
C      1  0.5770400000000  0.4901660000000  0.5159430000000 1.0
C      1  0.5397330000000  0.4712340000000  0.5379090000000 1.0
C      1  0.5111900000000  0.5132090000000  0.5371210000000 1.0
C      1  0.5025350000000  0.4230480000000  0.4824570000000 1.0
C      1  0.4175870000000  0.5150870000000  0.4919920000000 1.0
C      1  0.4374700000000  0.4521730000000  0.5413810000000 1.0
C      1  0.5528950000000  0.4238300000000  0.4591620000000 1.0
C      1  0.5215980000000  0.5752000000000  0.4624640000000 1.0
C      1  0.4910150000000  0.5171640000000  0.4257410000000 1.0
C      1  0.4674550000000  0.5276130000000  0.5088840000000 1.0
C      1  0.5716870000000  0.4917590000000  0.4326420000000 1.0
C      1  0.5014940000000  0.5607140000000  0.4488660000000 1.0
C      1  0.5130460000000  0.5827240000000  0.5155240000000 1.0
C      1  0.4652580000000  0.5159230000000  0.4381480000000 1.0
C      1  0.5542730000000  0.5371220000000  0.4604650000000 1.0
C      1  0.4388360000000  0.4737930000000  0.4585170000000 1.0
C      1  0.4722880000000  0.5695400000000  0.5380740000000 1.0
C      1  0.4969340000000  0.4819110000000  0.4836100000000 1.0
C      1  0.5271350000000  0.4200170000000  0.4983430000000 1.0
C      1  0.5154450000000  0.5234640000000  0.5828780000000 1.0
C      1  0.5646320000000  0.5166970000000  0.4809780000000 1.0
C      1  0.5396410000000  0.5068280000000  0.5733070000000 1.0
C      1  0.4755500000000  0.4710190000000  0.4263510000000 1.0
C      1  0.4664470000000  0.5137450000000  0.4822290000000 1.0
C      1  0.4875060000000  0.5700000000000  0.5108630000000 1.0
C      1  0.5433340000000  0.4642860000000  0.4864910000000 1.0
C      1  0.4400830000000  0.5220910000000  0.5584630000000 1.0
C      1  0.5126480000000  0.5293210000000  0.4878660000000 1.0
C      1  0.4927270000000  0.5416500000000  0.5061030000000 1.0
C      1  0.4840440000000  0.4813870000000  0.5878600000000 1.0
C      1  0.5211620000000  0.4239110000000  0.5271060000000 1.0
C      1  0.4741400000000  0.4642340000000  0.4933810000000 1.0
C      1  0.4425610000000  0.5701840000000  0.4901070000000 1.0
C      1  0.4429300000000  0.5641850000000  0.5361700000000 1.0
C      1  0.4532530000000  0.4887420000000  0.4359470000000 1.0
C      1  0.4592110000000  0.4527370000000  0.4664160000000 1.0
C      1  0.5301450000000  0.4302710000000  0.4418720000000 1.0
C      1  0.4748640000000  0.5603720000000  0.4608420000000 1.0
C      1  0.4919350000000  0.4304000000000  0.5272110000000 1.0
C      1  0.5382450000000  0.5526250000000  0.5493910000000 1.0
C      1  0.4359700000000  0.4485880000000  0.5135250000000 1.0
C      1  0.5286180000000  0.5133220000000  0.5099030000000 1.0
C      1  0.4874130000000  0.4592470000000  0.5206720000000 1.0
C      1  0.5467850000000  0.4831200000000  0.5121710000000 1.0
C      1  0.5364270000000  0.4438220000000  0.5395020000000 1.0
C      1  0.5107080000000  0.5354480000000  0.4376970000000 1.0
C      1  0.4834250000000  0.5504260000000  0.5578230000000 1.0
C      1  0.4793950000000  0.4197510000000  0.5023170000000 1.0
C      1  0.5708820000000  0.4658670000000  0.4728700000000 1.0
C      1  0.5742470000000  0.5184050000000  0.5298860000000 1.0
C      1  0.5513010000000  0.4340190000000  0.4869240000000 1.0
C      1  0.5348420000000  0.5531290000000  0.4769510000000 1.0
C      1  0.4548320000000  0.5390620000000  0.4536410000000 1.0
C      1  0.5688530000000  0.4659930000000  0.4431920000000 1.0
C      1  0.4864300000000  0.5110170000000  0.5849470000000 1.0
C      1  0.4694890000000  0.5765470000000  0.4853760000000 1.0
C      1  0.4998090000000  0.4738270000000  0.5642210000000 1.0
C      1  0.5450350000000  0.5012520000000  0.4311600000000 1.0
C      1  0.5398080000000  0.5291970000000  0.4360230000000 1.0
C      1  0.5195930000000  0.4903870000000  0.4445930000000 1.0
C      1  0.4995870000000  0.4884860000000  0.4218200000000 1.0
C      1  0.5572040000000  0.5268270000000  0.5552030000000 1.0
C      1  0.4800540000000  0.5076750000000  0.5351920000000 1.0
C      1  0.4792380000000  0.4767080000000  0.5429740000000 1.0
C      1  0.4548270000000  0.4679310000000  0.5568030000000 1.0
C      1  0.4962530000000  0.5087000000000  0.4689690000000 1.0
C      1  0.4302690000000  0.5056860000000  0.5377530000000 1.0
C      1  0.5813220000000  0.4919590000000  0.4856420000000 1.0
C      1  0.5124280000000  0.5389010000000  0.5562490000000 1.0
C      1  0.5514570000000  0.5583850000000  0.5026330000000 1.0
C      1  0.4370840000000  0.4737770000000  0.4982350000000 1.0
C      1  0.5370900000000  0.5703530000000  0.5245560000000 1.0
C      1  0.5486900000000  0.4495700000000  0.4302900000000 1.0
C      1  0.4239740000000  0.4965640000000  0.5118900000000 1.0
C      1  0.4701050000000  0.5223650000000  0.5603250000000 1.0
C      1  0.4319750000000  0.5486220000000  0.5570510000000 1.0
C      1  0.4437230000000  0.5502270000000  0.5102140000000 1.0
C      1  0.4574040000000  0.4709420000000  0.5847740000000 1.0
END
