TITL C-951333-8791-351 -2.31692637442861e-06 125000 -388.545033385866 0 0 64 (C1) n - 1
REM
REM in /home/bkarasulu/work/CARBON/AIRSS/Generating-Clusters/EDIP-Nigel-Params/with-SteepDescent/Only-C1/SD-CG/HFTN-CG
REM
REM
REM
REM
REM
REM ./C.cell (11c1c37f851c82e70ff6c80c92926a4b)
REM
REM compiler GCC version 9.2.1 20190827 (Red Hat 9.2.1-1)
REM options -cpp -mtune=generic -march=x86-64 -g -O0 -fpre-include=/usr/include/finclude/math-vector-fortran.h
REM seed -1689544397 -803078020 -1745962563 -1152689774 -725533969 -1409546196 1607185423 1359469315 1954340183 -1042040789 707233246 -370754588 -1792244765 2123856956 141287182 -383839738 -158280489 1160349760 -6271252 -408680913 2120447177 737027306 -674177603 -753312041 -1823971747 -1929478620 -500958833 1421709289 -582739161 -14302046 1043221494 1714543329 834330797
REM
CELL 1.54180   50.00000   50.00000   50.00000   90.00000   90.00000   90.00000
LATT -1
SFAC C  
C      1  0.5668100000000  0.4910900000000  0.5296830000000 1.0
C      1  0.4783320000000  0.4656830000000  0.4637140000000 1.0
C      1  0.5329500000000  0.5200490000000  0.4228750000000 1.0
C      1  0.5233250000000  0.5668530000000  0.5005340000000 1.0
C      1  0.4574450000000  0.4504690000000  0.5282440000000 1.0
C      1  0.5698940000000  0.5374330000000  0.5068100000000 1.0
C      1  0.4375340000000  0.4783180000000  0.4911400000000 1.0
C      1  0.5055630000000  0.4672920000000  0.5794140000000 1.0
C      1  0.4372230000000  0.5270360000000  0.5065010000000 1.0
C      1  0.5353570000000  0.5541820000000  0.4765950000000 1.0
C      1  0.5491570000000  0.4902480000000  0.4577020000000 1.0
C      1  0.4602090000000  0.5424180000000  0.4379230000000 1.0
C      1  0.4716370000000  0.4964520000000  0.5150030000000 1.0
C      1  0.4363140000000  0.4696940000000  0.5197130000000 1.0
C      1  0.4648140000000  0.5041470000000  0.4425980000000 1.0
C      1  0.5031940000000  0.4907560000000  0.4801920000000 1.0
C      1  0.5192020000000  0.4557970000000  0.4259390000000 1.0
C      1  0.5588450000000  0.4635900000000  0.5229550000000 1.0
C      1  0.4857250000000  0.5130580000000  0.5854890000000 1.0
C      1  0.5423180000000  0.4248170000000  0.4834340000000 1.0
C      1  0.5567220000000  0.5301540000000  0.4346260000000 1.0
C      1  0.4948770000000  0.5707210000000  0.4951860000000 1.0
C      1  0.4746590000000  0.5228770000000  0.5588240000000 1.0
C      1  0.5375980000000  0.4212880000000  0.4563680000000 1.0
C      1  0.4626030000000  0.4485880000000  0.5557790000000 1.0
C      1  0.4519610000000  0.5513890000000  0.4977470000000 1.0
C      1  0.5133930000000  0.5491130000000  0.4577470000000 1.0
C      1  0.5259050000000  0.5111870000000  0.5470750000000 1.0
C      1  0.5123810000000  0.5308600000000  0.5646880000000 1.0
C      1  0.5078980000000  0.4889150000000  0.5393130000000 1.0
C      1  0.4982750000000  0.4893850000000  0.5087040000000 1.0
C      1  0.5553940000000  0.5339950000000  0.4828070000000 1.0
C      1  0.4755450000000  0.5603330000000  0.5139260000000 1.0
C      1  0.4329180000000  0.5203570000000  0.5357160000000 1.0
C      1  0.4823070000000  0.5318040000000  0.4225760000000 1.0
C      1  0.4477950000000  0.5334800000000  0.5562340000000 1.0
C      1  0.4738350000000  0.4964260000000  0.5451980000000 1.0
C      1  0.4524550000000  0.4613350000000  0.4750590000000 1.0
C      1  0.5409610000000  0.4593230000000  0.4993960000000 1.0
C      1  0.5468440000000  0.4669880000000  0.5526400000000 1.0
C      1  0.4721980000000  0.5126840000000  0.4711660000000 1.0
C      1  0.4759930000000  0.4773030000000  0.4368470000000 1.0
C      1  0.4303330000000  0.4920090000000  0.5366200000000 1.0
C      1  0.4835260000000  0.5623200000000  0.5409530000000 1.0
C      1  0.4939060000000  0.4411220000000  0.4655170000000 1.0
C      1  0.5096030000000  0.5355000000000  0.4322730000000 1.0
C      1  0.5101090000000  0.5558560000000  0.5485100000000 1.0
C      1  0.4994210000000  0.4753600000000  0.4207720000000 1.0
C      1  0.5631140000000  0.5172780000000  0.4593310000000 1.0
C      1  0.5206970000000  0.4265300000000  0.5019820000000 1.0
C      1  0.5330700000000  0.4835220000000  0.4818670000000 1.0
C      1  0.4941230000000  0.4301990000000  0.4924340000000 1.0
C      1  0.5306360000000  0.5566710000000  0.5268670000000 1.0
C      1  0.4656280000000  0.5440730000000  0.4678630000000 1.0
C      1  0.5176820000000  0.4393370000000  0.4492380000000 1.0
C      1  0.5168980000000  0.4643990000000  0.5538090000000 1.0
C      1  0.5325240000000  0.4914350000000  0.4322550000000 1.0
C      1  0.5575500000000  0.5483040000000  0.5286200000000 1.0
C      1  0.5517940000000  0.4992600000000  0.5536610000000 1.0
C      1  0.4631700000000  0.4753300000000  0.5647840000000 1.0
C      1  0.4526200000000  0.5040330000000  0.4941060000000 1.0
C      1  0.4723420000000  0.4355030000000  0.5095560000000 1.0
C      1  0.4830290000000  0.4830040000000  0.5864850000000 1.0
C      1  0.4898580000000  0.5610670000000  0.4684180000000 1.0
END
