TITL C-951344-124-521 1.24200356701922e-06 125000 -276.180324382506 0 0 46 (C1) n - 1
REM
REM in /home/bkarasulu/work/CARBON/AIRSS/Generating-Clusters/EDIP-Nigel-Params/with-SteepDescent/Only-C1/SD-CG/HFTN-CG
REM
REM
REM
REM
REM
REM ./C.cell (11c1c37f851c82e70ff6c80c92926a4b)
REM
REM compiler GCC version 9.2.1 20190827 (Red Hat 9.2.1-1)
REM options -cpp -mtune=generic -march=x86-64 -g -O0 -fpre-include=/usr/include/finclude/math-vector-fortran.h
REM seed 472978959 1637858190 49405749 2065361785 1012072431 555247339 -851627403 1325226978 -1070560392 814748967 666109450 199363506 -1869504184 1644601415 -924802786 -7137541 860003550 1620934681 1547043838 -170586390 -1499964941 -160628166 -526352647 85317530 -263174146 1392524232 551409997 -553343490 -1473224315 -89919374 -2129257205 554464586 1533916089
REM
CELL 1.54180   50.00000   50.00000   50.00000   90.00000   90.00000   90.00000
LATT -1
SFAC C  
C      1  0.5654650000000  0.4886630000000  0.5198070000000 1.0
C      1  0.5101840000000  0.4799330000000  0.4293980000000 1.0
C      1  0.5497770000000  0.4663100000000  0.5310800000000 1.0
C      1  0.4290570000000  0.4985990000000  0.5045510000000 1.0
C      1  0.5313180000000  0.5200110000000  0.5439490000000 1.0
C      1  0.5322310000000  0.5153440000000  0.4445140000000 1.0
C      1  0.4599340000000  0.4518450000000  0.4755190000000 1.0
C      1  0.5166570000000  0.4611380000000  0.4787680000000 1.0
C      1  0.5484720000000  0.5152610000000  0.5188680000000 1.0
C      1  0.5154110000000  0.5058630000000  0.4243010000000 1.0
C      1  0.5548830000000  0.4993400000000  0.4494960000000 1.0
C      1  0.4550700000000  0.5247560000000  0.5377540000000 1.0
C      1  0.4799670000000  0.4578150000000  0.5195060000000 1.0
C      1  0.4685150000000  0.5578490000000  0.4964940000000 1.0
C      1  0.4767890000000  0.4926430000000  0.4701250000000 1.0
C      1  0.4915400000000  0.5001190000000  0.5632180000000 1.0
C      1  0.5124670000000  0.5753840000000  0.4809680000000 1.0
C      1  0.5222540000000  0.4335620000000  0.5132870000000 1.0
C      1  0.4394440000000  0.5320840000000  0.4693320000000 1.0
C      1  0.5215660000000  0.4749650000000  0.5310630000000 1.0
C      1  0.5184590000000  0.4949730000000  0.5530090000000 1.0
C      1  0.4961640000000  0.5680820000000  0.5022410000000 1.0
C      1  0.4607380000000  0.4737910000000  0.5353820000000 1.0
C      1  0.5685300000000  0.4755180000000  0.4927400000000 1.0
C      1  0.4728480000000  0.4796630000000  0.5599190000000 1.0
C      1  0.4758820000000  0.4410630000000  0.4959450000000 1.0
C      1  0.5120310000000  0.4644020000000  0.4511850000000 1.0
C      1  0.4840670000000  0.5261050000000  0.5517490000000 1.0
C      1  0.4553460000000  0.4755210000000  0.4633120000000 1.0
C      1  0.4522790000000  0.5475340000000  0.5192940000000 1.0
C      1  0.4246590000000  0.5146600000000  0.4834670000000 1.0
C      1  0.4857230000000  0.4964570000000  0.4993360000000 1.0
C      1  0.4652070000000  0.5424360000000  0.4714370000000 1.0
C      1  0.5332290000000  0.5078210000000  0.4924350000000 1.0
C      1  0.5050390000000  0.4500890000000  0.5327830000000 1.0
C      1  0.5254740000000  0.5537280000000  0.4722200000000 1.0
C      1  0.5099680000000  0.5409130000000  0.5448630000000 1.0
C      1  0.5551290000000  0.4956030000000  0.4771320000000 1.0
C      1  0.4871300000000  0.5217790000000  0.4693450000000 1.0
C      1  0.5141980000000  0.4849140000000  0.5005680000000 1.0
C      1  0.5497330000000  0.4463160000000  0.5099630000000 1.0
C      1  0.4850080000000  0.5263880000000  0.5121680000000 1.0
C      1  0.5087430000000  0.5606640000000  0.5255840000000 1.0
C      1  0.4492200000000  0.4984940000000  0.5238310000000 1.0
C      1  0.5192530000000  0.5261460000000  0.4695030000000 1.0
C      1  0.5049410000000  0.4354550000000  0.4885910000000 1.0
END
