TITL C-950526-5686-244 1.05627770940372e-06 125000 -716.389436637874 0 0 114 (C1) n - 1
REM
REM in /home/bkarasulu/work/CARBON/AIRSS/Generating-Clusters/EDIP-Nigel-Params/with-SteepDescent/Only-C1/SD-CG/HFTN-CG
REM
REM
REM
REM
REM
REM ./C.cell (11c1c37f851c82e70ff6c80c92926a4b)
REM
REM compiler GCC version 9.2.1 20190827 (Red Hat 9.2.1-1)
REM options -cpp -mtune=generic -march=x86-64 -g -O0 -fpre-include=/usr/include/finclude/math-vector-fortran.h
REM seed 957448620 290745281 1631054373 -1235926365 -1726915162 1977566834 -99080144 -470042181 916836960 1992108917 -357480373 -385080897 678519338 -145097995 -1091730230 -44464179 -1646664487 855286933 -1974665607 -865214992 -1129579601 -1348967793 1832824848 -485422681 -433429382 -181669316 44697483 432823117 396987277 -1126265153 824183331 677814413 -698278980
REM
CELL 1.54180   50.00000   50.00000   50.00000   90.00000   90.00000   90.00000
LATT -1
SFAC C  
C      1  0.4707660000000  0.5430790000000  0.4199760000000 1.0
C      1  0.5725410000000  0.5333570000000  0.5132930000000 1.0
C      1  0.4685240000000  0.4934700000000  0.4087130000000 1.0
C      1  0.5348890000000  0.5662800000000  0.4722470000000 1.0
C      1  0.5106700000000  0.4115990000000  0.5479760000000 1.0
C      1  0.5349990000000  0.4597520000000  0.5927080000000 1.0
C      1  0.4759320000000  0.4907310000000  0.4799500000000 1.0
C      1  0.4529440000000  0.5796250000000  0.4944500000000 1.0
C      1  0.5559050000000  0.4331640000000  0.5443370000000 1.0
C      1  0.4707420000000  0.4779170000000  0.5218960000000 1.0
C      1  0.4315940000000  0.5245690000000  0.4349310000000 1.0
C      1  0.4201980000000  0.5044290000000  0.4527200000000 1.0
C      1  0.5166690000000  0.5498410000000  0.5719270000000 1.0
C      1  0.4425920000000  0.4850280000000  0.4521980000000 1.0
C      1  0.5225460000000  0.4488410000000  0.5684830000000 1.0
C      1  0.5411220000000  0.4681000000000  0.4890820000000 1.0
C      1  0.4970280000000  0.4646330000000  0.5184670000000 1.0
C      1  0.4615040000000  0.5632410000000  0.4430290000000 1.0
C      1  0.5158640000000  0.5427860000000  0.4777780000000 1.0
C      1  0.5659270000000  0.5238750000000  0.4850430000000 1.0
C      1  0.4936250000000  0.4348670000000  0.5103710000000 1.0
C      1  0.5134330000000  0.4221670000000  0.5737240000000 1.0
C      1  0.5876150000000  0.5122290000000  0.5274530000000 1.0
C      1  0.4697560000000  0.5566490000000  0.5345290000000 1.0
C      1  0.4914110000000  0.5355550000000  0.4582300000000 1.0
C      1  0.5298980000000  0.4307830000000  0.4581000000000 1.0
C      1  0.5400890000000  0.5410130000000  0.4325940000000 1.0
C      1  0.4346450000000  0.5572670000000  0.4979900000000 1.0
C      1  0.4361030000000  0.4634930000000  0.4328440000000 1.0
C      1  0.5643720000000  0.4818380000000  0.5593410000000 1.0
C      1  0.4883170000000  0.5080110000000  0.5552520000000 1.0
C      1  0.4391980000000  0.5356900000000  0.4782890000000 1.0
C      1  0.5288950000000  0.5038110000000  0.5816240000000 1.0
C      1  0.5162180000000  0.4984750000000  0.5534360000000 1.0
C      1  0.4292800000000  0.4459370000000  0.4731010000000 1.0
C      1  0.4252630000000  0.4910190000000  0.4985310000000 1.0
C      1  0.4210060000000  0.5541570000000  0.5220150000000 1.0
C      1  0.4828380000000  0.4536830000000  0.4363620000000 1.0
C      1  0.5762330000000  0.5419940000000  0.4651690000000 1.0
C      1  0.4568340000000  0.5177340000000  0.4214690000000 1.0
C      1  0.5046200000000  0.4810330000000  0.4938940000000 1.0
C      1  0.4705780000000  0.5061680000000  0.5325790000000 1.0
C      1  0.5131180000000  0.4687340000000  0.6114620000000 1.0
C      1  0.5099280000000  0.4971630000000  0.6047240000000 1.0
C      1  0.4814870000000  0.4857540000000  0.4502740000000 1.0
C      1  0.4443420000000  0.5043480000000  0.5497290000000 1.0
C      1  0.5377780000000  0.5324630000000  0.5794630000000 1.0
C      1  0.5800860000000  0.4974590000000  0.4830000000000 1.0
C      1  0.5410460000000  0.5672500000000  0.5247000000000 1.0
C      1  0.5473520000000  0.4673130000000  0.4250860000000 1.0
C      1  0.5531860000000  0.4912990000000  0.4417450000000 1.0
C      1  0.4775360000000  0.5210100000000  0.5800980000000 1.0
C      1  0.4878660000000  0.4554780000000  0.6093020000000 1.0
C      1  0.4608590000000  0.4652360000000  0.4170450000000 1.0
C      1  0.4819950000000  0.4300820000000  0.4581500000000 1.0
C      1  0.5220890000000  0.4242590000000  0.5051300000000 1.0
C      1  0.5506210000000  0.4836020000000  0.5845730000000 1.0
C      1  0.4995730000000  0.5618280000000  0.5527750000000 1.0
C      1  0.5824720000000  0.4619800000000  0.5200950000000 1.0
C      1  0.5548980000000  0.5551290000000  0.4533180000000 1.0
C      1  0.5630210000000  0.4788420000000  0.4693270000000 1.0
C      1  0.4970010000000  0.5390750000000  0.4077060000000 1.0
C      1  0.5770270000000  0.5084810000000  0.5549270000000 1.0
C      1  0.5200930000000  0.4694710000000  0.5412340000000 1.0
C      1  0.5334690000000  0.5182690000000  0.4798870000000 1.0
C      1  0.4777340000000  0.5327410000000  0.5115790000000 1.0
C      1  0.5506250000000  0.5163320000000  0.4202840000000 1.0
C      1  0.5025740000000  0.5486790000000  0.5033630000000 1.0
C      1  0.5495970000000  0.5381290000000  0.5318540000000 1.0
C      1  0.4255970000000  0.4874180000000  0.5292140000000 1.0
C      1  0.5389870000000  0.4382010000000  0.4851010000000 1.0
C      1  0.4803830000000  0.5015640000000  0.6023830000000 1.0
C      1  0.4176980000000  0.5141770000000  0.4812460000000 1.0
C      1  0.5278750000000  0.5017890000000  0.4555220000000 1.0
C      1  0.4851010000000  0.4206800000000  0.5361390000000 1.0
C      1  0.5273640000000  0.4515470000000  0.4381290000000 1.0
C      1  0.4692240000000  0.5812700000000  0.4695710000000 1.0
C      1  0.5065600000000  0.4479100000000  0.4191700000000 1.0
C      1  0.5151760000000  0.5782930000000  0.5336500000000 1.0
C      1  0.5171250000000  0.5552920000000  0.4209980000000 1.0
C      1  0.4526540000000  0.4559560000000  0.5594220000000 1.0
C      1  0.5605360000000  0.5342960000000  0.5601830000000 1.0
C      1  0.4736980000000  0.4346090000000  0.4861420000000 1.0
C      1  0.4698060000000  0.5235600000000  0.4816830000000 1.0
C      1  0.5012650000000  0.5084290000000  0.4428050000000 1.0
C      1  0.5304480000000  0.5046720000000  0.4014190000000 1.0
C      1  0.4417240000000  0.4730680000000  0.4805560000000 1.0
C      1  0.4956410000000  0.5921520000000  0.4782680000000 1.0
C      1  0.4454660000000  0.4307530000000  0.4917810000000 1.0
C      1  0.4532540000000  0.5352200000000  0.5817180000000 1.0
C      1  0.5456920000000  0.5746660000000  0.4978180000000 1.0
C      1  0.5343900000000  0.4186980000000  0.5315370000000 1.0
C      1  0.5003220000000  0.5687630000000  0.4406750000000 1.0
C      1  0.5871390000000  0.4886790000000  0.5101500000000 1.0
C      1  0.4390410000000  0.4397910000000  0.5170060000000 1.0
C      1  0.5313930000000  0.5110770000000  0.5290120000000 1.0
C      1  0.5062960000000  0.4156310000000  0.4585270000000 1.0
C      1  0.4697090000000  0.4338360000000  0.5560570000000 1.0
C      1  0.4706900000000  0.5816670000000  0.5177430000000 1.0
C      1  0.4593060000000  0.4813260000000  0.5745410000000 1.0
C      1  0.5204310000000  0.5050390000000  0.5020490000000 1.0
C      1  0.4364460000000  0.5484550000000  0.4513630000000 1.0
C      1  0.4402580000000  0.5526370000000  0.5420040000000 1.0
C      1  0.4988010000000  0.5790810000000  0.5073540000000 1.0
C      1  0.4313440000000  0.4390010000000  0.4458000000000 1.0
C      1  0.5160960000000  0.5850330000000  0.4592300000000 1.0
C      1  0.5016740000000  0.5100360000000  0.4116440000000 1.0
C      1  0.5463270000000  0.4756490000000  0.5199450000000 1.0
C      1  0.5107840000000  0.4614420000000  0.3948700000000 1.0
C      1  0.5349550000000  0.4756440000000  0.3993330000000 1.0
C      1  0.4459740000000  0.4634790000000  0.5315710000000 1.0
C      1  0.4675540000000  0.4741100000000  0.6025630000000 1.0
C      1  0.4360740000000  0.5310970000000  0.5606930000000 1.0
C      1  0.5731650000000  0.4560110000000  0.5464810000000 1.0
END
