TITL C-950526-5686-737 5.88692342884856e-08 125000 -148.214123403214 0 0 26 (C1) n - 1
REM
REM in /home/bkarasulu/work/CARBON/AIRSS/Generating-Clusters/EDIP-Nigel-Params/with-SteepDescent/Only-C1/SD-CG/HFTN-CG
REM
REM
REM
REM
REM
REM ./C.cell (11c1c37f851c82e70ff6c80c92926a4b)
REM
REM compiler GCC version 9.2.1 20190827 (Red Hat 9.2.1-1)
REM options -cpp -mtune=generic -march=x86-64 -g -O0 -fpre-include=/usr/include/finclude/math-vector-fortran.h
REM seed 208643170 1157321570 -1481630564 1410358913 -1307654319 -600983143 -1306723124 -390992124 1533625087 1596406505 -1722605562 -2122531323 -175121173 1894026910 -1897561187 1114923975 1818999484 1927762751 1104889529 -1071022022 -1982377955 -1528144363 -1827496056 -431560389 -2013320494 565311947 781441289 -1327041298 2112193502 -862057522 -1442148550 -481780480 -960326875
REM
CELL 1.54180   50.00000   50.00000   50.00000   90.00000   90.00000   90.00000
LATT -1
SFAC C  
C      1  0.4983700000000  0.4957550000000  0.5072550000000 1.0
C      1  0.5239640000000  0.5295160000000  0.5362540000000 1.0
C      1  0.4795390000000  0.5091020000000  0.4338200000000 1.0
C      1  0.5031230000000  0.4901640000000  0.5532740000000 1.0
C      1  0.4531390000000  0.5021030000000  0.5277880000000 1.0
C      1  0.4898150000000  0.4596480000000  0.5144850000000 1.0
C      1  0.5468060000000  0.5127600000000  0.5404280000000 1.0
C      1  0.4318530000000  0.4972530000000  0.5107610000000 1.0
C      1  0.5536280000000  0.5048280000000  0.5140390000000 1.0
C      1  0.5061850000000  0.5111650000000  0.4804560000000 1.0
C      1  0.5346130000000  0.5116560000000  0.4722680000000 1.0
C      1  0.5077970000000  0.4701090000000  0.5343680000000 1.0
C      1  0.4993160000000  0.5394510000000  0.4907510000000 1.0
C      1  0.4539690000000  0.4683060000000  0.4778150000000 1.0
C      1  0.5259520000000  0.4680620000000  0.4874800000000 1.0
C      1  0.4503500000000  0.4924290000000  0.4909330000000 1.0
C      1  0.4767070000000  0.5403250000000  0.5074470000000 1.0
C      1  0.5446250000000  0.4801940000000  0.5033000000000 1.0
C      1  0.4998860000000  0.4569090000000  0.4873030000000 1.0
C      1  0.5246140000000  0.5420540000000  0.5078660000000 1.0
C      1  0.4891750000000  0.4963810000000  0.4589350000000 1.0
C      1  0.4803010000000  0.4687920000000  0.4679710000000 1.0
C      1  0.4793240000000  0.5151900000000  0.5221670000000 1.0
C      1  0.5028970000000  0.4955130000000  0.4327480000000 1.0
C      1  0.4981120000000  0.5169260000000  0.5455510000000 1.0
C      1  0.5459400000000  0.5254100000000  0.4945390000000 1.0
END
