TITL C-950530-3293-672 -1.30412867539176e-06 125000 -537.538490136966 0 0 86 (C1) n - 1
REM
REM in /home/bkarasulu/work/CARBON/AIRSS/Generating-Clusters/EDIP-Nigel-Params/with-SteepDescent/Only-C1/SD-CG/HFTN-CG
REM
REM
REM
REM
REM
REM ./C.cell (11c1c37f851c82e70ff6c80c92926a4b)
REM
REM compiler GCC version 9.2.1 20190827 (Red Hat 9.2.1-1)
REM options -cpp -mtune=generic -march=x86-64 -g -O0 -fpre-include=/usr/include/finclude/math-vector-fortran.h
REM seed 238581094 -765984658 2028209966 1969229695 -1430088247 -70338056 1114191770 971944497 982724230 -420789430 974354323 -1063500171 -2122157837 20312527 153652093 -2130971866 1506734866 -795976711 527191521 -913014467 -1655348587 -1701805006 1388246698 1401510788 -1503157942 1347090392 -1837109750 -129537722 2084315389 1147191898 -1660582413 1465767381 1858771828
REM
CELL 1.54180   50.00000   50.00000   50.00000   90.00000   90.00000   90.00000
LATT -1
SFAC C  
C      1  0.5262720000000  0.5641410000000  0.5000770000000 1.0
C      1  0.4431580000000  0.4425420000000  0.4799220000000 1.0
C      1  0.5388200000000  0.5096270000000  0.4273310000000 1.0
C      1  0.5687500000000  0.5070760000000  0.5646370000000 1.0
C      1  0.4995380000000  0.4824240000000  0.5163000000000 1.0
C      1  0.4606650000000  0.5531880000000  0.4549240000000 1.0
C      1  0.4782140000000  0.5693010000000  0.5334980000000 1.0
C      1  0.5707300000000  0.5147480000000  0.4630890000000 1.0
C      1  0.5609530000000  0.4698430000000  0.4456400000000 1.0
C      1  0.4335670000000  0.5209920000000  0.5121970000000 1.0
C      1  0.5539140000000  0.4394260000000  0.4816990000000 1.0
C      1  0.5000250000000  0.4775650000000  0.5656700000000 1.0
C      1  0.5721400000000  0.4617730000000  0.4727840000000 1.0
C      1  0.4812320000000  0.5115880000000  0.4792130000000 1.0
C      1  0.5644190000000  0.4984790000000  0.4376920000000 1.0
C      1  0.4727190000000  0.4633790000000  0.4480180000000 1.0
C      1  0.5251680000000  0.5179020000000  0.5803910000000 1.0
C      1  0.4138530000000  0.5009490000000  0.5279210000000 1.0
C      1  0.4755930000000  0.4596870000000  0.5113140000000 1.0
C      1  0.4655360000000  0.4472920000000  0.5370670000000 1.0
C      1  0.5047890000000  0.4951670000000  0.4887870000000 1.0
C      1  0.4480670000000  0.5355750000000  0.4373930000000 1.0
C      1  0.4503890000000  0.5659380000000  0.4961260000000 1.0
C      1  0.5341830000000  0.4582730000000  0.4433240000000 1.0
C      1  0.4537230000000  0.4893460000000  0.5514940000000 1.0
C      1  0.5103100000000  0.4111460000000  0.4941740000000 1.0
C      1  0.5292230000000  0.5101650000000  0.4907620000000 1.0
C      1  0.5038230000000  0.5566460000000  0.5426380000000 1.0
C      1  0.5350160000000  0.4336790000000  0.4589150000000 1.0
C      1  0.5991950000000  0.4955650000000  0.5240560000000 1.0
C      1  0.4891090000000  0.4468870000000  0.4679510000000 1.0
C      1  0.4355540000000  0.5515070000000  0.5172440000000 1.0
C      1  0.5244170000000  0.4888750000000  0.5773680000000 1.0
C      1  0.4865100000000  0.5428550000000  0.4674800000000 1.0
C      1  0.4429560000000  0.5690550000000  0.4693580000000 1.0
C      1  0.4310650000000  0.4673360000000  0.4940320000000 1.0
C      1  0.5932020000000  0.4773660000000  0.5014380000000 1.0
C      1  0.5086840000000  0.4250550000000  0.4690870000000 1.0
C      1  0.4219790000000  0.4688650000000  0.4471800000000 1.0
C      1  0.4716170000000  0.4975870000000  0.4526920000000 1.0
C      1  0.5298700000000  0.4849260000000  0.5342510000000 1.0
C      1  0.5054820000000  0.5606120000000  0.5721220000000 1.0
C      1  0.4915970000000  0.5113280000000  0.4321840000000 1.0
C      1  0.4520250000000  0.5569350000000  0.5416200000000 1.0
C      1  0.4822940000000  0.5055300000000  0.5294850000000 1.0
C      1  0.5520320000000  0.5379600000000  0.4642800000000 1.0
C      1  0.4442410000000  0.4520090000000  0.4514490000000 1.0
C      1  0.4760280000000  0.4930100000000  0.5705820000000 1.0
C      1  0.5655320000000  0.4869980000000  0.5071650000000 1.0
C      1  0.4521190000000  0.5341560000000  0.5604830000000 1.0
C      1  0.4620570000000  0.5081740000000  0.5049070000000 1.0
C      1  0.4340950000000  0.5116020000000  0.5499560000000 1.0
C      1  0.4859650000000  0.4604550000000  0.4207200000000 1.0
C      1  0.4952630000000  0.4494550000000  0.5604860000000 1.0
C      1  0.4413360000000  0.4633500000000  0.5451620000000 1.0
C      1  0.5012650000000  0.5345640000000  0.5811070000000 1.0
C      1  0.5297470000000  0.5257790000000  0.4493010000000 1.0
C      1  0.5579540000000  0.5324860000000  0.5238710000000 1.0
C      1  0.5526930000000  0.5572740000000  0.5402060000000 1.0
C      1  0.4776640000000  0.5220080000000  0.5700370000000 1.0
C      1  0.4195850000000  0.4709570000000  0.5238360000000 1.0
C      1  0.5313030000000  0.5149930000000  0.5211720000000 1.0
C      1  0.5382050000000  0.4462070000000  0.5054090000000 1.0
C      1  0.5537560000000  0.4954190000000  0.4804030000000 1.0
C      1  0.5491520000000  0.4670170000000  0.5212490000000 1.0
C      1  0.5497080000000  0.5491630000000  0.4910420000000 1.0
C      1  0.4716420000000  0.4392520000000  0.4893970000000 1.0
C      1  0.4747300000000  0.4775480000000  0.4010310000000 1.0
C      1  0.5047840000000  0.5273130000000  0.5312410000000 1.0
C      1  0.4448550000000  0.5102860000000  0.4485610000000 1.0
C      1  0.5506600000000  0.4834990000000  0.5656530000000 1.0
C      1  0.4187700000000  0.4827750000000  0.4715770000000 1.0
C      1  0.4564900000000  0.4795010000000  0.5008480000000 1.0
C      1  0.5185560000000  0.4923370000000  0.4117320000000 1.0
C      1  0.5514350000000  0.5289410000000  0.5746200000000 1.0
C      1  0.4271970000000  0.5094150000000  0.4706840000000 1.0
C      1  0.4770840000000  0.5739510000000  0.5046770000000 1.0
C      1  0.5560020000000  0.5559160000000  0.5681110000000 1.0
C      1  0.4986120000000  0.5617920000000  0.4888540000000 1.0
C      1  0.5040080000000  0.5368390000000  0.4441590000000 1.0
C      1  0.5191120000000  0.4271800000000  0.5156100000000 1.0
C      1  0.5159150000000  0.4644950000000  0.4214570000000 1.0
C      1  0.5805330000000  0.5147000000000  0.5377680000000 1.0
C      1  0.4899760000000  0.5010930000000  0.4031510000000 1.0
C      1  0.5017520000000  0.4323880000000  0.5381650000000 1.0
C      1  0.5278410000000  0.5695950000000  0.5293380000000 1.0
END
