TITL C-950522-5749-110 8.10671090951503e-07 125000 -1085.45584991383 0 0 172 (C1) n - 1
REM
REM in /home/bkarasulu/work/CARBON/AIRSS/Generating-Clusters/EDIP-Nigel-Params/with-SteepDescent/Only-C1/SD-CG/HFTN-CG
REM
REM
REM
REM
REM
REM ./C.cell (11c1c37f851c82e70ff6c80c92926a4b)
REM
REM compiler GCC version 9.2.1 20190827 (Red Hat 9.2.1-1)
REM options -cpp -mtune=generic -march=x86-64 -g -O0 -fpre-include=/usr/include/finclude/math-vector-fortran.h
REM seed 1256433989 -1279312316 -586640125 -963725817 351989747 -323020237 -1878298792 -1675169271 -305133668 649137600 197538586 -1658085786 -947387103 -477683597 -986492840 -168058848 -977589664 -670944375 -1778932202 -2087416648 -1798806223 2061972942 917531967 -222018993 -13532415 -89725717 741834685 -574367295 150697399 -1851611183 -772718736 2104332199 1313628996
REM
CELL 1.54180   50.00000   50.00000   50.00000   90.00000   90.00000   90.00000
LATT -1
SFAC C  
C      1  0.4407570000000  0.5134110000000  0.5171220000000 1.0
C      1  0.5953870000000  0.5262610000000  0.5396640000000 1.0
C      1  0.5717250000000  0.5177420000000  0.4339270000000 1.0
C      1  0.4427310000000  0.4682240000000  0.4072530000000 1.0
C      1  0.4745850000000  0.5753450000000  0.4814020000000 1.0
C      1  0.4082050000000  0.5376690000000  0.5452120000000 1.0
C      1  0.4837140000000  0.5166960000000  0.3929040000000 1.0
C      1  0.5192760000000  0.4734400000000  0.4983300000000 1.0
C      1  0.4931850000000  0.5197750000000  0.5105260000000 1.0
C      1  0.5074110000000  0.5305670000000  0.5550630000000 1.0
C      1  0.5919010000000  0.5771890000000  0.5021000000000 1.0
C      1  0.5473920000000  0.4066580000000  0.4761610000000 1.0
C      1  0.5389230000000  0.5307750000000  0.3985290000000 1.0
C      1  0.5403350000000  0.6132520000000  0.4949000000000 1.0
C      1  0.5071040000000  0.5471430000000  0.5815830000000 1.0
C      1  0.5388140000000  0.4913930000000  0.4875150000000 1.0
C      1  0.4835160000000  0.4018760000000  0.5080340000000 1.0
C      1  0.5192050000000  0.5488110000000  0.3902390000000 1.0
C      1  0.5977330000000  0.4745170000000  0.5573650000000 1.0
C      1  0.3903310000000  0.5036120000000  0.5113710000000 1.0
C      1  0.4417270000000  0.5524680000000  0.4104680000000 1.0
C      1  0.4471500000000  0.5255080000000  0.4159380000000 1.0
C      1  0.5065530000000  0.3881250000000  0.4966330000000 1.0
C      1  0.5445630000000  0.6060670000000  0.5218920000000 1.0
C      1  0.5413630000000  0.5195510000000  0.5294620000000 1.0
C      1  0.4833100000000  0.5972820000000  0.5541170000000 1.0
C      1  0.5792660000000  0.5728760000000  0.5267450000000 1.0
C      1  0.5625100000000  0.4284230000000  0.4611170000000 1.0
C      1  0.5072990000000  0.5058510000000  0.4272030000000 1.0
C      1  0.4335310000000  0.4094510000000  0.4979030000000 1.0
C      1  0.5431540000000  0.5578230000000  0.4430820000000 1.0
C      1  0.4566100000000  0.4182940000000  0.5463540000000 1.0
C      1  0.5288710000000  0.5017530000000  0.4021380000000 1.0
C      1  0.5048560000000  0.4556140000000  0.4481630000000 1.0
C      1  0.4910890000000  0.5069450000000  0.5618170000000 1.0
C      1  0.5411840000000  0.4585460000000  0.4165440000000 1.0
C      1  0.5756260000000  0.4918020000000  0.4198160000000 1.0
C      1  0.5168490000000  0.5128150000000  0.4554710000000 1.0
C      1  0.4713230000000  0.4657190000000  0.4091230000000 1.0
C      1  0.5257790000000  0.4738570000000  0.4380630000000 1.0
C      1  0.4711750000000  0.5199850000000  0.4341860000000 1.0
C      1  0.4243460000000  0.5104230000000  0.4254550000000 1.0
C      1  0.4030770000000  0.4908340000000  0.5353730000000 1.0
C      1  0.4383190000000  0.5700130000000  0.4534390000000 1.0
C      1  0.4786650000000  0.5486690000000  0.4659070000000 1.0
C      1  0.4309460000000  0.4734570000000  0.5696930000000 1.0
C      1  0.5604390000000  0.4780490000000  0.5905550000000 1.0
C      1  0.4793970000000  0.5239730000000  0.4852360000000 1.0
C      1  0.4205600000000  0.5522900000000  0.5699050000000 1.0
C      1  0.4468350000000  0.4930910000000  0.5401730000000 1.0
C      1  0.5808560000000  0.5505290000000  0.5471380000000 1.0
C      1  0.5184230000000  0.4448210000000  0.5821640000000 1.0
C      1  0.4001070000000  0.4991190000000  0.4834800000000 1.0
C      1  0.4341750000000  0.5393030000000  0.5273240000000 1.0
C      1  0.5581600000000  0.3998500000000  0.5018010000000 1.0
C      1  0.5176000000000  0.4333200000000  0.5238770000000 1.0
C      1  0.4919920000000  0.4238540000000  0.5787170000000 1.0
C      1  0.5779240000000  0.5390190000000  0.4825490000000 1.0
C      1  0.4686350000000  0.5108770000000  0.6108680000000 1.0
C      1  0.4794670000000  0.5508930000000  0.5908000000000 1.0
C      1  0.4264630000000  0.5581920000000  0.5049420000000 1.0
C      1  0.4093260000000  0.5244450000000  0.4730840000000 1.0
C      1  0.4191610000000  0.4766330000000  0.4774130000000 1.0
C      1  0.4834560000000  0.5985780000000  0.4514320000000 1.0
C      1  0.4716360000000  0.4429020000000  0.5357970000000 1.0
C      1  0.4632210000000  0.5163800000000  0.5608290000000 1.0
C      1  0.5505030000000  0.5771190000000  0.5233490000000 1.0
C      1  0.5087530000000  0.4287960000000  0.4342110000000 1.0
C      1  0.5121820000000  0.4790300000000  0.3869970000000 1.0
C      1  0.4429320000000  0.5838530000000  0.5368670000000 1.0
C      1  0.5238920000000  0.4780250000000  0.5533290000000 1.0
C      1  0.5529190000000  0.4830130000000  0.4041640000000 1.0
C      1  0.5394070000000  0.4292020000000  0.5670190000000 1.0
C      1  0.6012000000000  0.4726520000000  0.5066570000000 1.0
C      1  0.4900780000000  0.4315540000000  0.5140960000000 1.0
C      1  0.5561090000000  0.5395490000000  0.4214180000000 1.0
C      1  0.4866240000000  0.4902140000000  0.6101620000000 1.0
C      1  0.5869420000000  0.5227710000000  0.4586500000000 1.0
C      1  0.4501330000000  0.4874640000000  0.4790580000000 1.0
C      1  0.4174670000000  0.4292440000000  0.4799880000000 1.0
C      1  0.5655150000000  0.5512810000000  0.5732330000000 1.0
C      1  0.4532710000000  0.4647070000000  0.5247130000000 1.0
C      1  0.4599760000000  0.4268430000000  0.5771350000000 1.0
C      1  0.5190830000000  0.4005700000000  0.4747570000000 1.0
C      1  0.4107320000000  0.5257880000000  0.4450930000000 1.0
C      1  0.5697310000000  0.5045770000000  0.5811970000000 1.0
C      1  0.5270220000000  0.6104170000000  0.5426780000000 1.0
C      1  0.4659830000000  0.4173890000000  0.4301360000000 1.0
C      1  0.5248710000000  0.5248000000000  0.5963420000000 1.0
C      1  0.4567510000000  0.4396270000000  0.4482980000000 1.0
C      1  0.5065290000000  0.5665560000000  0.5206950000000 1.0
C      1  0.4308210000000  0.5304260000000  0.5878810000000 1.0
C      1  0.4412700000000  0.5712460000000  0.5629310000000 1.0
C      1  0.4926660000000  0.5571920000000  0.4303950000000 1.0
C      1  0.4992790000000  0.4026300000000  0.5577600000000 1.0
C      1  0.4756030000000  0.5820820000000  0.4272480000000 1.0
C      1  0.5034080000000  0.4045480000000  0.4505950000000 1.0
C      1  0.4823690000000  0.4482680000000  0.4906710000000 1.0
C      1  0.4690550000000  0.4918170000000  0.4531540000000 1.0
C      1  0.4321370000000  0.4204560000000  0.5268920000000 1.0
C      1  0.5245390000000  0.4144520000000  0.5458410000000 1.0
C      1  0.4688500000000  0.4734850000000  0.5007930000000 1.0
C      1  0.4848610000000  0.5832450000000  0.5088810000000 1.0
C      1  0.5174800000000  0.4516310000000  0.3976000000000 1.0
C      1  0.4134390000000  0.4649380000000  0.5450610000000 1.0
C      1  0.4764390000000  0.3964350000000  0.5380940000000 1.0
C      1  0.4614220000000  0.4576610000000  0.5793890000000 1.0
C      1  0.5614460000000  0.4461120000000  0.5544370000000 1.0
C      1  0.5822520000000  0.4341700000000  0.5336490000000 1.0
C      1  0.4735800000000  0.4664370000000  0.6039640000000 1.0
C      1  0.4973480000000  0.4831340000000  0.5462180000000 1.0
C      1  0.5338330000000  0.4559480000000  0.5160910000000 1.0
C      1  0.4233040000000  0.5835480000000  0.5164460000000 1.0
C      1  0.5962010000000  0.4744070000000  0.4604920000000 1.0
C      1  0.4166680000000  0.4669110000000  0.4489690000000 1.0
C      1  0.4466280000000  0.5754160000000  0.4256670000000 1.0
C      1  0.4607130000000  0.5438390000000  0.5439760000000 1.0
C      1  0.4750160000000  0.3977610000000  0.4506460000000 1.0
C      1  0.5102950000000  0.5925610000000  0.5560530000000 1.0
C      1  0.5780030000000  0.4593500000000  0.5752780000000 1.0
C      1  0.5459170000000  0.5401790000000  0.4864830000000 1.0
C      1  0.5362440000000  0.5175280000000  0.5008890000000 1.0
C      1  0.4614610000000  0.4042910000000  0.4851910000000 1.0
C      1  0.4844360000000  0.4578740000000  0.5576590000000 1.0
C      1  0.4686160000000  0.5954360000000  0.5305880000000 1.0
C      1  0.5600040000000  0.4958250000000  0.5347440000000 1.0
C      1  0.4608230000000  0.5286730000000  0.5902460000000 1.0
C      1  0.4042910000000  0.5104120000000  0.5560490000000 1.0
C      1  0.5828560000000  0.5012370000000  0.5536790000000 1.0
C      1  0.5344320000000  0.5664560000000  0.4986770000000 1.0
C      1  0.4493890000000  0.5156520000000  0.4881690000000 1.0
C      1  0.5463650000000  0.4689230000000  0.5390240000000 1.0
C      1  0.6077660000000  0.5004560000000  0.4981040000000 1.0
C      1  0.5524970000000  0.5271180000000  0.5843920000000 1.0
C      1  0.5970200000000  0.5249020000000  0.5098740000000 1.0
C      1  0.4478580000000  0.5397970000000  0.4577650000000 1.0
C      1  0.4265100000000  0.4393010000000  0.4517100000000 1.0
C      1  0.5306530000000  0.4711270000000  0.5962210000000 1.0
C      1  0.6035910000000  0.5010290000000  0.4686420000000 1.0
C      1  0.4922120000000  0.5036420000000  0.4692180000000 1.0
C      1  0.4308600000000  0.4820380000000  0.4287040000000 1.0
C      1  0.4856510000000  0.4878620000000  0.3931170000000 1.0
C      1  0.5206180000000  0.5737080000000  0.5754210000000 1.0
C      1  0.5835800000000  0.4675210000000  0.4354060000000 1.0
C      1  0.4513790000000  0.5895470000000  0.4707440000000 1.0
C      1  0.4263810000000  0.4499890000000  0.5224610000000 1.0
C      1  0.5367830000000  0.5520690000000  0.5407080000000 1.0
C      1  0.5364640000000  0.5896490000000  0.4780000000000 1.0
C      1  0.5129020000000  0.5919610000000  0.4571130000000 1.0
C      1  0.5837980000000  0.5672600000000  0.4772190000000 1.0
C      1  0.5822930000000  0.4335720000000  0.4820890000000 1.0
C      1  0.4759920000000  0.4648780000000  0.4399760000000 1.0
C      1  0.3893320000000  0.5332670000000  0.5161710000000 1.0
C      1  0.4640440000000  0.4324690000000  0.4754990000000 1.0
C      1  0.5606340000000  0.5787090000000  0.4613640000000 1.0
C      1  0.5132530000000  0.4959760000000  0.5987100000000 1.0
C      1  0.4882780000000  0.4315350000000  0.4115980000000 1.0
C      1  0.5182140000000  0.5724010000000  0.4360520000000 1.0
C      1  0.4948320000000  0.4890650000000  0.5145570000000 1.0
C      1  0.4023920000000  0.5462230000000  0.4922860000000 1.0
C      1  0.5312020000000  0.5387500000000  0.4618990000000 1.0
C      1  0.4958970000000  0.5408590000000  0.4036550000000 1.0
C      1  0.6005820000000  0.4582890000000  0.5323150000000 1.0
C      1  0.4234290000000  0.5034590000000  0.5759650000000 1.0
C      1  0.5978940000000  0.4572100000000  0.4827580000000 1.0
C      1  0.4913170000000  0.5413100000000  0.5313560000000 1.0
C      1  0.5754910000000  0.4214170000000  0.5071760000000 1.0
C      1  0.4134290000000  0.4536290000000  0.4957050000000 1.0
C      1  0.5069280000000  0.4551700000000  0.4775430000000 1.0
C      1  0.5647050000000  0.4437290000000  0.4345970000000 1.0
C      1  0.5434730000000  0.4858610000000  0.4594390000000 1.0
C      1  0.5482990000000  0.5729880000000  0.5743710000000 1.0
END
