TITL C-951337-3020-615 -3.1562968648295e-07 125000 -175.94235342593 0 0 30 (C1) n - 1
REM
REM in /home/bkarasulu/work/CARBON/AIRSS/Generating-Clusters/EDIP-Nigel-Params/with-SteepDescent/Only-C1/SD-CG/HFTN-CG
REM
REM
REM
REM
REM
REM ./C.cell (11c1c37f851c82e70ff6c80c92926a4b)
REM
REM compiler GCC version 9.2.1 20190827 (Red Hat 9.2.1-1)
REM options -cpp -mtune=generic -march=x86-64 -g -O0 -fpre-include=/usr/include/finclude/math-vector-fortran.h
REM seed -1897580690 -137299971 1185643061 -1065863734 979065187 1722051377 588924553 603180690 -636393111 -83524524 836569704 -38146042 1858606035 -1099736795 134000542 -691725912 996742808 1731776859 344149865 401243645 591544610 553630722 -1893436271 1313488624 -696470324 80003595 986950110 1479156711 524432766 138532549 1791445642 -1231914024 -1782694540
REM
CELL 1.54180   50.00000   50.00000   50.00000   90.00000   90.00000   90.00000
LATT -1
SFAC C  
C      1  0.4852700000000  0.5514240000000  0.5169010000000 1.0
C      1  0.5487940000000  0.4856830000000  0.4664920000000 1.0
C      1  0.4826390000000  0.5455560000000  0.4884630000000 1.0
C      1  0.4991100000000  0.4490500000000  0.5108300000000 1.0
C      1  0.5406560000000  0.4995170000000  0.5489660000000 1.0
C      1  0.4387100000000  0.4909970000000  0.4998630000000 1.0
C      1  0.5635890000000  0.4984090000000  0.5355520000000 1.0
C      1  0.5179880000000  0.4632600000000  0.4671300000000 1.0
C      1  0.4970030000000  0.4671450000000  0.4878990000000 1.0
C      1  0.4711670000000  0.4633800000000  0.4757930000000 1.0
C      1  0.4667650000000  0.5078420000000  0.5349480000000 1.0
C      1  0.4581510000000  0.4602550000000  0.5335780000000 1.0
C      1  0.4923330000000  0.4929220000000  0.5282210000000 1.0
C      1  0.4665810000000  0.5161390000000  0.4683080000000 1.0
C      1  0.4603370000000  0.5314000000000  0.5173460000000 1.0
C      1  0.4459210000000  0.4705670000000  0.4818460000000 1.0
C      1  0.4992890000000  0.4951260000000  0.4989210000000 1.0
C      1  0.5118140000000  0.5466540000000  0.5235580000000 1.0
C      1  0.4947300000000  0.5180340000000  0.4790820000000 1.0
C      1  0.5411040000000  0.5293200000000  0.4836200000000 1.0
C      1  0.5564340000000  0.5048320000000  0.4865150000000 1.0
C      1  0.5308540000000  0.4997050000000  0.4474900000000 1.0
C      1  0.5142770000000  0.4999310000000  0.5452020000000 1.0
C      1  0.4474140000000  0.4861230000000  0.5283430000000 1.0
C      1  0.5204390000000  0.5237800000000  0.4626210000000 1.0
C      1  0.5116650000000  0.4787900000000  0.4437630000000 1.0
C      1  0.5323900000000  0.5425890000000  0.5066810000000 1.0
C      1  0.5705410000000  0.4996810000000  0.5098300000000 1.0
C      1  0.4481690000000  0.5180580000000  0.4912160000000 1.0
C      1  0.4858690000000  0.4638290000000  0.5310210000000 1.0
END
