TITL C-951345-2650-52 2.54352130344877e-07 125000 -517.009483001847 0 0 84 (C1) n - 1
REM
REM in /home/bkarasulu/work/CARBON/AIRSS/Generating-Clusters/EDIP-Nigel-Params/with-SteepDescent/Only-C1/SD-CG/HFTN-CG
REM
REM
REM
REM
REM
REM ./C.cell (11c1c37f851c82e70ff6c80c92926a4b)
REM
REM compiler GCC version 9.2.1 20190827 (Red Hat 9.2.1-1)
REM options -cpp -mtune=generic -march=x86-64 -g -O0 -fpre-include=/usr/include/finclude/math-vector-fortran.h
REM seed -86996232 -1327919919 289468452 -57640259 -321907189 467604800 279981881 -247798984 782307719 395611380 2069221840 -1100991643 -1952365658 -632127579 718333985 -1683143293 3514092 957551940 -532505466 -2056311327 -1879991761 -1953842563 404599940 -436397937 272293268 -1559076209 736178077 -1796649479 631315989 -569777838 619120462 -214355417 1196760501
REM
CELL 1.54180   50.00000   50.00000   50.00000   90.00000   90.00000   90.00000
LATT -1
SFAC C  
C      1  0.5030850000000  0.4640830000000  0.5023510000000 1.0
C      1  0.4804870000000  0.5187230000000  0.4905270000000 1.0
C      1  0.4629820000000  0.4360390000000  0.4916790000000 1.0
C      1  0.6004860000000  0.4882310000000  0.5224250000000 1.0
C      1  0.5161290000000  0.4566550000000  0.5653570000000 1.0
C      1  0.5636390000000  0.5377230000000  0.4859720000000 1.0
C      1  0.4181300000000  0.4908900000000  0.5329730000000 1.0
C      1  0.4691800000000  0.5108440000000  0.4431620000000 1.0
C      1  0.5131290000000  0.4456200000000  0.4772980000000 1.0
C      1  0.5121940000000  0.5763880000000  0.5278990000000 1.0
C      1  0.5128420000000  0.4898740000000  0.5189870000000 1.0
C      1  0.4524530000000  0.4612710000000  0.4224690000000 1.0
C      1  0.4294530000000  0.5054940000000  0.5102810000000 1.0
C      1  0.5470960000000  0.4933480000000  0.4882990000000 1.0
C      1  0.4543610000000  0.5606850000000  0.4852910000000 1.0
C      1  0.4707140000000  0.4389110000000  0.5454460000000 1.0
C      1  0.4437460000000  0.4576810000000  0.4489110000000 1.0
C      1  0.5664940000000  0.4535980000000  0.5408010000000 1.0
C      1  0.4785500000000  0.4988460000000  0.4691910000000 1.0
C      1  0.4336090000000  0.4736100000000  0.5494240000000 1.0
C      1  0.5193120000000  0.5161520000000  0.5632440000000 1.0
C      1  0.4911560000000  0.4642610000000  0.5752330000000 1.0
C      1  0.5657830000000  0.5625600000000  0.5274120000000 1.0
C      1  0.4645380000000  0.4410900000000  0.4627950000000 1.0
C      1  0.4201010000000  0.5350170000000  0.5077650000000 1.0
C      1  0.5496020000000  0.4348530000000  0.5008650000000 1.0
C      1  0.5546200000000  0.4847660000000  0.4432120000000 1.0
C      1  0.5773740000000  0.4906840000000  0.5392200000000 1.0
C      1  0.4789370000000  0.5466580000000  0.4753810000000 1.0
C      1  0.4768610000000  0.5092680000000  0.5882690000000 1.0
C      1  0.5158380000000  0.5400170000000  0.4111700000000 1.0
C      1  0.5315690000000  0.4988730000000  0.5815050000000 1.0
C      1  0.4474610000000  0.4924460000000  0.5687910000000 1.0
C      1  0.5003320000000  0.4513050000000  0.4260490000000 1.0
C      1  0.4229710000000  0.4861200000000  0.4871340000000 1.0
C      1  0.5517830000000  0.5588040000000  0.5033970000000 1.0
C      1  0.4390350000000  0.5078520000000  0.4452250000000 1.0
C      1  0.5039470000000  0.4858860000000  0.4672220000000 1.0
C      1  0.4586810000000  0.5636240000000  0.5142310000000 1.0
C      1  0.4711030000000  0.4806780000000  0.5857950000000 1.0
C      1  0.5207230000000  0.5598040000000  0.5057560000000 1.0
C      1  0.5261130000000  0.5137900000000  0.5337340000000 1.0
C      1  0.5460090000000  0.5638150000000  0.4509030000000 1.0
C      1  0.4930840000000  0.5259420000000  0.5706370000000 1.0
C      1  0.5084660000000  0.5337530000000  0.5146570000000 1.0
C      1  0.5125980000000  0.4925340000000  0.4362490000000 1.0
C      1  0.5692200000000  0.5386660000000  0.5389260000000 1.0
C      1  0.5659380000000  0.5113820000000  0.5000110000000 1.0
C      1  0.4490670000000  0.4532520000000  0.5352730000000 1.0
C      1  0.4340110000000  0.5538460000000  0.5282540000000 1.0
C      1  0.5438950000000  0.4463000000000  0.4760800000000 1.0
C      1  0.5380830000000  0.4723820000000  0.5758180000000 1.0
C      1  0.5184080000000  0.4446990000000  0.5390720000000 1.0
C      1  0.5046530000000  0.5634470000000  0.4799320000000 1.0
C      1  0.4858470000000  0.4960060000000  0.4218330000000 1.0
C      1  0.4202880000000  0.4602400000000  0.4970500000000 1.0
C      1  0.4284860000000  0.5461770000000  0.4811510000000 1.0
C      1  0.5589860000000  0.5138200000000  0.5295590000000 1.0
C      1  0.5191770000000  0.4992470000000  0.4905510000000 1.0
C      1  0.5003650000000  0.5716870000000  0.5519460000000 1.0
C      1  0.4928780000000  0.4453380000000  0.4541200000000 1.0
C      1  0.4782770000000  0.4683140000000  0.4136640000000 1.0
C      1  0.4272680000000  0.5293690000000  0.4585860000000 1.0
C      1  0.4601010000000  0.5095680000000  0.5175820000000 1.0
C      1  0.4376300000000  0.4839190000000  0.4620730000000 1.0
C      1  0.5505770000000  0.5143160000000  0.4399740000000 1.0
C      1  0.5256320000000  0.4671350000000  0.4260220000000 1.0
C      1  0.4776630000000  0.5397180000000  0.4458490000000 1.0
C      1  0.4435990000000  0.5412500000000  0.5531180000000 1.0
C      1  0.5641000000000  0.4663710000000  0.5657710000000 1.0
C      1  0.5450370000000  0.4405460000000  0.5276780000000 1.0
C      1  0.4415860000000  0.4463700000000  0.5084990000000 1.0
C      1  0.4812800000000  0.5500160000000  0.5561390000000 1.0
C      1  0.5036750000000  0.5474490000000  0.4352760000000 1.0
C      1  0.5583330000000  0.4732200000000  0.4705250000000 1.0
C      1  0.4557980000000  0.5148290000000  0.5497120000000 1.0
C      1  0.5180450000000  0.5638270000000  0.4539400000000 1.0
C      1  0.5328650000000  0.5189140000000  0.4175460000000 1.0
C      1  0.4891580000000  0.4274780000000  0.5025800000000 1.0
C      1  0.5863930000000  0.4739700000000  0.4786040000000 1.0
C      1  0.4788310000000  0.5431050000000  0.5259640000000 1.0
C      1  0.4937600000000  0.4319870000000  0.5309690000000 1.0
C      1  0.5907630000000  0.4950550000000  0.4971420000000 1.0
C      1  0.5535690000000  0.5377170000000  0.4586140000000 1.0
END
