TITL C-951345-2650-78 -1.55737697561606e-06 125000 -634.063269616884 0 0 103 (C1) n - 1
REM
REM in /home/bkarasulu/work/CARBON/AIRSS/Generating-Clusters/EDIP-Nigel-Params/with-SteepDescent/Only-C1/SD-CG/HFTN-CG
REM
REM
REM
REM
REM
REM ./C.cell (11c1c37f851c82e70ff6c80c92926a4b)
REM
REM compiler GCC version 9.2.1 20190827 (Red Hat 9.2.1-1)
REM options -cpp -mtune=generic -march=x86-64 -g -O0 -fpre-include=/usr/include/finclude/math-vector-fortran.h
REM seed 434001 -206342411 -1002242148 1880628432 120027119 -2036459312 -1054136600 565496564 -1349123193 270411758 -383884404 -1529116638 -854039996 614874108 1571838980 92032229 181952490 -2016176657 245978579 -1274747112 -506104583 -1671699875 -2029961474 2023124345 -1302811160 1663349449 -1429911300 1932904564 -786575363 -2003399697 1277809322 1209242824 -2095892144
REM
CELL 1.54180   50.00000   50.00000   50.00000   90.00000   90.00000   90.00000
LATT -1
SFAC C  
C      1  0.5843150000000  0.5232940000000  0.4656840000000 1.0
C      1  0.5091480000000  0.4456620000000  0.5328410000000 1.0
C      1  0.4533600000000  0.5109660000000  0.4888370000000 1.0
C      1  0.5493980000000  0.5065730000000  0.5618850000000 1.0
C      1  0.4837250000000  0.5007440000000  0.4363120000000 1.0
C      1  0.5546370000000  0.5504040000000  0.4426230000000 1.0
C      1  0.4860960000000  0.5808880000000  0.5054170000000 1.0
C      1  0.5895370000000  0.5003720000000  0.5102320000000 1.0
C      1  0.5370520000000  0.4694720000000  0.4295080000000 1.0
C      1  0.4959090000000  0.4758030000000  0.4908390000000 1.0
C      1  0.5339620000000  0.4984980000000  0.5887350000000 1.0
C      1  0.4923230000000  0.4480750000000  0.4347690000000 1.0
C      1  0.4879730000000  0.5481210000000  0.5108840000000 1.0
C      1  0.4397080000000  0.4455500000000  0.5399130000000 1.0
C      1  0.4854080000000  0.4194810000000  0.4700440000000 1.0
C      1  0.4741870000000  0.4447170000000  0.5251660000000 1.0
C      1  0.4323140000000  0.4706490000000  0.5527460000000 1.0
C      1  0.4204610000000  0.4805980000000  0.4517450000000 1.0
C      1  0.5330180000000  0.4272150000000  0.4561650000000 1.0
C      1  0.4814710000000  0.5213750000000  0.4889550000000 1.0
C      1  0.5196000000000  0.5257780000000  0.4562260000000 1.0
C      1  0.4041610000000  0.5068700000000  0.4922350000000 1.0
C      1  0.4623640000000  0.4980220000000  0.5345990000000 1.0
C      1  0.5702110000000  0.5484250000000  0.4676410000000 1.0
C      1  0.5719030000000  0.4806900000000  0.5244670000000 1.0
C      1  0.5052180000000  0.4262710000000  0.4497220000000 1.0
C      1  0.5284770000000  0.4708500000000  0.5398580000000 1.0
C      1  0.4773890000000  0.5521390000000  0.4452870000000 1.0
C      1  0.4602280000000  0.5376260000000  0.4255290000000 1.0
C      1  0.5137810000000  0.4948870000000  0.5502980000000 1.0
C      1  0.4627320000000  0.4394410000000  0.4732590000000 1.0
C      1  0.4573630000000  0.5081870000000  0.5802990000000 1.0
C      1  0.4952970000000  0.4127990000000  0.4967560000000 1.0
C      1  0.4253410000000  0.5010670000000  0.4325700000000 1.0
C      1  0.4709830000000  0.4164770000000  0.5142100000000 1.0
C      1  0.5216430000000  0.4223620000000  0.5476480000000 1.0
C      1  0.5628230000000  0.4527220000000  0.4867850000000 1.0
C      1  0.5422290000000  0.5840660000000  0.4961060000000 1.0
C      1  0.5502140000000  0.5342130000000  0.5487540000000 1.0
C      1  0.5447580000000  0.4153030000000  0.5299170000000 1.0
C      1  0.5313550000000  0.4998020000000  0.4665660000000 1.0
C      1  0.5090730000000  0.5433800000000  0.4149190000000 1.0
C      1  0.4575590000000  0.4839320000000  0.5614090000000 1.0
C      1  0.5659330000000  0.4335370000000  0.5317380000000 1.0
C      1  0.4864680000000  0.5184900000000  0.5824230000000 1.0
C      1  0.4447100000000  0.5565050000000  0.4820660000000 1.0
C      1  0.4358210000000  0.5301760000000  0.4718810000000 1.0
C      1  0.5749150000000  0.4531110000000  0.5139090000000 1.0
C      1  0.5500590000000  0.4273460000000  0.4786430000000 1.0
C      1  0.5174550000000  0.5524790000000  0.5194320000000 1.0
C      1  0.5512560000000  0.4865110000000  0.4477660000000 1.0
C      1  0.5332180000000  0.5338100000000  0.4308390000000 1.0
C      1  0.4648150000000  0.4537050000000  0.4451310000000 1.0
C      1  0.4985660000000  0.5668420000000  0.4304420000000 1.0
C      1  0.4697340000000  0.4622000000000  0.4986290000000 1.0
C      1  0.5512230000000  0.4619640000000  0.5617840000000 1.0
C      1  0.5362310000000  0.5377190000000  0.4995240000000 1.0
C      1  0.4405980000000  0.5233590000000  0.4423790000000 1.0
C      1  0.4396080000000  0.5627490000000  0.5106330000000 1.0
C      1  0.4168280000000  0.4598060000000  0.4965880000000 1.0
C      1  0.5126300000000  0.4371360000000  0.5044050000000 1.0
C      1  0.4599920000000  0.5820340000000  0.5226650000000 1.0
C      1  0.5913420000000  0.5246460000000  0.5235630000000 1.0
C      1  0.5849880000000  0.5143630000000  0.4406290000000 1.0
C      1  0.5710680000000  0.4751530000000  0.4684540000000 1.0
C      1  0.4281860000000  0.5371940000000  0.5290090000000 1.0
C      1  0.4948240000000  0.5426870000000  0.5616660000000 1.0
C      1  0.4759270000000  0.5441550000000  0.5389020000000 1.0
C      1  0.5447880000000  0.5061380000000  0.4935760000000 1.0
C      1  0.4843140000000  0.5225190000000  0.4126200000000 1.0
C      1  0.4892850000000  0.5245290000000  0.4577140000000 1.0
C      1  0.5097460000000  0.4804960000000  0.4658220000000 1.0
C      1  0.4296910000000  0.4403700000000  0.5124480000000 1.0
C      1  0.5200910000000  0.5826440000000  0.5158110000000 1.0
C      1  0.5278900000000  0.4273210000000  0.5743170000000 1.0
C      1  0.5277040000000  0.4484470000000  0.5915850000000 1.0
C      1  0.4993960000000  0.5017130000000  0.5034270000000 1.0
C      1  0.5452750000000  0.4707560000000  0.5914300000000 1.0
C      1  0.4191580000000  0.4862270000000  0.5319400000000 1.0
C      1  0.4687530000000  0.5699650000000  0.5482330000000 1.0
C      1  0.5703980000000  0.5425770000000  0.5272760000000 1.0
C      1  0.4125500000000  0.5116340000000  0.5198580000000 1.0
C      1  0.5063590000000  0.5895740000000  0.4596460000000 1.0
C      1  0.4530220000000  0.5262140000000  0.5400360000000 1.0
C      1  0.5225860000000  0.5449620000000  0.5474630000000 1.0
C      1  0.5300930000000  0.5749260000000  0.4693740000000 1.0
C      1  0.4141520000000  0.4821470000000  0.4800450000000 1.0
C      1  0.5053060000000  0.4955020000000  0.5795260000000 1.0
C      1  0.4067330000000  0.5293720000000  0.4762220000000 1.0
C      1  0.5746900000000  0.5020770000000  0.4842500000000 1.0
C      1  0.5233380000000  0.5467490000000  0.4755670000000 1.0
C      1  0.4822750000000  0.5880970000000  0.4765590000000 1.0
C      1  0.4411460000000  0.5278320000000  0.5655700000000 1.0
C      1  0.5700700000000  0.4847970000000  0.5541350000000 1.0
C      1  0.4475660000000  0.4233000000000  0.4968530000000 1.0
C      1  0.4635180000000  0.5696510000000  0.4648510000000 1.0
C      1  0.5338040000000  0.4153590000000  0.5014590000000 1.0
C      1  0.5434410000000  0.4846390000000  0.5160460000000 1.0
C      1  0.5606840000000  0.5562330000000  0.4982010000000 1.0
C      1  0.4916920000000  0.4999950000000  0.5310360000000 1.0
C      1  0.4578680000000  0.4827550000000  0.4419610000000 1.0
C      1  0.4489570000000  0.4863070000000  0.5068180000000 1.0
C      1  0.5085690000000  0.4727290000000  0.4368670000000 1.0
END
