TITL C-950521-2237-134 6.27513751790465e-07 125000 -446.243212148004 0 0 73 (C1) n - 1
REM
REM in /home/bkarasulu/work/CARBON/AIRSS/Generating-Clusters/EDIP-Nigel-Params/with-SteepDescent/Only-C1/SD-CG/HFTN-CG
REM
REM
REM
REM
REM
REM ./C.cell (11c1c37f851c82e70ff6c80c92926a4b)
REM
REM compiler GCC version 9.2.1 20190827 (Red Hat 9.2.1-1)
REM options -cpp -mtune=generic -march=x86-64 -g -O0 -fpre-include=/usr/include/finclude/math-vector-fortran.h
REM seed 923658811 1543853401 -475082960 611187008 -783155661 -1174020389 1757218681 2127385 33711964 -1183222880 2010386227 -40978220 -1839514994 2025207844 1478633006 -1751411934 -501366404 -1719571957 1534227132 -1493423221 -1798480066 1812940241 -1310459993 -745972789 47233114 -852288093 -141580047 2128650884 256692746 118780986 476110041 2031357928 -1590271120
REM
CELL 1.54180   50.00000   50.00000   50.00000   90.00000   90.00000   90.00000
LATT -1
SFAC C  
C      1  0.5366930000000  0.5664630000000  0.5054410000000 1.0
C      1  0.4402930000000  0.4568940000000  0.4659180000000 1.0
C      1  0.5647620000000  0.5260730000000  0.5347750000000 1.0
C      1  0.4683040000000  0.5579710000000  0.4457090000000 1.0
C      1  0.4541630000000  0.4979080000000  0.4367270000000 1.0
C      1  0.4504340000000  0.4644230000000  0.5556860000000 1.0
C      1  0.4569370000000  0.4506230000000  0.4457740000000 1.0
C      1  0.5423170000000  0.4963420000000  0.4536750000000 1.0
C      1  0.5109470000000  0.5199140000000  0.5837730000000 1.0
C      1  0.4897430000000  0.4291840000000  0.5478700000000 1.0
C      1  0.4827180000000  0.5329800000000  0.5484590000000 1.0
C      1  0.5063220000000  0.5529340000000  0.5478090000000 1.0
C      1  0.4320500000000  0.5110350000000  0.5511520000000 1.0
C      1  0.5719730000000  0.5324940000000  0.4678000000000 1.0
C      1  0.4900330000000  0.5134320000000  0.5264210000000 1.0
C      1  0.5230250000000  0.4627520000000  0.5413180000000 1.0
C      1  0.5375240000000  0.5224410000000  0.5009730000000 1.0
C      1  0.4989610000000  0.5180860000000  0.4393360000000 1.0
C      1  0.4947890000000  0.5486710000000  0.4419680000000 1.0
C      1  0.5205640000000  0.4201430000000  0.5141370000000 1.0
C      1  0.5582510000000  0.4547810000000  0.5109660000000 1.0
C      1  0.5422150000000  0.4530470000000  0.4609450000000 1.0
C      1  0.4791340000000  0.5006750000000  0.4241900000000 1.0
C      1  0.5084730000000  0.5288060000000  0.5081030000000 1.0
C      1  0.4843420000000  0.5203650000000  0.5754970000000 1.0
C      1  0.5428840000000  0.4633310000000  0.4335800000000 1.0
C      1  0.4139500000000  0.5027820000000  0.5306560000000 1.0
C      1  0.5635530000000  0.4583920000000  0.4812380000000 1.0
C      1  0.4133220000000  0.5211040000000  0.5098160000000 1.0
C      1  0.4937310000000  0.4746400000000  0.4226060000000 1.0
C      1  0.5826210000000  0.5104050000000  0.5146050000000 1.0
C      1  0.5266460000000  0.5087550000000  0.4305250000000 1.0
C      1  0.5076130000000  0.5650690000000  0.4644870000000 1.0
C      1  0.4514810000000  0.4775280000000  0.4808160000000 1.0
C      1  0.5027480000000  0.4571290000000  0.4793710000000 1.0
C      1  0.4933400000000  0.5340310000000  0.4837930000000 1.0
C      1  0.4445060000000  0.5239580000000  0.4738070000000 1.0
C      1  0.4601690000000  0.5015080000000  0.4650890000000 1.0
C      1  0.5413990000000  0.4852080000000  0.5477700000000 1.0
C      1  0.5231880000000  0.4803470000000  0.4181750000000 1.0
C      1  0.5096780000000  0.5577350000000  0.5175570000000 1.0
C      1  0.5715500000000  0.5041710000000  0.4594870000000 1.0
C      1  0.5005070000000  0.4533380000000  0.5576940000000 1.0
C      1  0.4869010000000  0.4517670000000  0.5046870000000 1.0
C      1  0.5399280000000  0.5147450000000  0.5445130000000 1.0
C      1  0.4564390000000  0.5467680000000  0.5416370000000 1.0
C      1  0.5249990000000  0.5330650000000  0.5627680000000 1.0
C      1  0.4340360000000  0.5383990000000  0.5566600000000 1.0
C      1  0.4916860000000  0.5081280000000  0.4675880000000 1.0
C      1  0.5345910000000  0.4431950000000  0.5230020000000 1.0
C      1  0.5433690000000  0.5354890000000  0.4741040000000 1.0
C      1  0.5351060000000  0.5634580000000  0.4756500000000 1.0
C      1  0.5141870000000  0.4858880000000  0.4775610000000 1.0
C      1  0.4395920000000  0.4618310000000  0.5279210000000 1.0
C      1  0.5253610000000  0.4302710000000  0.4640070000000 1.0
C      1  0.4695980000000  0.5723800000000  0.4699340000000 1.0
C      1  0.5623140000000  0.5492590000000  0.5148550000000 1.0
C      1  0.4866850000000  0.4837210000000  0.5277800000000 1.0
C      1  0.5005870000000  0.4313400000000  0.4502350000000 1.0
C      1  0.4803860000000  0.4745190000000  0.5559970000000 1.0
C      1  0.4532240000000  0.5509080000000  0.5121540000000 1.0
C      1  0.4337990000000  0.5350460000000  0.4968590000000 1.0
C      1  0.5833090000000  0.5359690000000  0.4953010000000 1.0
C      1  0.5405590000000  0.4928670000000  0.4968540000000 1.0
C      1  0.4936310000000  0.4268140000000  0.5200540000000 1.0
C      1  0.4151090000000  0.4755130000000  0.5250770000000 1.0
C      1  0.4841460000000  0.4526880000000  0.4402230000000 1.0
C      1  0.4424250000000  0.4908100000000  0.5695790000000 1.0
C      1  0.4673430000000  0.4987660000000  0.5830640000000 1.0
C      1  0.4614470000000  0.4706090000000  0.5086680000000 1.0
C      1  0.4775030000000  0.5598670000000  0.4960890000000 1.0
C      1  0.5619100000000  0.4800920000000  0.5269060000000 1.0
C      1  0.5719850000000  0.4879600000000  0.4847810000000 1.0
END
