TITL C-950528-5794-652 1.64255876031067e-06 125000 -360.769537254525 0 0 59 (C1) n - 1
REM
REM in /home/bkarasulu/work/CARBON/AIRSS/Generating-Clusters/EDIP-Nigel-Params/with-SteepDescent/Only-C1/SD-CG/HFTN-CG
REM
REM
REM
REM
REM
REM ./C.cell (11c1c37f851c82e70ff6c80c92926a4b)
REM
REM compiler GCC version 9.2.1 20190827 (Red Hat 9.2.1-1)
REM options -cpp -mtune=generic -march=x86-64 -g -O0 -fpre-include=/usr/include/finclude/math-vector-fortran.h
REM seed -844368529 -855630366 -300168972 -992381026 1863907212 49764391 1354954393 2074475986 618761936 1593040398 1431453802 -637756657 492331862 1561443546 267210807 1638911383 1277958195 -757028283 -836367265 -764195659 -819664897 695030822 1567561854 1600136185 -1269757046 -880233280 975824227 1580000623 -369892132 2036637609 797355379 -1924035242 -274833899
REM
CELL 1.54180   50.00000   50.00000   50.00000   90.00000   90.00000   90.00000
LATT -1
SFAC C  
C      1  0.4917020000000  0.4571810000000  0.5462640000000 1.0
C      1  0.4371290000000  0.5257440000000  0.5003390000000 1.0
C      1  0.4514530000000  0.5046030000000  0.4578800000000 1.0
C      1  0.5083580000000  0.5480010000000  0.5223710000000 1.0
C      1  0.4459080000000  0.4513950000000  0.4828750000000 1.0
C      1  0.5492750000000  0.4806430000000  0.4556150000000 1.0
C      1  0.5155230000000  0.4422780000000  0.4519840000000 1.0
C      1  0.4849550000000  0.4502290000000  0.5196340000000 1.0
C      1  0.4317810000000  0.4748390000000  0.5220550000000 1.0
C      1  0.5562400000000  0.4828050000000  0.5390180000000 1.0
C      1  0.5314580000000  0.5563950000000  0.4758420000000 1.0
C      1  0.5167900000000  0.4766130000000  0.4938550000000 1.0
C      1  0.4696240000000  0.4573590000000  0.4421000000000 1.0
C      1  0.5221890000000  0.4905910000000  0.4461390000000 1.0
C      1  0.4840210000000  0.5318450000000  0.5544100000000 1.0
C      1  0.4912240000000  0.5720350000000  0.5177830000000 1.0
C      1  0.4715810000000  0.4786130000000  0.4240180000000 1.0
C      1  0.4352470000000  0.4749680000000  0.4942600000000 1.0
C      1  0.5378680000000  0.4385530000000  0.5363830000000 1.0
C      1  0.5645180000000  0.4931880000000  0.4805830000000 1.0
C      1  0.5119160000000  0.4750440000000  0.5536980000000 1.0
C      1  0.4869660000000  0.5545000000000  0.4586310000000 1.0
C      1  0.5670700000000  0.4691360000000  0.4980980000000 1.0
C      1  0.5395400000000  0.4564230000000  0.4921160000000 1.0
C      1  0.4405120000000  0.5218600000000  0.5296900000000 1.0
C      1  0.5423760000000  0.4503870000000  0.4627210000000 1.0
C      1  0.4725750000000  0.4540830000000  0.4715870000000 1.0
C      1  0.5204540000000  0.5045930000000  0.4878920000000 1.0
C      1  0.5422660000000  0.5299880000000  0.5446740000000 1.0
C      1  0.5467350000000  0.5129680000000  0.4972780000000 1.0
C      1  0.4623590000000  0.5570890000000  0.4693350000000 1.0
C      1  0.5406880000000  0.5059000000000  0.5274250000000 1.0
C      1  0.5132080000000  0.5189170000000  0.4421720000000 1.0
C      1  0.5318050000000  0.4329410000000  0.5094170000000 1.0
C      1  0.4877920000000  0.5201250000000  0.4302850000000 1.0
C      1  0.4989270000000  0.5907130000000  0.4982440000000 1.0
C      1  0.4648850000000  0.5045000000000  0.4332720000000 1.0
C      1  0.4788000000000  0.5074140000000  0.5713600000000 1.0
C      1  0.4593530000000  0.5420250000000  0.5404310000000 1.0
C      1  0.5487410000000  0.5436410000000  0.4968110000000 1.0
C      1  0.4878830000000  0.4707090000000  0.4962980000000 1.0
C      1  0.4946760000000  0.4324160000000  0.4740930000000 1.0
C      1  0.5380180000000  0.4632500000000  0.5500650000000 1.0
C      1  0.4504380000000  0.5519300000000  0.4942230000000 1.0
C      1  0.5053080000000  0.5110880000000  0.5292640000000 1.0
C      1  0.5381230000000  0.5519410000000  0.5241930000000 1.0
C      1  0.5211910000000  0.5258880000000  0.5652040000000 1.0
C      1  0.5105050000000  0.5397890000000  0.4630670000000 1.0
C      1  0.5772960000000  0.4728190000000  0.5238800000000 1.0
C      1  0.5077220000000  0.4988270000000  0.5713670000000 1.0
C      1  0.4490050000000  0.5010470000000  0.4864840000000 1.0
C      1  0.4590070000000  0.4899460000000  0.5613530000000 1.0
C      1  0.5063140000000  0.4669880000000  0.4355660000000 1.0
C      1  0.4972250000000  0.5188370000000  0.4993710000000 1.0
C      1  0.4417210000000  0.4943200000000  0.5396330000000 1.0
C      1  0.5203960000000  0.5805660000000  0.4852510000000 1.0
C      1  0.4760090000000  0.4978070000000  0.4986340000000 1.0
C      1  0.5022600000000  0.4291120000000  0.5042530000000 1.0
C      1  0.4630900000000  0.5625990000000  0.5192570000000 1.0
END
