TITL C-951340-9809-477 -1.44322828651775e-06 125000 -642.80685620431 0 0 102 (C1) n - 1
REM
REM in /home/bkarasulu/work/CARBON/AIRSS/Generating-Clusters/EDIP-Nigel-Params/with-SteepDescent/Only-C1/SD-CG/HFTN-CG
REM
REM
REM
REM
REM
REM ./C.cell (11c1c37f851c82e70ff6c80c92926a4b)
REM
REM compiler GCC version 9.2.1 20190827 (Red Hat 9.2.1-1)
REM options -cpp -mtune=generic -march=x86-64 -g -O0 -fpre-include=/usr/include/finclude/math-vector-fortran.h
REM seed -2014262492 -1164039131 350707678 -480341193 -68128519 -1825787761 691267997 -1411737989 -1178779771 -356402231 -1697070061 -1859893011 -1987960550 -1599718687 2123952022 493608687 2081599468 -1453370835 -528797734 -1231246392 85597487 1042010894 -2097491366 1553343936 -1890084535 -2045177557 674377068 1513248500 1285948840 -1415772327 -874695681 1661221499 -1059833220
REM
CELL 1.54180   50.00000   50.00000   50.00000   90.00000   90.00000   90.00000
LATT -1
SFAC C  
C      1  0.5203250000000  0.4152030000000  0.4991600000000 1.0
C      1  0.5020330000000  0.4129720000000  0.4769910000000 1.0
C      1  0.4949410000000  0.4997080000000  0.5299360000000 1.0
C      1  0.4689230000000  0.5913340000000  0.5280640000000 1.0
C      1  0.4964230000000  0.5294820000000  0.4653630000000 1.0
C      1  0.4439210000000  0.5064560000000  0.4508440000000 1.0
C      1  0.5139290000000  0.5781290000000  0.4727020000000 1.0
C      1  0.4525350000000  0.4403930000000  0.5248310000000 1.0
C      1  0.5351360000000  0.5930350000000  0.5341170000000 1.0
C      1  0.5012250000000  0.5121170000000  0.5780550000000 1.0
C      1  0.4157790000000  0.5123060000000  0.4908160000000 1.0
C      1  0.5199980000000  0.4144760000000  0.4544680000000 1.0
C      1  0.4676950000000  0.4408940000000  0.4528520000000 1.0
C      1  0.5162330000000  0.4644230000000  0.4969520000000 1.0
C      1  0.4153530000000  0.5268460000000  0.5164240000000 1.0
C      1  0.4668190000000  0.4225540000000  0.5427110000000 1.0
C      1  0.5389430000000  0.4467650000000  0.5435760000000 1.0
C      1  0.5792120000000  0.4757940000000  0.4853990000000 1.0
C      1  0.4553840000000  0.4254660000000  0.4986470000000 1.0
C      1  0.5666360000000  0.4940340000000  0.5298470000000 1.0
C      1  0.5463650000000  0.5430240000000  0.4833130000000 1.0
C      1  0.5507700000000  0.5142490000000  0.4886290000000 1.0
C      1  0.5278090000000  0.4714830000000  0.5862170000000 1.0
C      1  0.4779490000000  0.5325010000000  0.4974430000000 1.0
C      1  0.4795250000000  0.4341860000000  0.4798190000000 1.0
C      1  0.4540720000000  0.5508370000000  0.4976890000000 1.0
C      1  0.5586970000000  0.4823330000000  0.4403690000000 1.0
C      1  0.4848980000000  0.5812640000000  0.5062350000000 1.0
C      1  0.5380000000000  0.4752470000000  0.4217680000000 1.0
C      1  0.5494310000000  0.5123270000000  0.5702400000000 1.0
C      1  0.4760050000000  0.5553440000000  0.5612800000000 1.0
C      1  0.4890170000000  0.4339370000000  0.5611710000000 1.0
C      1  0.5354410000000  0.4410630000000  0.4948680000000 1.0
C      1  0.5548780000000  0.4455570000000  0.5181580000000 1.0
C      1  0.5071730000000  0.4116600000000  0.4293500000000 1.0
C      1  0.4653650000000  0.5782680000000  0.4599850000000 1.0
C      1  0.4722300000000  0.5414400000000  0.4249800000000 1.0
C      1  0.4745560000000  0.5046610000000  0.5082320000000 1.0
C      1  0.5491060000000  0.5298070000000  0.4385790000000 1.0
C      1  0.5466540000000  0.5856540000000  0.5096340000000 1.0
C      1  0.5465360000000  0.4400910000000  0.4651150000000 1.0
C      1  0.5061050000000  0.4126460000000  0.5241490000000 1.0
C      1  0.5248260000000  0.5549350000000  0.5632050000000 1.0
C      1  0.5554990000000  0.5508530000000  0.4565100000000 1.0
C      1  0.4385370000000  0.5527380000000  0.4719430000000 1.0
C      1  0.5422920000000  0.5341760000000  0.5499850000000 1.0
C      1  0.5158980000000  0.5777050000000  0.5475420000000 1.0
C      1  0.4266040000000  0.4540660000000  0.5282700000000 1.0
C      1  0.5148970000000  0.5265640000000  0.5306200000000 1.0
C      1  0.5692530000000  0.5090500000000  0.4387620000000 1.0
C      1  0.4775240000000  0.4940320000000  0.4115080000000 1.0
C      1  0.4315280000000  0.4391940000000  0.4830080000000 1.0
C      1  0.4290170000000  0.4861300000000  0.4917970000000 1.0
C      1  0.4413470000000  0.5835460000000  0.5289720000000 1.0
C      1  0.4477810000000  0.4823850000000  0.4694320000000 1.0
C      1  0.4759030000000  0.4859420000000  0.4842930000000 1.0
C      1  0.5333100000000  0.5933060000000  0.4862420000000 1.0
C      1  0.4865560000000  0.5877880000000  0.4779550000000 1.0
C      1  0.5837950000000  0.5185550000000  0.5266650000000 1.0
C      1  0.4673720000000  0.4668830000000  0.4107500000000 1.0
C      1  0.4862210000000  0.4643760000000  0.5714290000000 1.0
C      1  0.4886890000000  0.4600450000000  0.4917440000000 1.0
C      1  0.4995950000000  0.4818530000000  0.4416360000000 1.0
C      1  0.4426710000000  0.4539740000000  0.4593550000000 1.0
C      1  0.5978410000000  0.5181890000000  0.5026430000000 1.0
C      1  0.5459690000000  0.4652260000000  0.5653300000000 1.0
C      1  0.5001040000000  0.5410000000000  0.4372330000000 1.0
C      1  0.4550140000000  0.5005450000000  0.5722330000000 1.0
C      1  0.5002240000000  0.5405490000000  0.5698960000000 1.0
C      1  0.4835180000000  0.4937380000000  0.5627840000000 1.0
C      1  0.4860730000000  0.5809340000000  0.5504780000000 1.0
C      1  0.5412770000000  0.5052420000000  0.5161200000000 1.0
C      1  0.5663050000000  0.5428510000000  0.5318560000000 1.0
C      1  0.5586590000000  0.5587520000000  0.5068130000000 1.0
C      1  0.5799540000000  0.5059000000000  0.4832460000000 1.0
C      1  0.4543550000000  0.5423060000000  0.5464750000000 1.0
C      1  0.5270540000000  0.5002290000000  0.5850250000000 1.0
C      1  0.5147070000000  0.4300120000000  0.5457020000000 1.0
C      1  0.4214440000000  0.5080210000000  0.5387880000000 1.0
C      1  0.5163560000000  0.5493590000000  0.4828510000000 1.0
C      1  0.4396580000000  0.5205990000000  0.5576330000000 1.0
C      1  0.5022310000000  0.5472620000000  0.5103340000000 1.0
C      1  0.5619000000000  0.4887900000000  0.5585250000000 1.0
C      1  0.4838790000000  0.4553130000000  0.4318970000000 1.0
C      1  0.4271360000000  0.5257200000000  0.4663010000000 1.0
C      1  0.4949670000000  0.4988280000000  0.4655480000000 1.0
C      1  0.5152030000000  0.4962820000000  0.4177680000000 1.0
C      1  0.4401640000000  0.4753750000000  0.5713530000000 1.0
C      1  0.5292760000000  0.4499620000000  0.4326590000000 1.0
C      1  0.4179800000000  0.4600520000000  0.5005120000000 1.0
C      1  0.4392810000000  0.5547710000000  0.5238430000000 1.0
C      1  0.5736590000000  0.4684790000000  0.5137850000000 1.0
C      1  0.4273920000000  0.4786750000000  0.5449670000000 1.0
C      1  0.5657190000000  0.4633380000000  0.4618890000000 1.0
C      1  0.5227580000000  0.5249700000000  0.4252530000000 1.0
C      1  0.4605430000000  0.5138020000000  0.4263010000000 1.0
C      1  0.5192030000000  0.4845770000000  0.5177820000000 1.0
C      1  0.4557970000000  0.5612090000000  0.4389610000000 1.0
C      1  0.4783740000000  0.4047000000000  0.5229450000000 1.0
C      1  0.5058110000000  0.4383550000000  0.4208100000000 1.0
C      1  0.5897400000000  0.5137570000000  0.4570390000000 1.0
C      1  0.4593380000000  0.4542660000000  0.5758210000000 1.0
END
