TITL C-951333-8791-103 2.9831602469074e-06 125000 -741.469023457118 0 0 120 (C1) n - 1
REM
REM in /home/bkarasulu/work/CARBON/AIRSS/Generating-Clusters/EDIP-Nigel-Params/with-SteepDescent/Only-C1/SD-CG/HFTN-CG
REM
REM
REM
REM
REM
REM ./C.cell (11c1c37f851c82e70ff6c80c92926a4b)
REM
REM compiler GCC version 9.2.1 20190827 (Red Hat 9.2.1-1)
REM options -cpp -mtune=generic -march=x86-64 -g -O0 -fpre-include=/usr/include/finclude/math-vector-fortran.h
REM seed -1445450203 -1226389234 -827800201 -2031749700 446104818 -342808006 1189758627 -1719773658 -442128652 -1435311195 940799450 -829110834 1318658173 2026132114 -711871477 -822162024 942743923 -1664161400 -813031511 -510641231 -1275166230 -223910164 -1811802198 1834272947 -543292581 1159734712 209910501 -1977491358 -391211683 -1044636026 1001355854 -542897102 -1040033818
REM
CELL 1.54180   50.00000   50.00000   50.00000   90.00000   90.00000   90.00000
LATT -1
SFAC C  
C      1  0.5281780000000  0.3985690000000  0.5642460000000 1.0
C      1  0.4903710000000  0.4763440000000  0.5013560000000 1.0
C      1  0.4819570000000  0.5375010000000  0.5020560000000 1.0
C      1  0.5523000000000  0.4504580000000  0.4294510000000 1.0
C      1  0.4810940000000  0.4760560000000  0.4561890000000 1.0
C      1  0.5654690000000  0.4809760000000  0.5065230000000 1.0
C      1  0.5728960000000  0.4503700000000  0.5041660000000 1.0
C      1  0.4716970000000  0.5725290000000  0.4351760000000 1.0
C      1  0.5308190000000  0.4679540000000  0.5426960000000 1.0
C      1  0.4666780000000  0.4998500000000  0.5355380000000 1.0
C      1  0.4142570000000  0.5260080000000  0.4388470000000 1.0
C      1  0.5624510000000  0.5519480000000  0.4928090000000 1.0
C      1  0.6019250000000  0.4562900000000  0.5135560000000 1.0
C      1  0.5627950000000  0.4999480000000  0.5548120000000 1.0
C      1  0.4431400000000  0.4542160000000  0.4367420000000 1.0
C      1  0.4138970000000  0.4808820000000  0.5300240000000 1.0
C      1  0.5254910000000  0.5528880000000  0.4241540000000 1.0
C      1  0.5170610000000  0.4921020000000  0.4328190000000 1.0
C      1  0.5304720000000  0.5146430000000  0.5075390000000 1.0
C      1  0.6096050000000  0.4701100000000  0.4881030000000 1.0
C      1  0.5431740000000  0.5693160000000  0.4767540000000 1.0
C      1  0.4224940000000  0.4598700000000  0.4553470000000 1.0
C      1  0.4669640000000  0.5012010000000  0.4131590000000 1.0
C      1  0.5849380000000  0.4942390000000  0.4822020000000 1.0
C      1  0.5269620000000  0.4548480000000  0.4160520000000 1.0
C      1  0.4984570000000  0.3996640000000  0.4972550000000 1.0
C      1  0.5566940000000  0.4311440000000  0.5207990000000 1.0
C      1  0.5431580000000  0.4819180000000  0.5648730000000 1.0
C      1  0.4263220000000  0.5081420000000  0.4995700000000 1.0
C      1  0.5271570000000  0.4633950000000  0.4665580000000 1.0
C      1  0.4599260000000  0.4313230000000  0.4466840000000 1.0
C      1  0.4700230000000  0.6074400000000  0.5274960000000 1.0
C      1  0.4433310000000  0.5487300000000  0.5717820000000 1.0
C      1  0.5738850000000  0.4423480000000  0.4750270000000 1.0
C      1  0.5037410000000  0.5446960000000  0.4612670000000 1.0
C      1  0.4404380000000  0.4750050000000  0.5694990000000 1.0
C      1  0.4319140000000  0.5809700000000  0.4947190000000 1.0
C      1  0.5868080000000  0.5457650000000  0.4748230000000 1.0
C      1  0.4759240000000  0.4095830000000  0.4873750000000 1.0
C      1  0.5351350000000  0.5334410000000  0.5784820000000 1.0
C      1  0.5437360000000  0.4074200000000  0.5128080000000 1.0
C      1  0.5647980000000  0.4777170000000  0.4319020000000 1.0
C      1  0.5891420000000  0.4790650000000  0.4472880000000 1.0
C      1  0.4243380000000  0.5008860000000  0.5752470000000 1.0
C      1  0.5522910000000  0.5276210000000  0.5538390000000 1.0
C      1  0.5054000000000  0.5359400000000  0.4117930000000 1.0
C      1  0.4656220000000  0.4946110000000  0.5647090000000 1.0
C      1  0.5176130000000  0.3975130000000  0.5170200000000 1.0
C      1  0.4210990000000  0.5541620000000  0.4932300000000 1.0
C      1  0.4880760000000  0.4338510000000  0.4387420000000 1.0
C      1  0.4884030000000  0.5736890000000  0.5262120000000 1.0
C      1  0.4246660000000  0.5341830000000  0.5131460000000 1.0
C      1  0.5113160000000  0.5754390000000  0.5464930000000 1.0
C      1  0.4820280000000  0.5237510000000  0.5287420000000 1.0
C      1  0.5075900000000  0.4000500000000  0.5446990000000 1.0
C      1  0.4188860000000  0.5514260000000  0.5584080000000 1.0
C      1  0.4492880000000  0.4523630000000  0.4921420000000 1.0
C      1  0.5055360000000  0.5332080000000  0.5723180000000 1.0
C      1  0.4886370000000  0.5973900000000  0.5068080000000 1.0
C      1  0.4321570000000  0.5440220000000  0.4301160000000 1.0
C      1  0.4994700000000  0.4872610000000  0.5922290000000 1.0
C      1  0.4775370000000  0.5281530000000  0.4245160000000 1.0
C      1  0.5441080000000  0.5560450000000  0.4469600000000 1.0
C      1  0.5524800000000  0.5228160000000  0.4909790000000 1.0
C      1  0.4768820000000  0.5924010000000  0.4820120000000 1.0
C      1  0.5264430000000  0.4895050000000  0.5857800000000 1.0
C      1  0.4006490000000  0.5034790000000  0.4832230000000 1.0
C      1  0.4520680000000  0.5827620000000  0.4737280000000 1.0
C      1  0.6021730000000  0.4737540000000  0.5359110000000 1.0
C      1  0.5205360000000  0.5679790000000  0.4976420000000 1.0
C      1  0.5912010000000  0.5211070000000  0.5224290000000 1.0
C      1  0.5060330000000  0.5231950000000  0.5449900000000 1.0
C      1  0.5809200000000  0.4931600000000  0.5310200000000 1.0
C      1  0.4109570000000  0.5330230000000  0.5386830000000 1.0
C      1  0.5355470000000  0.4837740000000  0.5136610000000 1.0
C      1  0.4918450000000  0.4892990000000  0.3998840000000 1.0
C      1  0.5399780000000  0.4230380000000  0.5641660000000 1.0
C      1  0.4659990000000  0.4741220000000  0.4303010000000 1.0
C      1  0.4512330000000  0.5035510000000  0.4842180000000 1.0
C      1  0.5631380000000  0.5628850000000  0.5219150000000 1.0
C      1  0.4032550000000  0.5086640000000  0.4559830000000 1.0
C      1  0.5183820000000  0.4695080000000  0.4950070000000 1.0
C      1  0.5302070000000  0.5314180000000  0.5321720000000 1.0
C      1  0.5757790000000  0.5425930000000  0.5389160000000 1.0
C      1  0.4427780000000  0.5521690000000  0.4706940000000 1.0
C      1  0.5084340000000  0.5423410000000  0.4905920000000 1.0
C      1  0.4104430000000  0.5049470000000  0.5485840000000 1.0
C      1  0.4843450000000  0.5243810000000  0.4541230000000 1.0
C      1  0.4943260000000  0.4360620000000  0.5750610000000 1.0
C      1  0.4041550000000  0.4762390000000  0.4995390000000 1.0
C      1  0.4655920000000  0.5655100000000  0.5627020000000 1.0
C      1  0.4791150000000  0.4730550000000  0.5280680000000 1.0
C      1  0.4978960000000  0.4988350000000  0.4546090000000 1.0
C      1  0.4869240000000  0.4620740000000  0.5845050000000 1.0
C      1  0.5314990000000  0.5617850000000  0.5259420000000 1.0
C      1  0.4667560000000  0.4770950000000  0.4828800000000 1.0
C      1  0.5151330000000  0.5088630000000  0.4066050000000 1.0
C      1  0.4949120000000  0.5615130000000  0.5682130000000 1.0
C      1  0.4556600000000  0.4522090000000  0.5253780000000 1.0
C      1  0.5975340000000  0.4569200000000  0.4638500000000 1.0
C      1  0.4587210000000  0.5882740000000  0.5460080000000 1.0
C      1  0.4467840000000  0.5221710000000  0.5838790000000 1.0
C      1  0.5967990000000  0.5215810000000  0.4916240000000 1.0
C      1  0.5428890000000  0.4894690000000  0.4487970000000 1.0
C      1  0.4846990000000  0.5131710000000  0.5868610000000 1.0
C      1  0.4949830000000  0.5696000000000  0.4498900000000 1.0
C      1  0.5462780000000  0.4423300000000  0.5449030000000 1.0
C      1  0.4322990000000  0.4620330000000  0.5430850000000 1.0
C      1  0.5005820000000  0.4635640000000  0.5486330000000 1.0
C      1  0.4584130000000  0.5506990000000  0.4234380000000 1.0
C      1  0.4642090000000  0.5293660000000  0.4783280000000 1.0
C      1  0.4212890000000  0.4575150000000  0.4834050000000 1.0
C      1  0.5000050000000  0.4542900000000  0.4556740000000 1.0
C      1  0.4884170000000  0.4215130000000  0.5506990000000 1.0
C      1  0.5514880000000  0.5153350000000  0.4628550000000 1.0
C      1  0.5681860000000  0.5366400000000  0.4499290000000 1.0
C      1  0.4583430000000  0.4279710000000  0.4765080000000 1.0
C      1  0.5484110000000  0.4424770000000  0.4586520000000 1.0
C      1  0.4982130000000  0.4602350000000  0.4120060000000 1.0
C      1  0.4660520000000  0.4272880000000  0.5349680000000 1.0
END
