TITL C-951346-9544-323 -4.31702072113791e-06 125000 -1061.12112852259 0 0 168 (C1) n - 1
REM
REM in /home/bkarasulu/work/CARBON/AIRSS/Generating-Clusters/EDIP-Nigel-Params/with-SteepDescent/Only-C1/SD-CG/HFTN-CG
REM
REM
REM
REM
REM
REM ./C.cell (11c1c37f851c82e70ff6c80c92926a4b)
REM
REM compiler GCC version 9.2.1 20190827 (Red Hat 9.2.1-1)
REM options -cpp -mtune=generic -march=x86-64 -g -O0 -fpre-include=/usr/include/finclude/math-vector-fortran.h
REM seed 659748019 -42132105 1196969991 -1220607977 1461207446 1023683907 -119371306 1823103039 883060081 -2000312424 -1579384254 -1579809263 1257655152 226360364 745275656 -2140061279 1152874001 -73516749 5250728 -563847794 221419566 2014507752 1498626761 495307948 -1165628460 1001893113 1086266593 -2052239127 1961036944 -262004501 1052507643 1430942625 317269618
REM
CELL 1.54180   50.00000   50.00000   50.00000   90.00000   90.00000   90.00000
LATT -1
SFAC C  
C      1  0.5979590000000  0.4732130000000  0.5064720000000 1.0
C      1  0.5273700000000  0.5814570000000  0.5392830000000 1.0
C      1  0.5082170000000  0.4338550000000  0.5701420000000 1.0
C      1  0.5864720000000  0.5204890000000  0.5689410000000 1.0
C      1  0.5038700000000  0.4664820000000  0.5323180000000 1.0
C      1  0.5368070000000  0.5380550000000  0.5797690000000 1.0
C      1  0.5362650000000  0.6050200000000  0.5028610000000 1.0
C      1  0.4534220000000  0.5937170000000  0.5278260000000 1.0
C      1  0.3934260000000  0.5444910000000  0.5042800000000 1.0
C      1  0.5146790000000  0.4027730000000  0.4647770000000 1.0
C      1  0.4771800000000  0.4619530000000  0.5933690000000 1.0
C      1  0.4524450000000  0.5374570000000  0.4580650000000 1.0
C      1  0.4681880000000  0.5123630000000  0.5933460000000 1.0
C      1  0.5648380000000  0.4380540000000  0.4208230000000 1.0
C      1  0.5872170000000  0.5298970000000  0.4631000000000 1.0
C      1  0.4305720000000  0.4751710000000  0.5840290000000 1.0
C      1  0.5106440000000  0.4377200000000  0.5225680000000 1.0
C      1  0.6123870000000  0.4872340000000  0.4838990000000 1.0
C      1  0.4591640000000  0.4893090000000  0.4031220000000 1.0
C      1  0.5995980000000  0.4831850000000  0.5344080000000 1.0
C      1  0.4899620000000  0.5277790000000  0.4106720000000 1.0
C      1  0.5449340000000  0.4989560000000  0.5987490000000 1.0
C      1  0.4589310000000  0.4288450000000  0.5265100000000 1.0
C      1  0.4761140000000  0.4669470000000  0.4544210000000 1.0
C      1  0.5839990000000  0.4651510000000  0.5515400000000 1.0
C      1  0.5204950000000  0.5811920000000  0.4956500000000 1.0
C      1  0.4478450000000  0.4523520000000  0.4318050000000 1.0
C      1  0.4118340000000  0.5003610000000  0.4721870000000 1.0
C      1  0.5291980000000  0.5245530000000  0.4493740000000 1.0
C      1  0.5359840000000  0.5225270000000  0.4061470000000 1.0
C      1  0.6062160000000  0.5140320000000  0.4766430000000 1.0
C      1  0.3809430000000  0.5193050000000  0.5457600000000 1.0
C      1  0.5422940000000  0.3951850000000  0.5074290000000 1.0
C      1  0.4833130000000  0.5034540000000  0.3941100000000 1.0
C      1  0.4440850000000  0.4249430000000  0.4441290000000 1.0
C      1  0.4075870000000  0.5494070000000  0.4573870000000 1.0
C      1  0.4954800000000  0.4581000000000  0.4039330000000 1.0
C      1  0.4579230000000  0.4871110000000  0.4964270000000 1.0
C      1  0.5371680000000  0.4125520000000  0.4832240000000 1.0
C      1  0.5782900000000  0.4819990000000  0.4027510000000 1.0
C      1  0.4209560000000  0.4312260000000  0.4611090000000 1.0
C      1  0.6130880000000  0.4885720000000  0.4356500000000 1.0
C      1  0.4589480000000  0.5595660000000  0.5944970000000 1.0
C      1  0.5303410000000  0.4912430000000  0.4065660000000 1.0
C      1  0.6037920000000  0.5110510000000  0.5459480000000 1.0
C      1  0.4334780000000  0.4422610000000  0.4863090000000 1.0
C      1  0.5086770000000  0.5430910000000  0.5885450000000 1.0
C      1  0.3896430000000  0.4956760000000  0.5584280000000 1.0
C      1  0.4541020000000  0.4310210000000  0.5602360000000 1.0
C      1  0.5210420000000  0.4969750000000  0.5590020000000 1.0
C      1  0.5812810000000  0.4747670000000  0.5786240000000 1.0
C      1  0.5373660000000  0.5412690000000  0.4751190000000 1.0
C      1  0.5809700000000  0.5489780000000  0.5607540000000 1.0
C      1  0.4536510000000  0.3979560000000  0.4866630000000 1.0
C      1  0.5363830000000  0.4855870000000  0.4809770000000 1.0
C      1  0.5211190000000  0.5305820000000  0.4988480000000 1.0
C      1  0.5844860000000  0.4454670000000  0.5026270000000 1.0
C      1  0.4404530000000  0.5786170000000  0.5017100000000 1.0
C      1  0.4121860000000  0.4602950000000  0.4980780000000 1.0
C      1  0.4903660000000  0.5105030000000  0.5393060000000 1.0
C      1  0.5322100000000  0.4758180000000  0.4348700000000 1.0
C      1  0.4977640000000  0.5717290000000  0.4563180000000 1.0
C      1  0.5130470000000  0.4144370000000  0.4219010000000 1.0
C      1  0.4452010000000  0.5819610000000  0.4444960000000 1.0
C      1  0.4002270000000  0.5677030000000  0.5584730000000 1.0
C      1  0.5305470000000  0.4391730000000  0.4981410000000 1.0
C      1  0.5249160000000  0.5789990000000  0.5679570000000 1.0
C      1  0.4798540000000  0.5037350000000  0.4839490000000 1.0
C      1  0.4531340000000  0.5874060000000  0.4734930000000 1.0
C      1  0.5276340000000  0.5699990000000  0.4694130000000 1.0
C      1  0.4850850000000  0.5438340000000  0.4597720000000 1.0
C      1  0.5044120000000  0.4692180000000  0.6015260000000 1.0
C      1  0.5158110000000  0.4959230000000  0.5900950000000 1.0
C      1  0.5108240000000  0.5673710000000  0.4101620000000 1.0
C      1  0.5493650000000  0.5640840000000  0.5768370000000 1.0
C      1  0.5765030000000  0.5199630000000  0.4374970000000 1.0
C      1  0.4309770000000  0.4510710000000  0.5641540000000 1.0
C      1  0.4707530000000  0.5746860000000  0.5740680000000 1.0
C      1  0.4781140000000  0.4980310000000  0.4548260000000 1.0
C      1  0.5577360000000  0.4617780000000  0.5387210000000 1.0
C      1  0.4819010000000  0.5985390000000  0.5226460000000 1.0
C      1  0.4914000000000  0.3924490000000  0.5161720000000 1.0
C      1  0.4436420000000  0.5048060000000  0.4206720000000 1.0
C      1  0.4344310000000  0.4953610000000  0.5438090000000 1.0
C      1  0.4324330000000  0.5068980000000  0.4940570000000 1.0
C      1  0.4793710000000  0.4463600000000  0.5682560000000 1.0
C      1  0.5131860000000  0.5411980000000  0.4000050000000 1.0
C      1  0.5211540000000  0.5438740000000  0.5292020000000 1.0
C      1  0.4239680000000  0.5274800000000  0.5801870000000 1.0
C      1  0.4057060000000  0.5496390000000  0.5788740000000 1.0
C      1  0.4965650000000  0.5177730000000  0.5954880000000 1.0
C      1  0.5705020000000  0.5755900000000  0.4797170000000 1.0
C      1  0.5440100000000  0.4454720000000  0.4005160000000 1.0
C      1  0.4673410000000  0.4624610000000  0.4115300000000 1.0
C      1  0.5791130000000  0.4647150000000  0.4612620000000 1.0
C      1  0.5245530000000  0.4263410000000  0.5462960000000 1.0
C      1  0.4176970000000  0.4993180000000  0.5692080000000 1.0
C      1  0.4331410000000  0.5548800000000  0.4422850000000 1.0
C      1  0.5178900000000  0.3839020000000  0.5147610000000 1.0
C      1  0.5619750000000  0.4170050000000  0.4664260000000 1.0
C      1  0.4982800000000  0.5625530000000  0.5679340000000 1.0
C      1  0.5557140000000  0.5342220000000  0.4238210000000 1.0
C      1  0.5809340000000  0.4380770000000  0.4744940000000 1.0
C      1  0.5515890000000  0.5841790000000  0.4596230000000 1.0
C      1  0.4394410000000  0.5358380000000  0.4863550000000 1.0
C      1  0.6053460000000  0.5344100000000  0.5266930000000 1.0
C      1  0.4587910000000  0.4841800000000  0.5896940000000 1.0
C      1  0.4491720000000  0.5333820000000  0.5929180000000 1.0
C      1  0.4225650000000  0.4666310000000  0.4301070000000 1.0
C      1  0.4567130000000  0.4594810000000  0.5238670000000 1.0
C      1  0.4946830000000  0.5812000000000  0.4285340000000 1.0
C      1  0.5783780000000  0.5350120000000  0.5117820000000 1.0
C      1  0.4407670000000  0.4189350000000  0.5041710000000 1.0
C      1  0.3972250000000  0.5246700000000  0.5234950000000 1.0
C      1  0.5539980000000  0.5734170000000  0.5288990000000 1.0
C      1  0.4817210000000  0.5884490000000  0.4751510000000 1.0
C      1  0.4928800000000  0.4209900000000  0.4604240000000 1.0
C      1  0.4231060000000  0.5814130000000  0.5656880000000 1.0
C      1  0.5629130000000  0.5900670000000  0.5053360000000 1.0
C      1  0.4218240000000  0.5102940000000  0.5211450000000 1.0
C      1  0.5219510000000  0.4601570000000  0.4791140000000 1.0
C      1  0.6076400000000  0.4733940000000  0.4585840000000 1.0
C      1  0.4583320000000  0.4612860000000  0.4802670000000 1.0
C      1  0.4520430000000  0.5513160000000  0.5077650000000 1.0
C      1  0.5636810000000  0.5463810000000  0.5355200000000 1.0
C      1  0.5344710000000  0.4669390000000  0.5566620000000 1.0
C      1  0.5210970000000  0.3943330000000  0.4386940000000 1.0
C      1  0.4647360000000  0.4110480000000  0.4609740000000 1.0
C      1  0.4772270000000  0.4670180000000  0.5452320000000 1.0
C      1  0.4007220000000  0.5218710000000  0.4573740000000 1.0
C      1  0.4302760000000  0.4657850000000  0.5377970000000 1.0
C      1  0.5513590000000  0.4748460000000  0.3929850000000 1.0
C      1  0.5699510000000  0.5448390000000  0.4828400000000 1.0
C      1  0.4915590000000  0.5320910000000  0.4882790000000 1.0
C      1  0.4004210000000  0.4734150000000  0.4743180000000 1.0
C      1  0.4492920000000  0.5798140000000  0.5539210000000 1.0
C      1  0.4921580000000  0.5414750000000  0.5361030000000 1.0
C      1  0.5065510000000  0.4548680000000  0.4529690000000 1.0
C      1  0.5363040000000  0.5248210000000  0.5517630000000 1.0
C      1  0.4066820000000  0.4552130000000  0.4506710000000 1.0
C      1  0.5683050000000  0.5001160000000  0.5804470000000 1.0
C      1  0.5042680000000  0.4924430000000  0.5187530000000 1.0
C      1  0.4867590000000  0.4205980000000  0.5190180000000 1.0
C      1  0.6056770000000  0.5564190000000  0.5459200000000 1.0
C      1  0.5217230000000  0.4466110000000  0.5936470000000 1.0
C      1  0.4520120000000  0.5097720000000  0.4468860000000 1.0
C      1  0.4664480000000  0.4954970000000  0.5529540000000 1.0
C      1  0.5594750000000  0.4168090000000  0.4383800000000 1.0
C      1  0.4982090000000  0.5232280000000  0.4408980000000 1.0
C      1  0.5452420000000  0.4628470000000  0.5854310000000 1.0
C      1  0.5900240000000  0.4984820000000  0.4234040000000 1.0
C      1  0.5049330000000  0.4835050000000  0.3938350000000 1.0
C      1  0.4976060000000  0.6204790000000  0.5303450000000 1.0
C      1  0.4669120000000  0.5857270000000  0.4261000000000 1.0
C      1  0.5239990000000  0.6104170000000  0.5296790000000 1.0
C      1  0.5171830000000  0.4406400000000  0.4127180000000 1.0
C      1  0.5308590000000  0.4965710000000  0.4552690000000 1.0
C      1  0.5542590000000  0.4125250000000  0.5282090000000 1.0
C      1  0.3966410000000  0.4558910000000  0.5222140000000 1.0
C      1  0.5582250000000  0.4409560000000  0.5171480000000 1.0
C      1  0.5634000000000  0.4653040000000  0.4344100000000 1.0
C      1  0.4715890000000  0.3807920000000  0.5006750000000 1.0
C      1  0.4135260000000  0.5547480000000  0.4864190000000 1.0
C      1  0.5267340000000  0.5021920000000  0.5036790000000 1.0
C      1  0.4807580000000  0.5515010000000  0.5089950000000 1.0
C      1  0.3871710000000  0.4732400000000  0.5417870000000 1.0
C      1  0.4912730000000  0.5804820000000  0.5015570000000 1.0
C      1  0.5645570000000  0.4815680000000  0.4799790000000 1.0
END
