TITL C-2323486-8761-620 1.76877568658947e-05 125000 -358.734331227917 0 0 60 (C1) n - 1
REM
REM in /home/bkarasulu/CARBON/AIRSS/Generating-Clusters/LCBOP/Higher-Symm/Only-C60/SD-CG/FIRE-HFTN
REM
REM
REM
REM
REM
REM ./C.cell (50c204cfd26239f34c78669fe23a5462)
REM
REM compiler GCC version 9.2.1 20190827 (Red Hat 9.2.1-1)
REM options -cpp -mtune=generic -march=x86-64 -g -O0 -fpre-include=/usr/include/finclude/math-vector-fortran.h
REM seed 423393908 1795488111 1821279171 -1041237979 1938577143 -1377883030 301384758 -933864167 -1469405460 -321438376 -1478196658 -410022308 1325326872 -1233844023 1208459566 36978232 -1378238773 -1835880745 1560724074 -1913350951 399931824 -314140550 -396759261 904836273 -794506329 1494118717 1468632385 1108502878 930697668 -855010770 -1037546502 -690862144 -747476566
REM
CELL 1.54180   50.00000   50.00000   50.00000   90.00000   90.00000   90.00000
LATT -1
SFAC C  
C      1  0.5706140000000  0.4796440000000  0.4714440000000 1.0
C      1  0.4843130000000  0.5669830000000  0.4813640000000 1.0
C      1  0.4496390000000  0.4496040000000  0.4804040000000 1.0
C      1  0.5689360000000  0.5006750000000  0.4523280000000 1.0
C      1  0.4673340000000  0.5567810000000  0.4602910000000 1.0
C      1  0.4646990000000  0.4407470000000  0.4580790000000 1.0
C      1  0.4022460000000  0.5369860000000  0.4919460000000 1.0
C      1  0.5137380000000  0.3941970000000  0.4893820000000 1.0
C      1  0.5748160000000  0.5627420000000  0.4931460000000 1.0
C      1  0.4332510000000  0.5131190000000  0.4657450000000 1.0
C      1  0.5187670000000  0.4324010000000  0.4630420000000 1.0
C      1  0.5447310000000  0.5500080000000  0.4598740000000 1.0
C      1  0.5414510000000  0.5057070000000  0.4424350000000 1.0
C      1  0.4743360000000  0.5301050000000  0.4489380000000 1.0
C      1  0.4840050000000  0.4608670000000  0.4486290000000 1.0
C      1  0.5222490000000  0.5241780000000  0.5646560000000 1.0
C      1  0.4794420000000  0.5176900000000  0.5439180000000 1.0
C      1  0.5047300000000  0.4775770000000  0.5526410000000 1.0
C      1  0.5369520000000  0.5665890000000  0.5314200000000 1.0
C      1  0.4185230000000  0.5018050000000  0.5261140000000 1.0
C      1  0.5394740000000  0.4277380000000  0.5201050000000 1.0
C      1  0.5839230000000  0.5250120000000  0.4586850000000 1.0
C      1  0.4386730000000  0.5599130000000  0.4638130000000 1.0
C      1  0.4759100000000  0.4139080000000  0.4599080000000 1.0
C      1  0.4527950000000  0.4671580000000  0.5024310000000 1.0
C      1  0.5533190000000  0.4723730000000  0.4926690000000 1.0
C      1  0.4978100000000  0.5520450000000  0.5014990000000 1.0
C      1  0.5065310000000  0.4497830000000  0.5571580000000 1.0
C      1  0.5410000000000  0.5424260000000  0.5754600000000 1.0
C      1  0.4552960000000  0.5243500000000  0.5572680000000 1.0
C      1  0.4011330000000  0.5188130000000  0.5118540000000 1.0
C      1  0.5309980000000  0.4036080000000  0.5079860000000 1.0
C      1  0.5571140000000  0.5701960000000  0.5120640000000 1.0
C      1  0.4893890000000  0.5171110000000  0.4297690000000 1.0
C      1  0.4886710000000  0.4807510000000  0.4301530000000 1.0
C      1  0.5210680000000  0.4966850000000  0.4262760000000 1.0
C      1  0.4892000000000  0.4372180000000  0.5741480000000 1.0
C      1  0.5529980000000  0.5393340000000  0.5996780000000 1.0
C      1  0.4552100000000  0.5415380000000  0.5785380000000 1.0
C      1  0.4211730000000  0.5384530000000  0.4712730000000 1.0
C      1  0.5030720000000  0.4090250000000  0.4679750000000 1.0
C      1  0.5718990000000  0.5493280000000  0.4686030000000 1.0
C      1  0.4301000000000  0.4785780000000  0.5150350000000 1.0
C      1  0.5543550000000  0.4476850000000  0.5064880000000 1.0
C      1  0.5105280000000  0.5553990000000  0.5269080000000 1.0
C      1  0.5287080000000  0.4872300000000  0.4943470000000 1.0
C      1  0.4986770000000  0.5246440000000  0.4944440000000 1.0
C      1  0.4793520000000  0.4815380000000  0.5062090000000 1.0
C      1  0.5055270000000  0.4567740000000  0.4673230000000 1.0
C      1  0.5321230000000  0.5250650000000  0.4616070000000 1.0
C      1  0.4612040000000  0.5117110000000  0.4674000000000 1.0
C      1  0.5231910000000  0.5140090000000  0.4859430000000 1.0
C      1  0.4762210000000  0.5076660000000  0.4908910000000 1.0
C      1  0.5050210000000  0.4707710000000  0.4919730000000 1.0
C      1  0.5264190000000  0.4354470000000  0.5436830000000 1.0
C      1  0.5457890000000  0.5644330000000  0.5583870000000 1.0
C      1  0.4315550000000  0.5126970000000  0.5483420000000 1.0
C      1  0.5218060000000  0.4959680000000  0.5662050000000 1.0
C      1  0.5025080000000  0.5349410000000  0.5464050000000 1.0
C      1  0.4854930000000  0.4902720000000  0.5353030000000 1.0
END
