TITL C-2323486-8761-603 4.63858290755442e-06 125000 -374.613771891379 0 0 60 (C1) n - 1
REM
REM in /home/bkarasulu/CARBON/AIRSS/Generating-Clusters/LCBOP/Higher-Symm/Only-C60/SD-CG/FIRE-HFTN
REM
REM
REM
REM
REM
REM ./C.cell (50c204cfd26239f34c78669fe23a5462)
REM
REM compiler GCC version 9.2.1 20190827 (Red Hat 9.2.1-1)
REM options -cpp -mtune=generic -march=x86-64 -g -O0 -fpre-include=/usr/include/finclude/math-vector-fortran.h
REM seed -1650161824 -256729976 -935295371 -564443309 37810565 -1816622393 -2070864404 679534362 -394208879 919955275 -706090955 -1836578035 1690692508 -699512955 -388459077 -680021454 1816004758 1766869291 1219952625 -1293484922 -376968246 373545200 1552268422 -2019105919 1462018607 -304325444 580929966 -382340949 1975566802 1250722166 -1108144126 -1723402428 1108136560
REM
CELL 1.54180   50.00000   50.00000   50.00000   90.00000   90.00000   90.00000
LATT -1
SFAC C  
C      1  0.5518010000000  0.5151430000000  0.4511570000000 1.0
C      1  0.4507830000000  0.5578200000000  0.4659040000000 1.0
C      1  0.4733380000000  0.4310760000000  0.4669460000000 1.0
C      1  0.5740780000000  0.5145760000000  0.5354770000000 1.0
C      1  0.4623110000000  0.5366540000000  0.5469290000000 1.0
C      1  0.4848060000000  0.4465880000000  0.5484430000000 1.0
C      1  0.5624660000000  0.4929760000000  0.4650810000000 1.0
C      1  0.4519430000000  0.4467740000000  0.4642930000000 1.0
C      1  0.4741490000000  0.5704130000000  0.4633210000000 1.0
C      1  0.5705260000000  0.4885470000000  0.5400220000000 1.0
C      1  0.4595320000000  0.4463210000000  0.5358230000000 1.0
C      1  0.4765700000000  0.5580470000000  0.5355630000000 1.0
C      1  0.5072370000000  0.4298840000000  0.5423940000000 1.0
C      1  0.5616690000000  0.5395920000000  0.5332910000000 1.0
C      1  0.4362710000000  0.5272400000000  0.5396430000000 1.0
C      1  0.5013400000000  0.4317310000000  0.4668560000000 1.0
C      1  0.5557410000000  0.5428930000000  0.4568130000000 1.0
C      1  0.4406480000000  0.5318630000000  0.4640050000000 1.0
C      1  0.5047240000000  0.5600930000000  0.5345420000000 1.0
C      1  0.5540430000000  0.4659420000000  0.5404070000000 1.0
C      1  0.4414390000000  0.4680700000000  0.5352380000000 1.0
C      1  0.5016990000000  0.5661350000000  0.4617960000000 1.0
C      1  0.5514530000000  0.4668550000000  0.4665540000000 1.0
C      1  0.4435100000000  0.4733690000000  0.4623360000000 1.0
C      1  0.5537220000000  0.5520520000000  0.4827940000000 1.0
C      1  0.4328260000000  0.5165660000000  0.4862460000000 1.0
C      1  0.5161320000000  0.4305150000000  0.4901770000000 1.0
C      1  0.5543040000000  0.5507670000000  0.5091590000000 1.0
C      1  0.4301090000000  0.5211320000000  0.5132460000000 1.0
C      1  0.5168340000000  0.4288910000000  0.5165220000000 1.0
C      1  0.5470480000000  0.4531840000000  0.4901040000000 1.0
C      1  0.4342640000000  0.4872550000000  0.4851520000000 1.0
C      1  0.5174920000000  0.5668750000000  0.4848020000000 1.0
C      1  0.5481010000000  0.4525790000000  0.5165750000000 1.0
C      1  0.4323430000000  0.4805010000000  0.5118990000000 1.0
C      1  0.5186830000000  0.5650700000000  0.5111960000000 1.0
C      1  0.4784780000000  0.5186760000000  0.5631540000000 1.0
C      1  0.4904710000000  0.4703050000000  0.5644520000000 1.0
C      1  0.5212010000000  0.5040720000000  0.5793540000000 1.0
C      1  0.4823230000000  0.5172120000000  0.4243990000000 1.0
C      1  0.4981270000000  0.4718410000000  0.4233180000000 1.0
C      1  0.5291560000000  0.5089820000000  0.4338940000000 1.0
C      1  0.4705610000000  0.4909000000000  0.5659370000000 1.0
C      1  0.5056740000000  0.5255580000000  0.5693970000000 1.0
C      1  0.5176840000000  0.4772210000000  0.5718960000000 1.0
C      1  0.4765750000000  0.4888690000000  0.4254290000000 1.0
C      1  0.5073700000000  0.5281500000000  0.4302460000000 1.0
C      1  0.5242590000000  0.4817910000000  0.4279890000000 1.0
C      1  0.5138830000000  0.5548980000000  0.4383720000000 1.0
C      1  0.4510590000000  0.4891940000000  0.4400890000000 1.0
C      1  0.5357100000000  0.4599080000000  0.4440560000000 1.0
C      1  0.5184490000000  0.5474110000000  0.5564150000000 1.0
C      1  0.4433550000000  0.4848960000000  0.5585750000000 1.0
C      1  0.5379390000000  0.4590170000000  0.5632230000000 1.0
C      1  0.5141800000000  0.4420250000000  0.4444820000000 1.0
C      1  0.4462970000000  0.5171630000000  0.4411300000000 1.0
C      1  0.5421630000000  0.5594060000000  0.4377720000000 1.0
C      1  0.5279150000000  0.4322780000000  0.5619970000000 1.0
C      1  0.4266520000000  0.5077800000000  0.5581800000000 1.0
C      1  0.5465820000000  0.5484610000000  0.5555400000000 1.0
END
