TITL C-2323490-8774-521 6.94841595462771e-07 125000 -372.367024439337 0 0 60 (D6h) n - 1
REM
REM in /home/bkarasulu/CARBON/AIRSS/Generating-Clusters/LCBOP/Higher-Symm/Only-C60/SD-CG/FIRE-HFTN
REM
REM
REM
REM
REM
REM ./C.cell (50c204cfd26239f34c78669fe23a5462)
REM
REM compiler GCC version 9.2.1 20190827 (Red Hat 9.2.1-1)
REM options -cpp -mtune=generic -march=x86-64 -g -O0 -fpre-include=/usr/include/finclude/math-vector-fortran.h
REM seed -1211781160 -1425970462 -1758905491 748180621 991065290 422353443 183946087 1565310895 -1932888171 -724701884 -1190191036 549514891 -1776548131 -1176046854 -1076495729 -1607584963 653901211 -862933864 -1159455134 -485956995 -1049533277 733507435 -1682634683 -603912004 -470552984 1070678551 795748157 -174409741 313599709 -685554674 1754585974 1096833837 -893508989
REM
CELL 1.54180   50.00000   50.00000   50.00000   90.00000   90.00000   90.00000
LATT -1
SFAC C  
C      1  0.4882070000000  0.5700150000000  0.4726440000000 1.0
C      1  0.4704130000000  0.5700150000000  0.4965350000000 1.0
C      1  0.4822060000000  0.5700150000000  0.5238910000000 1.0
C      1  0.5117930000000  0.5700150000000  0.5273560000000 1.0
C      1  0.5295870000000  0.5700150000000  0.5034640000000 1.0
C      1  0.5177940000000  0.5700150000000  0.4761090000000 1.0
C      1  0.4882070000000  0.4299850000000  0.4726440000000 1.0
C      1  0.4704130000000  0.4299850000000  0.4965360000000 1.0
C      1  0.4822060000000  0.4299850000000  0.5238910000000 1.0
C      1  0.5117930000000  0.4299850000000  0.5273560000000 1.0
C      1  0.5295870000000  0.4299850000000  0.5034650000000 1.0
C      1  0.5177940000000  0.4299850000000  0.4761090000000 1.0
C      1  0.5481150000000  0.5460980000000  0.5056340000000 1.0
C      1  0.5289370000000  0.5460980000000  0.4611490000000 1.0
C      1  0.4808220000000  0.5460980000000  0.4555140000000 1.0
C      1  0.4518860000000  0.5460980000000  0.4943660000000 1.0
C      1  0.4710630000000  0.5460980000000  0.5388510000000 1.0
C      1  0.5191780000000  0.5460980000000  0.5444850000000 1.0
C      1  0.5481140000000  0.4539020000000  0.5056340000000 1.0
C      1  0.5289370000000  0.4539020000000  0.4611490000000 1.0
C      1  0.4808220000000  0.4539020000000  0.4555150000000 1.0
C      1  0.4518850000000  0.4539020000000  0.4943660000000 1.0
C      1  0.4710630000000  0.4539020000000  0.5388510000000 1.0
C      1  0.5191780000000  0.4539020000000  0.5444860000000 1.0
C      1  0.5112850000000  0.4757330000000  0.5261770000000 1.0
C      1  0.5283130000000  0.4757330000000  0.5033150000000 1.0
C      1  0.5170280000000  0.4757330000000  0.4771380000000 1.0
C      1  0.4887150000000  0.4757330000000  0.4738230000000 1.0
C      1  0.4716870000000  0.4757330000000  0.4966850000000 1.0
C      1  0.4829720000000  0.4757330000000  0.5228620000000 1.0
C      1  0.5112850000000  0.5242670000000  0.5261770000000 1.0
C      1  0.5283130000000  0.5242670000000  0.5033150000000 1.0
C      1  0.5170280000000  0.5242670000000  0.4771380000000 1.0
C      1  0.4887150000000  0.5242670000000  0.4738230000000 1.0
C      1  0.4716870000000  0.5242670000000  0.4966850000000 1.0
C      1  0.4829720000000  0.5242670000000  0.5228620000000 1.0
C      1  0.5296570000000  0.4629430000000  0.5687930000000 1.0
C      1  0.5744040000000  0.4629430000000  0.5087130000000 1.0
C      1  0.5447480000000  0.4629420000000  0.4399200000000 1.0
C      1  0.4703430000000  0.4629420000000  0.4312080000000 1.0
C      1  0.4255960000000  0.4629430000000  0.4912870000000 1.0
C      1  0.4552520000000  0.4629430000000  0.5600800000000 1.0
C      1  0.5296570000000  0.5370580000000  0.5687920000000 1.0
C      1  0.5744040000000  0.5370570000000  0.5087130000000 1.0
C      1  0.5447480000000  0.5370570000000  0.4399200000000 1.0
C      1  0.4703430000000  0.5370570000000  0.4312070000000 1.0
C      1  0.4255960000000  0.5370570000000  0.4912870000000 1.0
C      1  0.4552520000000  0.5370580000000  0.5600800000000 1.0
C      1  0.4475570000000  0.4865820000000  0.5704120000000 1.0
C      1  0.5347570000000  0.4865820000000  0.5806230000000 1.0
C      1  0.5872000000000  0.4865820000000  0.5102110000000 1.0
C      1  0.5524430000000  0.4865810000000  0.4295880000000 1.0
C      1  0.4652430000000  0.4865810000000  0.4193770000000 1.0
C      1  0.4128000000000  0.4865820000000  0.4897890000000 1.0
C      1  0.4475570000000  0.5134190000000  0.5704120000000 1.0
C      1  0.5347570000000  0.5134190000000  0.5806230000000 1.0
C      1  0.5872000000000  0.5134180000000  0.5102110000000 1.0
C      1  0.5524430000000  0.5134180000000  0.4295880000000 1.0
C      1  0.4652430000000  0.5134180000000  0.4193770000000 1.0
C      1  0.4128000000000  0.5134180000000  0.4897890000000 1.0
END
