TITL C-2323479-8056-449 -1.29390349952476e-05 125000 -361.665162461681 0 0 60 (Ci) n - 1
REM
REM in /home/bkarasulu/CARBON/AIRSS/Generating-Clusters/LCBOP/Higher-Symm/Only-C60/SD-CG/FIRE-HFTN
REM
REM
REM
REM
REM
REM ./C.cell (50c204cfd26239f34c78669fe23a5462)
REM
REM compiler GCC version 9.2.1 20190827 (Red Hat 9.2.1-1)
REM options -cpp -mtune=generic -march=x86-64 -g -O0 -fpre-include=/usr/include/finclude/math-vector-fortran.h
REM seed 2145997195 1910739394 -1194041810 -1948925898 116657753 -2025815794 947443398 -1746230761 1043256913 -333534702 -856273661 1008973928 1535486257 -1183666899 118173587 -2064595100 1689880532 2063188553 -121172474 -240442367 1055429069 -618150002 2101017700 1363683994 908407929 200706324 -1631119670 -1426626019 -1912233676 1090652720 62024456 -201916406 1124873452
REM
CELL 1.54180   50.00000   50.00000   50.00000   90.00000   90.00000   90.00000
LATT -1
SFAC C  
C      1  0.5268380000000  0.5637240000000  0.4320240000000 1.0
C      1  0.4731620000000  0.4362760000000  0.5679760000000 1.0
C      1  0.4563530000000  0.4355700000000  0.4814810000000 1.0
C      1  0.5436470000000  0.5644300000000  0.5185190000000 1.0
C      1  0.5408310000000  0.4839630000000  0.5885540000000 1.0
C      1  0.4591690000000  0.5160370000000  0.4114460000000 1.0
C      1  0.4366890000000  0.5291980000000  0.5030250000000 1.0
C      1  0.5633110000000  0.4708020000000  0.4969750000000 1.0
C      1  0.5013830000000  0.5676080000000  0.4255040000000 1.0
C      1  0.4986170000000  0.4323920000000  0.5744960000000 1.0
C      1  0.5590100000000  0.4984710000000  0.4929980000000 1.0
C      1  0.4409900000000  0.5015290000000  0.5070020000000 1.0
C      1  0.4574060000000  0.5386930000000  0.4280060000000 1.0
C      1  0.5425940000000  0.4613070000000  0.5719940000000 1.0
C      1  0.4529920000000  0.4520590000000  0.5567560000000 1.0
C      1  0.5470080000000  0.5479410000000  0.4432440000000 1.0
C      1  0.4214440000000  0.4845220000000  0.5838440000000 1.0
C      1  0.5785560000000  0.5154780000000  0.4161560000000 1.0
C      1  0.5449190000000  0.5581010000000  0.4913150000000 1.0
C      1  0.4550810000000  0.4418990000000  0.5086850000000 1.0
C      1  0.4762570000000  0.5590850000000  0.4241140000000 1.0
C      1  0.5237430000000  0.4409150000000  0.5758860000000 1.0
C      1  0.5013130000000  0.5327290000000  0.5635480000000 1.0
C      1  0.4986870000000  0.4672710000000  0.4364520000000 1.0
C      1  0.5670600000000  0.5361050000000  0.5499780000000 1.0
C      1  0.4329400000000  0.4638950000000  0.4500220000000 1.0
C      1  0.5198200000000  0.4966530000000  0.4662250000000 1.0
C      1  0.4801800000000  0.5033470000000  0.5337750000000 1.0
C      1  0.4412520000000  0.5394210000000  0.4509380000000 1.0
C      1  0.5587480000000  0.4605790000000  0.5490620000000 1.0
C      1  0.5438910000000  0.5427910000000  0.5370350000000 1.0
C      1  0.4561090000000  0.4572090000000  0.4629650000000 1.0
C      1  0.5600590000000  0.4554070000000  0.4733850000000 1.0
C      1  0.4399410000000  0.5445930000000  0.5266150000000 1.0
C      1  0.4751850000000  0.5249650000000  0.5534470000000 1.0
C      1  0.5248150000000  0.4750350000000  0.4465530000000 1.0
C      1  0.5670750000000  0.5368450000000  0.4271690000000 1.0
C      1  0.4329250000000  0.4631550000000  0.5728310000000 1.0
C      1  0.4318930000000  0.5326940000000  0.5734100000000 1.0
C      1  0.5681070000000  0.4673060000000  0.4265900000000 1.0
C      1  0.5443500000000  0.5396870000000  0.4703410000000 1.0
C      1  0.4556500000000  0.4603130000000  0.5296590000000 1.0
C      1  0.4580020000000  0.4096920000000  0.4728890000000 1.0
C      1  0.5419980000000  0.5903080000000  0.5271110000000 1.0
C      1  0.4720240000000  0.4939870000000  0.4035010000000 1.0
C      1  0.5279760000000  0.5060130000000  0.5964990000000 1.0
C      1  0.4593770000000  0.4876590000000  0.5232510000000 1.0
C      1  0.5406230000000  0.5123410000000  0.4767490000000 1.0
C      1  0.5076230000000  0.5073760000000  0.5261140000000 1.0
C      1  0.4923770000000  0.4926240000000  0.4738860000000 1.0
C      1  0.5501670000000  0.4622890000000  0.4475770000000 1.0
C      1  0.4498330000000  0.5377110000000  0.5524230000000 1.0
C      1  0.4886620000000  0.4743410000000  0.4111900000000 1.0
C      1  0.5113380000000  0.5256590000000  0.5888100000000 1.0
C      1  0.4208730000000  0.5111850000000  0.5848760000000 1.0
C      1  0.5791270000000  0.4888150000000  0.4151240000000 1.0
C      1  0.5202940000000  0.5283540000000  0.5413660000000 1.0
C      1  0.4797060000000  0.4716460000000  0.4586340000000 1.0
C      1  0.5649500000000  0.4611690000000  0.5231460000000 1.0
C      1  0.4350500000000  0.5388310000000  0.4768540000000 1.0
END
