TITL C-2323482-8828-203 -330609.212882175 125000 -357.009228581051 0 0 60 (Cs) n - 1
REM
REM in /home/bkarasulu/CARBON/AIRSS/Generating-Clusters/LCBOP/Higher-Symm/Only-C60/SD-CG/FIRE-HFTN
REM
REM
REM
REM
REM
REM ./C.cell (50c204cfd26239f34c78669fe23a5462)
REM
REM compiler GCC version 9.2.1 20190827 (Red Hat 9.2.1-1)
REM options -cpp -mtune=generic -march=x86-64 -g -O0 -fpre-include=/usr/include/finclude/math-vector-fortran.h
REM seed 732116471 -1680044201 -525986505 -1580267860 -1428110340 724712172 -886399614 -41916679 -379879020 -1179307040 1685384943 1960592520 -45337567 -1857101780 -247456353 -991781656 1590516407 -720714928 -674153887 -547497472 454209217 -284128385 816098295 -191398207 754728482 -1751562535 1340899700 -900902124 -986909353 -229204382 -821196670 1829656707 -1413235019
REM
CELL 1.54180   50.00000   50.00000   50.00000   90.00000   90.00000   90.00000
LATT -1
SFAC C  
C      1  0.4797800000000  0.4609110000000  0.4676570000000 1.0
C      1  0.5202410000000  0.4609130000000  0.4676540000000 1.0
C      1  0.4738110000000  0.5247610000000  0.5067040000000 1.0
C      1  0.5261730000000  0.5247630000000  0.5067030000000 1.0
C      1  0.4291080000000  0.4790940000000  0.5028270000000 1.0
C      1  0.5708960000000  0.4791010000000  0.5028250000000 1.0
C      1  0.4476360000000  0.4931100000000  0.5533710000000 1.0
C      1  0.5523470000000  0.4931050000000  0.5533650000000 1.0
C      1  0.4704890000000  0.4793850000000  0.5640670000000 1.0
C      1  0.5294930000000  0.4793810000000  0.5640600000000 1.0
C      1  0.5532390000000  0.5214060000000  0.5589560000000 1.0
C      1  0.4467460000000  0.5214120000000  0.5589590000000 1.0
C      1  0.5338600000000  0.5488930000000  0.4536910000000 1.0
C      1  0.4661360000000  0.5488860000000  0.4536880000000 1.0
C      1  0.5137220000000  0.4896960000000  0.5858120000000 1.0
C      1  0.4862650000000  0.4896980000000  0.5858150000000 1.0
C      1  0.4303540000000  0.5172100000000  0.4670430000000 1.0
C      1  0.5696480000000  0.5172270000000  0.4670520000000 1.0
C      1  0.5134480000000  0.5542850000000  0.4346970000000 1.0
C      1  0.4865490000000  0.5542820000000  0.4346960000000 1.0
C      1  0.5344160000000  0.5633830000000  0.5314560000000 1.0
C      1  0.4655710000000  0.5633850000000  0.5314530000000 1.0
C      1  0.5319740000000  0.5014970000000  0.4415250000000 1.0
C      1  0.4680370000000  0.5014900000000  0.4415230000000 1.0
C      1  0.4690690000000  0.4264480000000  0.5048450000000 1.0
C      1  0.5309720000000  0.4264380000000  0.5048300000000 1.0
C      1  0.5634470000000  0.4556080000000  0.4885720000000 1.0
C      1  0.4365750000000  0.4556000000000  0.4885860000000 1.0
C      1  0.4678550000000  0.5643110000000  0.4782610000000 1.0
C      1  0.5321340000000  0.5643150000000  0.4782640000000 1.0
C      1  0.4864090000000  0.5822360000000  0.5364420000000 1.0
C      1  0.5135790000000  0.5822350000000  0.5364450000000 1.0
C      1  0.5134660000000  0.4069030000000  0.4489350000000 1.0
C      1  0.4865510000000  0.4069010000000  0.4489430000000 1.0
C      1  0.5388900000000  0.4407500000000  0.4794260000000 1.0
C      1  0.4611360000000  0.4407510000000  0.4794390000000 1.0
C      1  0.4860010000000  0.5234690000000  0.5335070000000 1.0
C      1  0.5139830000000  0.5234690000000  0.5335060000000 1.0
C      1  0.4863300000000  0.4620160000000  0.5477950000000 1.0
C      1  0.5136470000000  0.4620150000000  0.5477910000000 1.0
C      1  0.5659130000000  0.4827400000000  0.5305830000000 1.0
C      1  0.4340740000000  0.4827440000000  0.5305870000000 1.0
C      1  0.5468800000000  0.5234970000000  0.4518190000000 1.0
C      1  0.4531240000000  0.5234860000000  0.4518140000000 1.0
C      1  0.5135170000000  0.5858610000000  0.4778640000000 1.0
C      1  0.4864700000000  0.5858590000000  0.4778620000000 1.0
C      1  0.5360220000000  0.4182070000000  0.4587960000000 1.0
C      1  0.4639990000000  0.4182030000000  0.4588140000000 1.0
C      1  0.5147370000000  0.4806590000000  0.4487980000000 1.0
C      1  0.4852790000000  0.4806570000000  0.4487990000000 1.0
C      1  0.4866460000000  0.4128690000000  0.5193980000000 1.0
C      1  0.5133980000000  0.4128650000000  0.5193930000000 1.0
C      1  0.4220500000000  0.5012370000000  0.4868420000000 1.0
C      1  0.5779520000000  0.5012520000000  0.4868500000000 1.0
C      1  0.4865180000000  0.5085390000000  0.4881170000000 1.0
C      1  0.5134670000000  0.5085420000000  0.4881150000000 1.0
C      1  0.4636780000000  0.5520460000000  0.5035870000000 1.0
C      1  0.5363090000000  0.5520470000000  0.5035890000000 1.0
C      1  0.4663440000000  0.5389760000000  0.5485910000000 1.0
C      1  0.5336420000000  0.5389730000000  0.5485920000000 1.0
END
