TITL C-2323481-8605-289 4.39745287190253e-06 125000 -344.437159276707 0 0 60 (C2) n - 1
REM
REM in /home/bkarasulu/CARBON/AIRSS/Generating-Clusters/LCBOP/Higher-Symm/Only-C60/SD-CG/FIRE-HFTN
REM
REM
REM
REM
REM
REM ./C.cell (50c204cfd26239f34c78669fe23a5462)
REM
REM compiler GCC version 9.2.1 20190827 (Red Hat 9.2.1-1)
REM options -cpp -mtune=generic -march=x86-64 -g -O0 -fpre-include=/usr/include/finclude/math-vector-fortran.h
REM seed 2105719964 261208969 1039878424 2100531809 -1474565718 1845713239 268729770 -1796513734 -316921701 -1015473140 736886080 -896238032 -1654730056 1710559511 -946373960 -2008211699 1655008446 -639596790 -1710173559 -1738465261 -1311219679 1697220339 485941247 -542514543 20451099 1731154723 -1399080367 -680634526 1454690644 -712479091 244687079 2145902694 40030059
REM
CELL 1.54180   50.00000   50.00000   50.00000   90.00000   90.00000   90.00000
LATT -1
SFAC C  
C      1  0.4881890000000  0.5061060000000  0.5825180000000 1.0
C      1  0.4876610000000  0.4170490000000  0.5063490000000 1.0
C      1  0.4884710000000  0.4943120000000  0.4167560000000 1.0
C      1  0.4878340000000  0.5824740000000  0.4941570000000 1.0
C      1  0.5131270000000  0.4941580000000  0.5824740000000 1.0
C      1  0.5127730000000  0.5825180000000  0.5061050000000 1.0
C      1  0.5132980000000  0.5063480000000  0.4170490000000 1.0
C      1  0.5124880000000  0.4167560000000  0.4943120000000 1.0
C      1  0.5363450000000  0.4291390000000  0.4872750000000 1.0
C      1  0.5368810000000  0.5133320000000  0.4299810000000 1.0
C      1  0.5365040000000  0.5697220000000  0.5130790000000 1.0
C      1  0.5368260000000  0.4872160000000  0.5696020000000 1.0
C      1  0.4641350000000  0.5696020000000  0.4872160000000 1.0
C      1  0.4646140000000  0.4872750000000  0.4291390000000 1.0
C      1  0.4640780000000  0.4299810000000  0.5133330000000 1.0
C      1  0.4644570000000  0.5130800000000  0.5697220000000 1.0
C      1  0.5052790000000  0.4868800000000  0.4673400000000 1.0
C      1  0.5051790000000  0.5330170000000  0.4867430000000 1.0
C      1  0.5054460000000  0.5134950000000  0.5329520000000 1.0
C      1  0.5055480000000  0.4672520000000  0.5135110000000 1.0
C      1  0.4954120000000  0.5135110000000  0.4672520000000 1.0
C      1  0.4956810000000  0.4673400000000  0.4868800000000 1.0
C      1  0.4957820000000  0.4867430000000  0.5330170000000 1.0
C      1  0.4955150000000  0.5329520000000  0.5134950000000 1.0
C      1  0.5614110000000  0.4753280000000  0.4976100000000 1.0
C      1  0.5610440000000  0.5025930000000  0.4768860000000 1.0
C      1  0.5607720000000  0.5226910000000  0.5016800000000 1.0
C      1  0.5610000000000  0.4987280000000  0.5226500000000 1.0
C      1  0.4399610000000  0.5226500000000  0.4987290000000 1.0
C      1  0.4395490000000  0.4976110000000  0.4753290000000 1.0
C      1  0.4399160000000  0.4768870000000  0.5025940000000 1.0
C      1  0.4401880000000  0.5016810000000  0.5226920000000 1.0
C      1  0.5457720000000  0.5288540000000  0.5560940000000 1.0
C      1  0.5455420000000  0.4433350000000  0.5286600000000 1.0
C      1  0.5456350000000  0.4718280000000  0.4440960000000 1.0
C      1  0.5455550000000  0.5561750000000  0.4714850000000 1.0
C      1  0.4554050000000  0.4714860000000  0.5561760000000 1.0
C      1  0.4551890000000  0.5560950000000  0.5288540000000 1.0
C      1  0.4554180000000  0.5286600000000  0.4433360000000 1.0
C      1  0.4553240000000  0.4440970000000  0.4718300000000 1.0
C      1  0.4828220000000  0.4474160000000  0.4681220000000 1.0
C      1  0.4828300000000  0.5323190000000  0.4472170000000 1.0
C      1  0.4827220000000  0.5528350000000  0.5324190000000 1.0
C      1  0.4829310000000  0.4678700000000  0.5529070000000 1.0
C      1  0.5180300000000  0.5529070000000  0.4678690000000 1.0
C      1  0.5181370000000  0.4681210000000  0.4474160000000 1.0
C      1  0.5181300000000  0.4472180000000  0.5323190000000 1.0
C      1  0.5182400000000  0.5324190000000  0.5528350000000 1.0
C      1  0.4477050000000  0.4985970000000  0.5502370000000 1.0
C      1  0.4475440000000  0.4496660000000  0.4990000000000 1.0
C      1  0.4476100000000  0.5014660000000  0.4485240000000 1.0
C      1  0.4474420000000  0.5501160000000  0.5017570000000 1.0
C      1  0.5535190000000  0.5017560000000  0.5501150000000 1.0
C      1  0.5532560000000  0.5502360000000  0.4985960000000 1.0
C      1  0.5534160000000  0.4989990000000  0.4496650000000 1.0
C      1  0.5533500000000  0.4485230000000  0.5014660000000 1.0
C      1  0.5004790000000  0.4457730000000  0.4457730000000 1.0
C      1  0.5004530000000  0.5546660000000  0.4454720000000 1.0
C      1  0.5005070000000  0.4454730000000  0.5546660000000 1.0
C      1  0.5004810000000  0.5546670000000  0.5546660000000 1.0
END
