TITL C-2323487-9546-588 6.78102247943402e-05 125000 -382.013050377039 0 0 60 (Td) n - 1
REM
REM in /home/bkarasulu/CARBON/AIRSS/Generating-Clusters/LCBOP/Higher-Symm/Only-C60/SD-CG/FIRE-HFTN
REM
REM
REM
REM
REM
REM ./C.cell (50c204cfd26239f34c78669fe23a5462)
REM
REM compiler GCC version 9.2.1 20190827 (Red Hat 9.2.1-1)
REM options -cpp -mtune=generic -march=x86-64 -g -O0 -fpre-include=/usr/include/finclude/math-vector-fortran.h
REM seed 363369883 2074700054 -1410443987 1152331422 335469135 -698736029 1226850247 -1257853914 696491149 42584242 -1352744032 -825458835 -809044135 210059203 736455523 -1065519124 1546979773 -1498423237 2135802723 -1444800655 1261338631 -176289524 -651269332 -1632774711 -428101809 -1789972988 -294429127 732550537 146146079 1442698595 -1308553065 -178439439 -8240292
REM
CELL 1.54180   50.00000   50.00000   50.00000   90.00000   90.00000   90.00000
LATT -1
SFAC C  
C      1  0.5617820000000  0.5214680000000  0.5416780000000 1.0
C      1  0.5214900000000  0.5416610000000  0.5617860000000 1.0
C      1  0.5416830000000  0.5617690000000  0.5214950000000 1.0
C      1  0.4382240000000  0.5214990000000  0.4583300000000 1.0
C      1  0.4382200000000  0.4785160000000  0.5416720000000 1.0
C      1  0.5617750000000  0.4785170000000  0.4583200000000 1.0
C      1  0.4785210000000  0.5416900000000  0.4382300000000 1.0
C      1  0.4785120000000  0.4583160000000  0.5617710000000 1.0
C      1  0.5214780000000  0.4583340000000  0.4382130000000 1.0
C      1  0.4583320000000  0.5617880000000  0.4785290000000 1.0
C      1  0.4583180000000  0.4382230000000  0.5214730000000 1.0
C      1  0.5416670000000  0.4382210000000  0.4785040000000 1.0
C      1  0.5416790000000  0.5214670000000  0.5617820000000 1.0
C      1  0.5617840000000  0.5416640000000  0.5214910000000 1.0
C      1  0.5214920000000  0.5617680000000  0.5416870000000 1.0
C      1  0.4583260000000  0.5215000000000  0.4382260000000 1.0
C      1  0.5416720000000  0.4785230000000  0.4382170000000 1.0
C      1  0.4583230000000  0.4785100000000  0.5617750000000 1.0
C      1  0.4382260000000  0.5416870000000  0.4785250000000 1.0
C      1  0.5617730000000  0.4583210000000  0.4785080000000 1.0
C      1  0.4382170000000  0.4583280000000  0.5214770000000 1.0
C      1  0.4785230000000  0.5617890000000  0.4583370000000 1.0
C      1  0.5214750000000  0.4382270000000  0.4583130000000 1.0
C      1  0.4785100000000  0.4382160000000  0.5416640000000 1.0
C      1  0.5774760000000  0.4985210000000  0.5377430000000 1.0
C      1  0.4985430000000  0.5377300000000  0.5774830000000 1.0
C      1  0.5377530000000  0.5774710000000  0.4985520000000 1.0
C      1  0.4225240000000  0.4985540000000  0.4622570000000 1.0
C      1  0.4225250000000  0.5014650000000  0.5377450000000 1.0
C      1  0.5774750000000  0.5014600000000  0.4622550000000 1.0
C      1  0.5014660000000  0.5377580000000  0.4225310000000 1.0
C      1  0.5014590000000  0.4622410000000  0.5774690000000 1.0
C      1  0.4985320000000  0.4622710000000  0.4225170000000 1.0
C      1  0.4622650000000  0.5774800000000  0.5014780000000 1.0
C      1  0.4622470000000  0.4225290000000  0.4985230000000 1.0
C      1  0.5377350000000  0.4225190000000  0.5014470000000 1.0
C      1  0.5377450000000  0.4985180000000  0.5774750000000 1.0
C      1  0.5774800000000  0.5377350000000  0.4985440000000 1.0
C      1  0.4985480000000  0.5774690000000  0.5377590000000 1.0
C      1  0.4622550000000  0.4985570000000  0.4225250000000 1.0
C      1  0.5377430000000  0.5014720000000  0.4225240000000 1.0
C      1  0.4622570000000  0.5014520000000  0.5774770000000 1.0
C      1  0.4225290000000  0.5377530000000  0.5014710000000 1.0
C      1  0.5774710000000  0.4622460000000  0.5014540000000 1.0
C      1  0.4225200000000  0.4622660000000  0.4985320000000 1.0
C      1  0.5014710000000  0.5774830000000  0.4622710000000 1.0
C      1  0.4985280000000  0.4225320000000  0.4622410000000 1.0
C      1  0.5014540000000  0.4225170000000  0.5377290000000 1.0
C      1  0.5230960000000  0.5231070000000  0.4173810000000 1.0
C      1  0.5230850000000  0.4173700000000  0.5230790000000 1.0
C      1  0.4769090000000  0.5230820000000  0.5826280000000 1.0
C      1  0.5230930000000  0.4768870000000  0.5826180000000 1.0
C      1  0.4768950000000  0.4173840000000  0.4768900000000 1.0
C      1  0.4769160000000  0.5826210000000  0.5231110000000 1.0
C      1  0.5231040000000  0.5826240000000  0.4769210000000 1.0
C      1  0.4173800000000  0.5231000000000  0.5231000000000 1.0
C      1  0.5826250000000  0.5230890000000  0.4769090000000 1.0
C      1  0.4173740000000  0.4769200000000  0.4769020000000 1.0
C      1  0.5826200000000  0.4768910000000  0.5230890000000 1.0
C      1  0.4769010000000  0.4769240000000  0.4173730000000 1.0
END
