TITL C-2323479-8056-289 -2082.10800600844 125000 -336.650330833924 0 0 60 (T23) n - 1
REM
REM in /home/bkarasulu/CARBON/AIRSS/Generating-Clusters/LCBOP/Higher-Symm/Only-C60/SD-CG/FIRE-HFTN
REM
REM
REM
REM
REM
REM ./C.cell (50c204cfd26239f34c78669fe23a5462)
REM
REM compiler GCC version 9.2.1 20190827 (Red Hat 9.2.1-1)
REM options -cpp -mtune=generic -march=x86-64 -g -O0 -fpre-include=/usr/include/finclude/math-vector-fortran.h
REM seed 629805735 1775615189 643266763 1335687037 -1314175471 962836665 2072301754 -530480461 123118424 -40213127 673644206 954647587 -1343128329 -807382734 502810432 1096317227 -1139013120 -666622621 1101374302 -1326301724 664979005 629380534 -2029820079 -1508495956 1858342036 -220868787 -425154429 1800766692 1483370414 -1753669743 1699508943 -2114687244 -2005193439
REM
CELL 1.54180   50.00000   50.00000   50.00000   90.00000   90.00000   90.00000
LATT -1
SFAC C  
C      1  0.4469470000000  0.5270650000000  0.5521000000000 1.0
C      1  0.5264940000000  0.5521200000000  0.4464630000000 1.0
C      1  0.5526530000000  0.4468460000000  0.5265270000000 1.0
C      1  0.4469490000000  0.4729360000000  0.4478980000000 1.0
C      1  0.5530510000000  0.5270640000000  0.4478980000000 1.0
C      1  0.5530510000000  0.4729350000000  0.5521020000000 1.0
C      1  0.5264940000000  0.4478810000000  0.5535380000000 1.0
C      1  0.4735070000000  0.5521210000000  0.5535380000000 1.0
C      1  0.4735060000000  0.4478800000000  0.4464630000000 1.0
C      1  0.5526530000000  0.5531540000000  0.4734730000000 1.0
C      1  0.4473480000000  0.4468450000000  0.4734730000000 1.0
C      1  0.4473470000000  0.5531520000000  0.5265270000000 1.0
C      1  0.5550710000000  0.5538720000000  0.5016240000000 1.0
C      1  0.5539770000000  0.5010770000000  0.5548250000000 1.0
C      1  0.5016420000000  0.5547320000000  0.5540840000000 1.0
C      1  0.5550710000000  0.4461280000000  0.4983760000000 1.0
C      1  0.4449290000000  0.5538720000000  0.4983770000000 1.0
C      1  0.4449300000000  0.4461270000000  0.5016240000000 1.0
C      1  0.5539770000000  0.4989220000000  0.4451750000000 1.0
C      1  0.4460230000000  0.5010780000000  0.4451750000000 1.0
C      1  0.4460220000000  0.4989230000000  0.5548240000000 1.0
C      1  0.5016410000000  0.4452680000000  0.4459170000000 1.0
C      1  0.4983590000000  0.5547330000000  0.4459170000000 1.0
C      1  0.4983590000000  0.4452690000000  0.5540840000000 1.0
C      1  0.4626650000000  0.4884630000000  0.5063340000000 1.0
C      1  0.4884370000000  0.5062820000000  0.4627000000000 1.0
C      1  0.5063370000000  0.4627150000000  0.4884580000000 1.0
C      1  0.4626650000000  0.5115360000000  0.4936660000000 1.0
C      1  0.5373350000000  0.4884630000000  0.4936660000000 1.0
C      1  0.5373350000000  0.5115360000000  0.5063340000000 1.0
C      1  0.4884370000000  0.4937190000000  0.5372990000000 1.0
C      1  0.5115630000000  0.5062810000000  0.5373000000000 1.0
C      1  0.5115620000000  0.4937180000000  0.4627000000000 1.0
C      1  0.5063370000000  0.5372860000000  0.5115420000000 1.0
C      1  0.4936630000000  0.4627150000000  0.5115430000000 1.0
C      1  0.4936630000000  0.5372850000000  0.4884580000000 1.0
C      1  0.5706320000000  0.5177170000000  0.5377710000000 1.0
C      1  0.5183290000000  0.5375760000000  0.5705860000000 1.0
C      1  0.5378700000000  0.5704230000000  0.5182000000000 1.0
C      1  0.5706320000000  0.4822820000000  0.4622290000000 1.0
C      1  0.4293680000000  0.5177180000000  0.4622290000000 1.0
C      1  0.4293680000000  0.4822820000000  0.5377700000000 1.0
C      1  0.5183280000000  0.4624230000000  0.4294140000000 1.0
C      1  0.4816710000000  0.5375770000000  0.4294140000000 1.0
C      1  0.4816710000000  0.4624250000000  0.5705860000000 1.0
C      1  0.5378690000000  0.4295770000000  0.4818010000000 1.0
C      1  0.4621300000000  0.5704230000000  0.4818010000000 1.0
C      1  0.4621320000000  0.4295770000000  0.5182000000000 1.0
C      1  0.4416320000000  0.4720040000000  0.5139980000000 1.0
C      1  0.4717870000000  0.5136670000000  0.4417220000000 1.0
C      1  0.5139570000000  0.4418190000000  0.4718120000000 1.0
C      1  0.4416310000000  0.5279950000000  0.4860020000000 1.0
C      1  0.5583690000000  0.4720040000000  0.4860020000000 1.0
C      1  0.5583690000000  0.5279950000000  0.5139980000000 1.0
C      1  0.4717870000000  0.4863340000000  0.5582780000000 1.0
C      1  0.5282130000000  0.5136660000000  0.5582780000000 1.0
C      1  0.5282130000000  0.4863330000000  0.4417220000000 1.0
C      1  0.5139580000000  0.5581810000000  0.5281880000000 1.0
C      1  0.4860430000000  0.4418190000000  0.5281890000000 1.0
C      1  0.4860430000000  0.5581820000000  0.4718120000000 1.0
END
