TITL C-2323492-8884-194 8.87624459063278e-05 125000 -364.408070449842 0 0 60 (C1) n - 1
REM
REM in /home/bkarasulu/CARBON/AIRSS/Generating-Clusters/LCBOP/Higher-Symm/Only-C60/SD-CG/FIRE-HFTN
REM
REM
REM
REM
REM
REM ./C.cell (50c204cfd26239f34c78669fe23a5462)
REM
REM compiler GCC version 9.2.1 20190827 (Red Hat 9.2.1-1)
REM options -cpp -mtune=generic -march=x86-64 -g -O0 -fpre-include=/usr/include/finclude/math-vector-fortran.h
REM seed -313931209 -422705784 -521138882 1440822067 1244231486 -1525557471 -2048670437 -1634581640 931934096 -896307675 1544160295 -1982570689 601638420 -487663412 -1856078577 72908139 589701181 1697064536 900292769 -310753515 1137036918 -614188233 -909289982 420808830 1561001562 1306242630 -1811021569 1050058485 925913334 -1770102877 518844345 -1033005770 1259175584
REM
CELL 1.54180   50.00000   50.00000   50.00000   90.00000   90.00000   90.00000
LATT -1
SFAC C  
C      1  0.4523450000000  0.5717120000000  0.4687040000000 1.0
C      1  0.5096280000000  0.4783270000000  0.5808410000000 1.0
C      1  0.4303710000000  0.4842420000000  0.5504530000000 1.0
C      1  0.5207960000000  0.4936430000000  0.5608650000000 1.0
C      1  0.5654490000000  0.4796800000000  0.5445240000000 1.0
C      1  0.5015810000000  0.5218690000000  0.3929600000000 1.0
C      1  0.5329470000000  0.4216320000000  0.5541170000000 1.0
C      1  0.5283100000000  0.5286450000000  0.4921840000000 1.0
C      1  0.5793940000000  0.5003630000000  0.5317890000000 1.0
C      1  0.4875760000000  0.4365510000000  0.5328140000000 1.0
C      1  0.5367840000000  0.5678290000000  0.4343330000000 1.0
C      1  0.5371990000000  0.5406260000000  0.5576410000000 1.0
C      1  0.5167430000000  0.4773070000000  0.4268290000000 1.0
C      1  0.5190050000000  0.4367160000000  0.4798820000000 1.0
C      1  0.5279290000000  0.4582600000000  0.4957330000000 1.0
C      1  0.5537930000000  0.5314330000000  0.5004050000000 1.0
C      1  0.4511400000000  0.5034550000000  0.4354350000000 1.0
C      1  0.4677570000000  0.5833020000000  0.4871100000000 1.0
C      1  0.5268180000000  0.4829720000000  0.4828080000000 1.0
C      1  0.5320130000000  0.5830860000000  0.4555820000000 1.0
C      1  0.4711930000000  0.4914710000000  0.4199400000000 1.0
C      1  0.5737550000000  0.4547940000000  0.5551350000000 1.0
C      1  0.4904820000000  0.5332430000000  0.5639800000000 1.0
C      1  0.5735800000000  0.5201100000000  0.5145270000000 1.0
C      1  0.5368940000000  0.4803210000000  0.5411570000000 1.0
C      1  0.4163700000000  0.4689890000000  0.5337480000000 1.0
C      1  0.4767030000000  0.5642900000000  0.5303220000000 1.0
C      1  0.4493850000000  0.5017300000000  0.5567970000000 1.0
C      1  0.4321850000000  0.4428860000000  0.4649680000000 1.0
C      1  0.4813330000000  0.4486920000000  0.4453890000000 1.0
C      1  0.4425090000000  0.5508000000000  0.4554680000000 1.0
C      1  0.4750210000000  0.4765990000000  0.5028780000000 1.0
C      1  0.4854770000000  0.5801930000000  0.5087300000000 1.0
C      1  0.5589540000000  0.4323590000000  0.5587300000000 1.0
C      1  0.5134120000000  0.5857950000000  0.5055840000000 1.0
C      1  0.4682960000000  0.5240360000000  0.5017100000000 1.0
C      1  0.5173820000000  0.3745680000000  0.5752430000000 1.0
C      1  0.4115130000000  0.4564750000000  0.5107830000000 1.0
C      1  0.5166360000000  0.5218390000000  0.5621860000000 1.0
C      1  0.4845450000000  0.5021840000000  0.4950940000000 1.0
C      1  0.5009680000000  0.4346390000000  0.4600780000000 1.0
C      1  0.4891850000000  0.4714190000000  0.4301080000000 1.0
C      1  0.4880310000000  0.5616210000000  0.5567900000000 1.0
C      1  0.4414910000000  0.5259110000000  0.4460620000000 1.0
C      1  0.5251640000000  0.3972850000000  0.5651160000000 1.0
C      1  0.5237280000000  0.5901340000000  0.4798490000000 1.0
C      1  0.4543280000000  0.4431090000000  0.4502500000000 1.0
C      1  0.5323430000000  0.4980270000000  0.4195950000000 1.0
C      1  0.4799370000000  0.5063790000000  0.3973980000000 1.0
C      1  0.5312510000000  0.5809760000000  0.5268440000000 1.0
C      1  0.5356160000000  0.5470800000000  0.4177420000000 1.0
C      1  0.5410970000000  0.5639250000000  0.5449520000000 1.0
C      1  0.4737570000000  0.4541900000000  0.5176410000000 1.0
C      1  0.5276240000000  0.4590710000000  0.5241920000000 1.0
C      1  0.4170990000000  0.4475240000000  0.4863690000000 1.0
C      1  0.4673880000000  0.5217220000000  0.5502530000000 1.0
C      1  0.5153670000000  0.4370040000000  0.5377130000000 1.0
C      1  0.4650010000000  0.5377810000000  0.5257890000000 1.0
C      1  0.5119390000000  0.5062150000000  0.4877680000000 1.0
C      1  0.5254820000000  0.5229630000000  0.4081130000000 1.0
END
