TITL C-2323479-8056-136 -0.0410594353293899 125000 -352.558273480506 0 0 60 (C1) n - 1
REM
REM in /home/bkarasulu/CARBON/AIRSS/Generating-Clusters/LCBOP/Higher-Symm/Only-C60/SD-CG/FIRE-HFTN
REM
REM
REM
REM
REM
REM ./C.cell (50c204cfd26239f34c78669fe23a5462)
REM
REM compiler GCC version 9.2.1 20190827 (Red Hat 9.2.1-1)
REM options -cpp -mtune=generic -march=x86-64 -g -O0 -fpre-include=/usr/include/finclude/math-vector-fortran.h
REM seed -548960208 -537309705 -659185798 1498757959 1614133723 -1942639342 -367434564 936471030 -130245504 1887353053 35150893 -995062461 -1401444179 799789570 -1597913008 1296131225 -371001650 1293264065 1996807352 440039087 -175296594 -59074608 1838883164 -462948649 -1172703671 -1548266499 1163814992 843814677 -1394272351 412408837 1757657268 1346708221 1195659811
REM
CELL 1.54180   50.00000   50.00000   50.00000   90.00000   90.00000   90.00000
LATT -1
SFAC C  
C      1  0.4939330000000  0.4976690000000  0.4280480000000 1.0
C      1  0.4680870000000  0.5047800000000  0.4365490000000 1.0
C      1  0.5077980000000  0.4749700000000  0.4375560000000 1.0
C      1  0.4429320000000  0.5314560000000  0.5660680000000 1.0
C      1  0.5121530000000  0.4498670000000  0.5754400000000 1.0
C      1  0.5406350000000  0.5216810000000  0.5772300000000 1.0
C      1  0.5300520000000  0.5664000000000  0.5630060000000 1.0
C      1  0.4144810000000  0.4940990000000  0.5556640000000 1.0
C      1  0.5563390000000  0.4496110000000  0.5563700000000 1.0
C      1  0.4042080000000  0.4395860000000  0.5206790000000 1.0
C      1  0.5994980000000  0.4555500000000  0.5056550000000 1.0
C      1  0.5009270000000  0.6067040000000  0.5198350000000 1.0
C      1  0.6041460000000  0.4493820000000  0.5325680000000 1.0
C      1  0.5130910000000  0.6131160000000  0.5442350000000 1.0
C      1  0.3887140000000  0.4499270000000  0.5415920000000 1.0
C      1  0.5239820000000  0.5919170000000  0.5589530000000 1.0
C      1  0.3976130000000  0.4737400000000  0.5533480000000 1.0
C      1  0.5819640000000  0.4482550000000  0.5496270000000 1.0
C      1  0.4918350000000  0.5635550000000  0.4929960000000 1.0
C      1  0.4477570000000  0.4526190000000  0.4960140000000 1.0
C      1  0.5578520000000  0.4669150000000  0.4754750000000 1.0
C      1  0.5232890000000  0.4369720000000  0.4588470000000 1.0
C      1  0.5447590000000  0.5335370000000  0.4425520000000 1.0
C      1  0.4354950000000  0.5312310000000  0.4556400000000 1.0
C      1  0.5284670000000  0.5309330000000  0.4216460000000 1.0
C      1  0.4252510000000  0.5211240000000  0.4320650000000 1.0
C      1  0.5466160000000  0.4537280000000  0.4528160000000 1.0
C      1  0.5169160000000  0.4692250000000  0.5025530000000 1.0
C      1  0.5192320000000  0.5253410000000  0.5054370000000 1.0
C      1  0.4645560000000  0.4981500000000  0.5032950000000 1.0
C      1  0.5362140000000  0.4703870000000  0.4310620000000 1.0
C      1  0.5073870000000  0.5160600000000  0.4106280000000 1.0
C      1  0.4442820000000  0.5035010000000  0.4193790000000 1.0
C      1  0.4254490000000  0.4412650000000  0.5048170000000 1.0
C      1  0.5832390000000  0.4616980000000  0.4855770000000 1.0
C      1  0.4936700000000  0.5884900000000  0.5019060000000 1.0
C      1  0.5320780000000  0.5389520000000  0.5578490000000 1.0
C      1  0.4366050000000  0.5102860000000  0.5499740000000 1.0
C      1  0.5286670000000  0.4531870000000  0.5539250000000 1.0
C      1  0.5001780000000  0.5186810000000  0.3844110000000 1.0
C      1  0.4407310000000  0.4886850000000  0.3969740000000 1.0
C      1  0.5499450000000  0.4767070000000  0.4084990000000 1.0
C      1  0.4740240000000  0.5186650000000  0.4859330000000 1.0
C      1  0.4941770000000  0.4644470000000  0.4855650000000 1.0
C      1  0.5376320000000  0.5112280000000  0.4888290000000 1.0
C      1  0.3655570000000  0.4371390000000  0.5502860000000 1.0
C      1  0.6299010000000  0.4445410000000  0.5420360000000 1.0
C      1  0.5143050000000  0.6393690000000  0.5534450000000 1.0
C      1  0.4618450000000  0.5203960000000  0.4607430000000 1.0
C      1  0.5006800000000  0.4559310000000  0.4592330000000 1.0
C      1  0.5492010000000  0.5250440000000  0.4674040000000 1.0
C      1  0.5391610000000  0.4828840000000  0.4905650000000 1.0
C      1  0.4950820000000  0.5357860000000  0.4942140000000 1.0
C      1  0.4684480000000  0.4712440000000  0.4947830000000 1.0
C      1  0.5183330000000  0.4603710000000  0.5289180000000 1.0
C      1  0.5251420000000  0.5295270000000  0.5324200000000 1.0
C      1  0.4521770000000  0.5043640000000  0.5274770000000 1.0
C      1  0.5154430000000  0.6639370000000  0.5620680000000 1.0
C      1  0.3438820000000  0.4251740000000  0.5584260000000 1.0
C      1  0.6539880000000  0.4400130000000  0.5508990000000 1.0
END
