TITL C-2323478-8180-86 -0.000135294020384714 125000 -359.944793852408 0 0 60 (C2) n - 1
REM
REM in /home/bkarasulu/CARBON/AIRSS/Generating-Clusters/LCBOP/Higher-Symm/Only-C60/SD-CG/FIRE-HFTN
REM
REM
REM
REM
REM
REM ./C.cell (50c204cfd26239f34c78669fe23a5462)
REM
REM compiler GCC version 9.2.1 20190827 (Red Hat 9.2.1-1)
REM options -cpp -mtune=generic -march=x86-64 -g -O0 -fpre-include=/usr/include/finclude/math-vector-fortran.h
REM seed 1465554194 403044120 1895775964 173968403 -1442374397 1326052229 2047258310 411513821 -1515433788 348726483 1331704339 -1588695178 509767893 -1311836271 1200670543 1314115306 776453722 1886329397 -739425424 1333568668 -111108756 653081033 -1177578129 -1579588773 -526706085 800075900 1212932366 -1066305091 -1864232313 1612550066 97498198 120654818 -299641146
REM
CELL 1.54180   50.00000   50.00000   50.00000   90.00000   90.00000   90.00000
LATT -1
SFAC C  
C      1  0.4653140000000  0.5658960000000  0.5259270000000 1.0
C      1  0.5346910000000  0.4340790000000  0.5258590000000 1.0
C      1  0.4626210000000  0.5695080000000  0.4754090000000 1.0
C      1  0.5373750000000  0.4305150000000  0.4753370000000 1.0
C      1  0.5072130000000  0.4884700000000  0.4082650000000 1.0
C      1  0.4927700000000  0.5116170000000  0.4082780000000 1.0
C      1  0.5067060000000  0.4880650000000  0.5909860000000 1.0
C      1  0.4933100000000  0.5118480000000  0.5909990000000 1.0
C      1  0.4921780000000  0.5718300000000  0.5156490000000 1.0
C      1  0.5078240000000  0.4281550000000  0.5155800000000 1.0
C      1  0.4906580000000  0.5739600000000  0.4847970000000 1.0
C      1  0.5093390000000  0.4260540000000  0.4847250000000 1.0
C      1  0.4482830000000  0.5451840000000  0.5147640000000 1.0
C      1  0.5517190000000  0.4548030000000  0.5147120000000 1.0
C      1  0.4463090000000  0.5469690000000  0.4849360000000 1.0
C      1  0.5536880000000  0.4530450000000  0.4848820000000 1.0
C      1  0.4771640000000  0.5073670000000  0.4873170000000 1.0
C      1  0.5228340000000  0.4926450000000  0.4873060000000 1.0
C      1  0.4771130000000  0.4926010000000  0.5094390000000 1.0
C      1  0.5228890000000  0.5073900000000  0.5094420000000 1.0
C      1  0.5586600000000  0.4777680000000  0.4685800000000 1.0
C      1  0.4413350000000  0.5222610000000  0.4686120000000 1.0
C      1  0.5540160000000  0.4797310000000  0.5291050000000 1.0
C      1  0.4459890000000  0.5202420000000  0.5291330000000 1.0
C      1  0.4651500000000  0.5116820000000  0.5512210000000 1.0
C      1  0.5348590000000  0.4882700000000  0.5512030000000 1.0
C      1  0.4624860000000  0.5121070000000  0.4467470000000 1.0
C      1  0.5375050000000  0.4879430000000  0.4467290000000 1.0
C      1  0.5555040000000  0.5285670000000  0.5299310000000 1.0
C      1  0.4445010000000  0.4714040000000  0.5299140000000 1.0
C      1  0.5523860000000  0.5274250000000  0.4718680000000 1.0
C      1  0.4476090000000  0.4726010000000  0.4718520000000 1.0
C      1  0.5120730000000  0.4752120000000  0.5657560000000 1.0
C      1  0.4879390000000  0.5247260000000  0.5657810000000 1.0
C      1  0.5137960000000  0.4758750000000  0.4332010000000 1.0
C      1  0.4861920000000  0.5241880000000  0.4332260000000 1.0
C      1  0.4592540000000  0.4508580000000  0.4864760000000 1.0
C      1  0.5407430000000  0.5491550000000  0.4865150000000 1.0
C      1  0.4574370000000  0.4479550000000  0.5154950000000 1.0
C      1  0.5425650000000  0.5520310000000  0.5155370000000 1.0
C      1  0.5352180000000  0.5182810000000  0.4494590000000 1.0
C      1  0.4647730000000  0.4817670000000  0.4494480000000 1.0
C      1  0.5369500000000  0.5189140000000  0.5523480000000 1.0
C      1  0.4630600000000  0.4810360000000  0.5523360000000 1.0
C      1  0.5134250000000  0.5521740000000  0.5275680000000 1.0
C      1  0.4865800000000  0.4478000000000  0.5275210000000 1.0
C      1  0.5061850000000  0.5508330000000  0.4724380000000 1.0
C      1  0.4938100000000  0.4491930000000  0.4723910000000 1.0
C      1  0.5075330000000  0.4700180000000  0.4880130000000 1.0
C      1  0.4924650000000  0.5299940000000  0.4880430000000 1.0
C      1  0.4946160000000  0.4717810000000  0.5125930000000 1.0
C      1  0.5053870000000  0.5282070000000  0.5126190000000 1.0
C      1  0.5102540000000  0.5346470000000  0.4469140000000 1.0
C      1  0.4897360000000  0.4654030000000  0.4468830000000 1.0
C      1  0.5128140000000  0.5375350000000  0.5551090000000 1.0
C      1  0.4871950000000  0.4624130000000  0.5550760000000 1.0
C      1  0.4343850000000  0.4962230000000  0.4849690000000 1.0
C      1  0.5656120000000  0.5037920000000  0.4849610000000 1.0
C      1  0.4343350000000  0.4960080000000  0.5149130000000 1.0
C      1  0.5656680000000  0.5039780000000  0.5149050000000 1.0
END
