TITL C-2323482-8828-545 0.182903560476894 125000 -330.896009393582 0 0 60 (S10) n - 1
REM
REM in /home/bkarasulu/CARBON/AIRSS/Generating-Clusters/LCBOP/Higher-Symm/Only-C60/SD-CG/FIRE-HFTN
REM
REM
REM
REM
REM
REM ./C.cell (50c204cfd26239f34c78669fe23a5462)
REM
REM compiler GCC version 9.2.1 20190827 (Red Hat 9.2.1-1)
REM options -cpp -mtune=generic -march=x86-64 -g -O0 -fpre-include=/usr/include/finclude/math-vector-fortran.h
REM seed -2006386352 1387870182 1625988192 1721321382 -617225276 1234192644 923970593 1247781051 713963347 2087962294 -646851383 1375174909 -1206906082 1782230545 -166612836 938087919 -378777670 1085039623 1854791346 -1820839087 -801928988 -200779564 2036628167 788207179 -736866889 1379483312 -608840689 1691831725 1407502546 1573046574 -1740324562 -1887228078 -964863073
REM
CELL 1.54180   50.00000   50.00000   50.00000   90.00000   90.00000   90.00000
LATT -1
SFAC C  
C      1  0.4888280000000  0.4540080000000  0.5522910000000 1.0
C      1  0.4602260000000  0.5459920000000  0.5357370000000 1.0
C      1  0.4468160000000  0.4540080000000  0.5055340000000 1.0
C      1  0.4537210000000  0.5459920000000  0.4732160000000 1.0
C      1  0.4783030000000  0.4540080000000  0.4511290000000 1.0
C      1  0.5111720000000  0.5459920000000  0.4477090000000 1.0
C      1  0.5397740000000  0.4540080000000  0.4642630000000 1.0
C      1  0.5531840000000  0.5459920000000  0.4944660000000 1.0
C      1  0.5462790000000  0.4540080000000  0.5267840000000 1.0
C      1  0.5216970000000  0.5459920000000  0.5488710000000 1.0
C      1  0.5443300000000  0.4408780000000  0.4944210000000 1.0
C      1  0.5391430000000  0.5591220000000  0.5215430000000 1.0
C      1  0.5190040000000  0.4408780000000  0.5404360000000 1.0
C      1  0.4916070000000  0.5591220000000  0.5438840000000 1.0
C      1  0.4674150000000  0.4408780000000  0.5305700000000 1.0
C      1  0.4556700000000  0.5591220000000  0.5055790000000 1.0
C      1  0.4608570000000  0.4408780000000  0.4784570000000 1.0
C      1  0.4809960000000  0.5591220000000  0.4595640000000 1.0
C      1  0.5083930000000  0.4408780000000  0.4561160000000 1.0
C      1  0.5325850000000  0.5591220000000  0.4694300000000 1.0
C      1  0.4884660000000  0.5202890000000  0.4778400000000 1.0
C      1  0.5036950000000  0.4797110000000  0.4752930000000 1.0
C      1  0.5175120000000  0.5202890000000  0.4821830000000 1.0
C      1  0.5246400000000  0.4797110000000  0.4958790000000 1.0
C      1  0.5223560000000  0.5202890000000  0.5111490000000 1.0
C      1  0.5115340000000  0.4797110000000  0.5221600000000 1.0
C      1  0.4963050000000  0.5202890000000  0.5247070000000 1.0
C      1  0.4824880000000  0.4797110000000  0.5178170000000 1.0
C      1  0.4753600000000  0.5202890000000  0.5041210000000 1.0
C      1  0.4776440000000  0.4797110000000  0.4888510000000 1.0
C      1  0.4835730000000  0.5114290000000  0.5572060000000 1.0
C      1  0.4530850000000  0.4885710000000  0.5366250000000 1.0
C      1  0.4405180000000  0.5114290000000  0.5020550000000 1.0
C      1  0.4506700000000  0.4885710000000  0.4666990000000 1.0
C      1  0.4796650000000  0.5114290000000  0.4440640000000 1.0
C      1  0.5164270000000  0.4885710000000  0.4427940000000 1.0
C      1  0.5469150000000  0.5114290000000  0.4633750000000 1.0
C      1  0.5594820000000  0.4885710000000  0.4979450000000 1.0
C      1  0.5493300000000  0.5114290000000  0.5333010000000 1.0
C      1  0.5203350000000  0.4885710000000  0.5559360000000 1.0
C      1  0.5340020000000  0.5144680000000  0.5561570000000 1.0
C      1  0.4944990000000  0.4855320000000  0.5654180000000 1.0
C      1  0.4570980000000  0.5144680000000  0.5496910000000 1.0
C      1  0.4360840000000  0.4855320000000  0.5149840000000 1.0
C      1  0.4394840000000  0.5144680000000  0.4745530000000 1.0
C      1  0.4659980000000  0.4855320000000  0.4438430000000 1.0
C      1  0.5055010000000  0.5144680000000  0.4345820000000 1.0
C      1  0.5429020000000  0.4855320000000  0.4503090000000 1.0
C      1  0.5639160000000  0.5144680000000  0.4850160000000 1.0
C      1  0.5605160000000  0.4855320000000  0.5254470000000 1.0
C      1  0.5047950000000  0.4194120000000  0.4755700000000 1.0
C      1  0.5182390000000  0.5805880000000  0.4830550000000 1.0
C      1  0.5247160000000  0.4194120000000  0.4970120000000 1.0
C      1  0.5217520000000  0.5805880000000  0.5121100000000 1.0
C      1  0.5104800000000  0.4194120000000  0.5225830000000 1.0
C      1  0.4952050000000  0.5805880000000  0.5244300000000 1.0
C      1  0.4817610000000  0.4194120000000  0.5169450000000 1.0
C      1  0.4752840000000  0.5805880000000  0.5029880000000 1.0
C      1  0.4782480000000  0.4194120000000  0.4878900000000 1.0
C      1  0.4895200000000  0.5805880000000  0.4774170000000 1.0
END
