TITL C-2323481-8605-303 0.00802930683037562 125000 -353.63302423373 0 0 60 (C1) n - 1
REM
REM in /home/bkarasulu/CARBON/AIRSS/Generating-Clusters/LCBOP/Higher-Symm/Only-C60/SD-CG/FIRE-HFTN
REM
REM
REM
REM
REM
REM ./C.cell (50c204cfd26239f34c78669fe23a5462)
REM
REM compiler GCC version 9.2.1 20190827 (Red Hat 9.2.1-1)
REM options -cpp -mtune=generic -march=x86-64 -g -O0 -fpre-include=/usr/include/finclude/math-vector-fortran.h
REM seed -775226697 131712946 1518983342 1929020531 1573695187 -942413850 -212895307 73520054 -1441026949 -1562384953 627345489 -1239396170 454115713 1658750756 1950614981 -2021407865 -1308625658 -1313183170 1572438765 1839108048 -329846001 1125981360 1974142216 1539643330 175741446 -60314141 650513353 -2022741536 -140592183 -324890090 -1984738241 408554901 1059780599
REM
CELL 1.54180   50.00000   50.00000   50.00000   90.00000   90.00000   90.00000
LATT -1
SFAC C  
C      1  0.5712390000000  0.5201080000000  0.4881000000000 1.0
C      1  0.4432230000000  0.4491830000000  0.4757380000000 1.0
C      1  0.5379210000000  0.4863450000000  0.4598020000000 1.0
C      1  0.4696240000000  0.4537320000000  0.5279830000000 1.0
C      1  0.4444880000000  0.5561580000000  0.4736700000000 1.0
C      1  0.4322620000000  0.4642310000000  0.4975940000000 1.0
C      1  0.5863930000000  0.4971940000000  0.5726640000000 1.0
C      1  0.4095070000000  0.4678780000000  0.5668580000000 1.0
C      1  0.4895540000000  0.4311810000000  0.4892540000000 1.0
C      1  0.5045290000000  0.5798390000000  0.4789890000000 1.0
C      1  0.5389860000000  0.4921260000000  0.5834000000000 1.0
C      1  0.3915110000000  0.4911910000000  0.5010950000000 1.0
C      1  0.5359860000000  0.4988780000000  0.5285530000000 1.0
C      1  0.4852440000000  0.5631290000000  0.5382990000000 1.0
C      1  0.5596760000000  0.5078050000000  0.5710600000000 1.0
C      1  0.5961610000000  0.4750350000000  0.5313100000000 1.0
C      1  0.4645580000000  0.5616810000000  0.5210450000000 1.0
C      1  0.5297060000000  0.5021960000000  0.4368990000000 1.0
C      1  0.4425190000000  0.4609470000000  0.5241910000000 1.0
C      1  0.5524310000000  0.4518920000000  0.5315120000000 1.0
C      1  0.4901810000000  0.4413060000000  0.5156400000000 1.0
C      1  0.5302640000000  0.5370910000000  0.4971870000000 1.0
C      1  0.5087400000000  0.5173950000000  0.4246000000000 1.0
C      1  0.5504770000000  0.4996440000000  0.4816730000000 1.0
C      1  0.5298120000000  0.5079100000000  0.5019900000000 1.0
C      1  0.4920720000000  0.4802690000000  0.4626900000000 1.0
C      1  0.5883830000000  0.4713960000000  0.5855050000000 1.0
C      1  0.4922540000000  0.4381630000000  0.4424990000000 1.0
C      1  0.4311330000000  0.5315780000000  0.4758410000000 1.0
C      1  0.5109630000000  0.5668690000000  0.5450910000000 1.0
C      1  0.4817890000000  0.5083300000000  0.4214360000000 1.0
C      1  0.4489440000000  0.4644600000000  0.4519280000000 1.0
C      1  0.4836790000000  0.5014180000000  0.4777010000000 1.0
C      1  0.5559150000000  0.5435650000000  0.5337620000000 1.0
C      1  0.5180170000000  0.5571770000000  0.4827270000000 1.0
C      1  0.4495960000000  0.5658840000000  0.4474820000000 1.0
C      1  0.5591070000000  0.5417340000000  0.5047890000000 1.0
C      1  0.5376320000000  0.5632600000000  0.5433120000000 1.0
C      1  0.5112110000000  0.5451010000000  0.4195850000000 1.0
C      1  0.4792590000000  0.5871590000000  0.4843810000000 1.0
C      1  0.5839760000000  0.4494480000000  0.5694540000000 1.0
C      1  0.5179070000000  0.4668020000000  0.4672870000000 1.0
C      1  0.4930310000000  0.5649070000000  0.4201530000000 1.0
C      1  0.4685100000000  0.5707180000000  0.4291830000000 1.0
C      1  0.5515820000000  0.5177700000000  0.5453650000000 1.0
C      1  0.4397490000000  0.4915460000000  0.4477770000000 1.0
C      1  0.4559060000000  0.5055850000000  0.4288590000000 1.0
C      1  0.5083120000000  0.4384900000000  0.4678730000000 1.0
C      1  0.3932100000000  0.4716080000000  0.5868610000000 1.0
C      1  0.4618780000000  0.4279040000000  0.4807590000000 1.0
C      1  0.4271430000000  0.5042630000000  0.4702760000000 1.0
C      1  0.6006660000000  0.4968230000000  0.5475440000000 1.0
C      1  0.5453520000000  0.4308970000000  0.5156080000000 1.0
C      1  0.4258160000000  0.4642720000000  0.5462930000000 1.0
C      1  0.5341460000000  0.4724630000000  0.5399160000000 1.0
C      1  0.5791930000000  0.4540710000000  0.5414080000000 1.0
C      1  0.5266040000000  0.4734020000000  0.5676100000000 1.0
C      1  0.4162570000000  0.4868850000000  0.4903470000000 1.0
C      1  0.4594080000000  0.5693150000000  0.4943260000000 1.0
C      1  0.4764090000000  0.4623940000000  0.4452640000000 1.0
END
