TITL C-2323483-8886-456 3.83589571556761e-06 125000 -359.449840743848 0 0 60 (C2) n - 1
REM
REM in /home/bkarasulu/CARBON/AIRSS/Generating-Clusters/LCBOP/Higher-Symm/Only-C60/SD-CG/FIRE-HFTN
REM
REM
REM
REM
REM
REM ./C.cell (50c204cfd26239f34c78669fe23a5462)
REM
REM compiler GCC version 9.2.1 20190827 (Red Hat 9.2.1-1)
REM options -cpp -mtune=generic -march=x86-64 -g -O0 -fpre-include=/usr/include/finclude/math-vector-fortran.h
REM seed -1437678734 1109160213 -2033381740 -1799418460 -1907098803 1291330803 -1219230646 -1519440435 1686814431 -832064572 -69480644 61211052 595889264 534129120 -691348630 732363734 1722936644 -2120533426 1763022061 2142404244 1176588880 401564269 1893741695 567124966 121101464 1584839696 -2021782156 2142364472 1123132637 4532094 1293143768 -57543939 146882249
REM
CELL 1.54180   50.00000   50.00000   50.00000   90.00000   90.00000   90.00000
LATT -1
SFAC C  
C      1  0.5681920000000  0.4859620000000  0.5365970000000 1.0
C      1  0.5681890000000  0.5140210000000  0.4633890000000 1.0
C      1  0.5171250000000  0.4171760000000  0.5267380000000 1.0
C      1  0.5171410000000  0.5828190000000  0.4732580000000 1.0
C      1  0.5046760000000  0.4156390000000  0.4765810000000 1.0
C      1  0.5047020000000  0.5843600000000  0.5234180000000 1.0
C      1  0.4522200000000  0.4772530000000  0.4220440000000 1.0
C      1  0.4522420000000  0.5227590000000  0.5779660000000 1.0
C      1  0.4859570000000  0.4971810000000  0.4860250000000 1.0
C      1  0.4859610000000  0.5028230000000  0.5139780000000 1.0
C      1  0.4744380000000  0.4279040000000  0.5124880000000 1.0
C      1  0.4744540000000  0.5721020000000  0.4875170000000 1.0
C      1  0.5167090000000  0.4983130000000  0.4486660000000 1.0
C      1  0.5167200000000  0.5016830000000  0.5513310000000 1.0
C      1  0.5465290000000  0.4724390000000  0.4865240000000 1.0
C      1  0.5465380000000  0.5275490000000  0.5134660000000 1.0
C      1  0.5645060000000  0.4953060000000  0.4861340000000 1.0
C      1  0.5645100000000  0.5046780000000  0.5138530000000 1.0
C      1  0.5050280000000  0.4802090000000  0.5664900000000 1.0
C      1  0.5050190000000  0.5197900000000  0.4335090000000 1.0
C      1  0.4761580000000  0.5176260000000  0.4371420000000 1.0
C      1  0.4761670000000  0.4823800000000  0.5628630000000 1.0
C      1  0.5265120000000  0.4746030000000  0.5072390000000 1.0
C      1  0.5265170000000  0.5253900000000  0.4927550000000 1.0
C      1  0.4632810000000  0.5365650000000  0.4545530000000 1.0
C      1  0.4632810000000  0.4634440000000  0.5454550000000 1.0
C      1  0.5113580000000  0.4928780000000  0.5239270000000 1.0
C      1  0.5113550000000  0.5071190000000  0.4760700000000 1.0
C      1  0.4720970000000  0.5487270000000  0.5290170000000 1.0
C      1  0.4720790000000  0.4512800000000  0.4709890000000 1.0
C      1  0.5420040000000  0.4600180000000  0.4617280000000 1.0
C      1  0.5420220000000  0.5399720000000  0.5382630000000 1.0
C      1  0.4308170000000  0.5670150000000  0.5095700000000 1.0
C      1  0.4307970000000  0.4330030000000  0.4904440000000 1.0
C      1  0.4325680000000  0.4907590000000  0.5098980000000 1.0
C      1  0.4325690000000  0.5092580000000  0.4901160000000 1.0
C      1  0.4663110000000  0.4906710000000  0.4411950000000 1.0
C      1  0.4663250000000  0.5093380000000  0.5588120000000 1.0
C      1  0.4724450000000  0.4794770000000  0.4672790000000 1.0
C      1  0.4724570000000  0.5205300000000  0.5327260000000 1.0
C      1  0.5932490000000  0.5136370000000  0.4515670000000 1.0
C      1  0.5932560000000  0.4863390000000  0.5484140000000 1.0
C      1  0.5488050000000  0.5329750000000  0.4515440000000 1.0
C      1  0.5488060000000  0.4670120000000  0.5484460000000 1.0
C      1  0.5287680000000  0.4739120000000  0.4426740000000 1.0
C      1  0.5287870000000  0.5260800000000  0.5573200000000 1.0
C      1  0.5221950000000  0.5422120000000  0.4419190000000 1.0
C      1  0.5221960000000  0.4577830000000  0.5580760000000 1.0
C      1  0.4422370000000  0.5260980000000  0.4711760000000 1.0
C      1  0.4422360000000  0.4739170000000  0.5288360000000 1.0
C      1  0.4993840000000  0.4141090000000  0.5042630000000 1.0
C      1  0.4994060000000  0.5858910000000  0.4957380000000 1.0
C      1  0.4574980000000  0.4382680000000  0.4920140000000 1.0
C      1  0.4575150000000  0.5617430000000  0.5079950000000 1.0
C      1  0.5074410000000  0.5633890000000  0.4540710000000 1.0
C      1  0.5074350000000  0.4366090000000  0.5459280000000 1.0
C      1  0.4924080000000  0.4340950000000  0.4606620000000 1.0
C      1  0.4924330000000  0.5659070000000  0.5393400000000 1.0
C      1  0.4789870000000  0.5588910000000  0.4622320000000 1.0
C      1  0.4789800000000  0.4411150000000  0.5377720000000 1.0
END
