TITL C-2323477-5056-375 -2.6308275138916e-05 125000 -349.163263581813 0 0 60 (C1) n - 1
REM
REM in /home/bkarasulu/CARBON/AIRSS/Generating-Clusters/LCBOP/Higher-Symm/Only-C60/SD-CG/FIRE-HFTN
REM
REM
REM
REM
REM
REM ./C.cell (50c204cfd26239f34c78669fe23a5462)
REM
REM compiler GCC version 9.2.1 20190827 (Red Hat 9.2.1-1)
REM options -cpp -mtune=generic -march=x86-64 -g -O0 -fpre-include=/usr/include/finclude/math-vector-fortran.h
REM seed 791536505 1476017011 -56770267 887087746 -1298902117 -546747260 1262639010 1069805459 1302904826 -1762218611 1544929340 970556099 -712471824 1623493559 -1186127142 334228774 2072274227 -1758751340 -915433374 2007922041 844240780 -913058359 846573638 1406520216 -1398069603 1336206221 1536240785 687181199 1702501242 1092361263 -149276601 -1454744874 -578100391
REM
CELL 1.54180   50.00000   50.00000   50.00000   90.00000   90.00000   90.00000
LATT -1
SFAC C  
C      1  0.4798290000000  0.4659930000000  0.4414030000000 1.0
C      1  0.4698860000000  0.5428610000000  0.4013030000000 1.0
C      1  0.5387130000000  0.5037470000000  0.4390120000000 1.0
C      1  0.4893370000000  0.4588600000000  0.5634600000000 1.0
C      1  0.4663140000000  0.5280030000000  0.5824960000000 1.0
C      1  0.5383470000000  0.5069520000000  0.5571440000000 1.0
C      1  0.4994680000000  0.4536740000000  0.4253070000000 1.0
C      1  0.5354190000000  0.5285670000000  0.4263570000000 1.0
C      1  0.4523140000000  0.5233040000000  0.4056240000000 1.0
C      1  0.5130290000000  0.4536930000000  0.5774280000000 1.0
C      1  0.5234980000000  0.5308330000000  0.5588380000000 1.0
C      1  0.4603150000000  0.5056060000000  0.5667780000000 1.0
C      1  0.4950150000000  0.5511580000000  0.4044100000000 1.0
C      1  0.5406930000000  0.4803410000000  0.4233630000000 1.0
C      1  0.4577070000000  0.4781590000000  0.4291650000000 1.0
C      1  0.4878420000000  0.5412230000000  0.5914410000000 1.0
C      1  0.5449960000000  0.4906580000000  0.5789830000000 1.0
C      1  0.4647510000000  0.4591760000000  0.5773540000000 1.0
C      1  0.5193350000000  0.5456350000000  0.4137550000000 1.0
C      1  0.4479970000000  0.4991210000000  0.4159180000000 1.0
C      1  0.5242420000000  0.4600590000000  0.4172740000000 1.0
C      1  0.5132490000000  0.5415680000000  0.5826540000000 1.0
C      1  0.4505280000000  0.4820330000000  0.5789500000000 1.0
C      1  0.5345440000000  0.4669990000000  0.5862570000000 1.0
C      1  0.5235430000000  0.5556200000000  0.5160810000000 1.0
C      1  0.5285370000000  0.4508950000000  0.5132360000000 1.0
C      1  0.4462070000000  0.4983160000000  0.5195900000000 1.0
C      1  0.5295090000000  0.5468690000000  0.4895410000000 1.0
C      1  0.5307970000000  0.4523510000000  0.4849830000000 1.0
C      1  0.4483530000000  0.4970590000000  0.4911220000000 1.0
C      1  0.4678390000000  0.5467710000000  0.5136400000000 1.0
C      1  0.4727130000000  0.4545780000000  0.5166300000000 1.0
C      1  0.5590080000000  0.5024650000000  0.5129640000000 1.0
C      1  0.4729260000000  0.5458480000000  0.4856230000000 1.0
C      1  0.4779760000000  0.4499990000000  0.4888260000000 1.0
C      1  0.5583940000000  0.4982690000000  0.4846860000000 1.0
C      1  0.4842090000000  0.5288550000000  0.5292920000000 1.0
C      1  0.5384040000000  0.4947200000000  0.5312010000000 1.0
C      1  0.4892000000000  0.4740510000000  0.5353530000000 1.0
C      1  0.4878740000000  0.5228540000000  0.4776590000000 1.0
C      1  0.5325940000000  0.5005710000000  0.4685930000000 1.0
C      1  0.4869820000000  0.4724120000000  0.4701780000000 1.0
C      1  0.5105220000000  0.5384010000000  0.5346490000000 1.0
C      1  0.4717170000000  0.5019920000000  0.5377260000000 1.0
C      1  0.5186690000000  0.4746960000000  0.5261470000000 1.0
C      1  0.5162840000000  0.5241440000000  0.4782930000000 1.0
C      1  0.4739870000000  0.4981150000000  0.4786910000000 1.0
C      1  0.5172250000000  0.4745660000000  0.4730870000000 1.0
C      1  0.5479450000000  0.5606860000000  0.4746480000000 1.0
C      1  0.5447730000000  0.4340830000000  0.4703150000000 1.0
C      1  0.4256900000000  0.4954550000000  0.4757970000000 1.0
C      1  0.5298100000000  0.5811900000000  0.5237940000000 1.0
C      1  0.5356240000000  0.4286110000000  0.5273390000000 1.0
C      1  0.4214870000000  0.4973560000000  0.5314160000000 1.0
C      1  0.4645870000000  0.5648730000000  0.4680000000000 1.0
C      1  0.4749760000000  0.4246930000000  0.4784320000000 1.0
C      1  0.5815900000000  0.4916240000000  0.4714590000000 1.0
C      1  0.4494470000000  0.5633650000000  0.5250770000000 1.0
C      1  0.4519430000000  0.4404890000000  0.5279240000000 1.0
C      1  0.5812900000000  0.5149360000000  0.5233320000000 1.0
END
