TITL C-2323481-8605-178 -7.65868204219232e-07 125000 -361.515965724943 0 0 60 (C1) n - 1
REM
REM in /home/bkarasulu/CARBON/AIRSS/Generating-Clusters/LCBOP/Higher-Symm/Only-C60/SD-CG/FIRE-HFTN
REM
REM
REM
REM
REM
REM ./C.cell (50c204cfd26239f34c78669fe23a5462)
REM
REM compiler GCC version 9.2.1 20190827 (Red Hat 9.2.1-1)
REM options -cpp -mtune=generic -march=x86-64 -g -O0 -fpre-include=/usr/include/finclude/math-vector-fortran.h
REM seed 1285530959 846290089 1688093574 678377943 -1943788149 904466629 -762466680 70408093 -518960153 -931104707 -1763900860 -270020823 1651968376 -125728669 1707625595 594909754 1401074317 -978349261 850179265 305622480 -1339201087 -1190575431 535857933 77122109 656809550 -1395220218 1035101311 1108255980 -1510157684 1169110264 694119325 873345131 -648727036
REM
CELL 1.54180   50.00000   50.00000   50.00000   90.00000   90.00000   90.00000
LATT -1
SFAC C  
C      1  0.4584460000000  0.4830140000000  0.5296290000000 1.0
C      1  0.4665630000000  0.5338480000000  0.4377970000000 1.0
C      1  0.5336830000000  0.4534200000000  0.4630880000000 1.0
C      1  0.5454840000000  0.4680500000000  0.4870010000000 1.0
C      1  0.5529640000000  0.5249120000000  0.5447350000000 1.0
C      1  0.4462580000000  0.5340880000000  0.4806420000000 1.0
C      1  0.5340260000000  0.5263210000000  0.5659070000000 1.0
C      1  0.5255560000000  0.4758960000000  0.4454970000000 1.0
C      1  0.4686410000000  0.4653150000000  0.5489110000000 1.0
C      1  0.4920550000000  0.4092880000000  0.5287500000000 1.0
C      1  0.4573300000000  0.5533340000000  0.4596090000000 1.0
C      1  0.5249890000000  0.5549520000000  0.5124450000000 1.0
C      1  0.4535120000000  0.5424810000000  0.5363640000000 1.0
C      1  0.4654900000000  0.4836400000000  0.4345310000000 1.0
C      1  0.5093730000000  0.5448040000000  0.4632010000000 1.0
C      1  0.5662200000000  0.5298640000000  0.4987750000000 1.0
C      1  0.5451270000000  0.4582550000000  0.5371290000000 1.0
C      1  0.4462530000000  0.4657450000000  0.4821670000000 1.0
C      1  0.5250850000000  0.4781620000000  0.5427240000000 1.0
C      1  0.5216070000000  0.5243080000000  0.4488890000000 1.0
C      1  0.4640700000000  0.5369220000000  0.5624590000000 1.0
C      1  0.4726150000000  0.5563520000000  0.5195930000000 1.0
C      1  0.4744090000000  0.4548160000000  0.4819120000000 1.0
C      1  0.5353510000000  0.4325250000000  0.5279390000000 1.0
C      1  0.5677490000000  0.4753820000000  0.5287280000000 1.0
C      1  0.4855100000000  0.5264810000000  0.5751060000000 1.0
C      1  0.5047640000000  0.5729350000000  0.4694000000000 1.0
C      1  0.4298160000000  0.4884450000000  0.4880850000000 1.0
C      1  0.4334470000000  0.5235730000000  0.5254670000000 1.0
C      1  0.5759160000000  0.5054170000000  0.4917020000000 1.0
C      1  0.5106310000000  0.5167570000000  0.4228480000000 1.0
C      1  0.5098820000000  0.4843800000000  0.5660010000000 1.0
C      1  0.4854950000000  0.4750650000000  0.4183270000000 1.0
C      1  0.4673640000000  0.5773470000000  0.5007190000000 1.0
C      1  0.4898580000000  0.4300560000000  0.4823030000000 1.0
C      1  0.5356660000000  0.4244810000000  0.5002370000000 1.0
C      1  0.5694280000000  0.5007410000000  0.5432990000000 1.0
C      1  0.4868160000000  0.4684730000000  0.5685650000000 1.0
C      1  0.5193090000000  0.4318780000000  0.4770300000000 1.0
C      1  0.4284560000000  0.5182650000000  0.4968420000000 1.0
C      1  0.4356960000000  0.4979630000000  0.5376060000000 1.0
C      1  0.5686100000000  0.4788930000000  0.4998940000000 1.0
C      1  0.5112330000000  0.4865360000000  0.4220730000000 1.0
C      1  0.5101460000000  0.5124930000000  0.5731780000000 1.0
C      1  0.4869400000000  0.5324900000000  0.4172960000000 1.0
C      1  0.4829220000000  0.4119480000000  0.5033470000000 1.0
C      1  0.4745940000000  0.5743820000000  0.4726830000000 1.0
C      1  0.5223260000000  0.5769360000000  0.4929480000000 1.0
C      1  0.4700180000000  0.5143200000000  0.4805590000000 1.0
C      1  0.5141300000000  0.4189550000000  0.5413860000000 1.0
C      1  0.5217210000000  0.4863140000000  0.4920510000000 1.0
C      1  0.4933120000000  0.5330750000000  0.4835380000000 1.0
C      1  0.5241140000000  0.5001610000000  0.4641580000000 1.0
C      1  0.5490280000000  0.5396870000000  0.5195750000000 1.0
C      1  0.4755890000000  0.4959170000000  0.5064180000000 1.0
C      1  0.4970870000000  0.5123850000000  0.5227410000000 1.0
C      1  0.4665080000000  0.5064150000000  0.4510000000000 1.0
C      1  0.5205420000000  0.4959400000000  0.5206660000000 1.0
C      1  0.4923080000000  0.4750240000000  0.4915690000000 1.0
C      1  0.4979600000000  0.5401790000000  0.5129590000000 1.0
END
