TITL C-2323491-8878-233 1.3104381707078e-05 125000 -346.472789737135 0 0 60 (C1) n - 1
REM
REM in /home/bkarasulu/CARBON/AIRSS/Generating-Clusters/LCBOP/Higher-Symm/Only-C60/SD-CG/FIRE-HFTN
REM
REM
REM
REM
REM
REM ./C.cell (50c204cfd26239f34c78669fe23a5462)
REM
REM compiler GCC version 9.2.1 20190827 (Red Hat 9.2.1-1)
REM options -cpp -mtune=generic -march=x86-64 -g -O0 -fpre-include=/usr/include/finclude/math-vector-fortran.h
REM seed 539788579 -969789670 677524288 -1008562666 110814358 1544447604 -1250005484 -1203472312 172727847 -1046192238 -337371687 -138559014 1508721904 2053797443 1115053014 -245207702 228306093 59338260 -1337088855 -487460482 726805154 -1449747057 1932887922 296859189 1002322054 -2048075745 -121936011 -1286651930 2021994903 -1696401996 -1571294393 358733457 373571801
REM
CELL 1.54180   50.00000   50.00000   50.00000   90.00000   90.00000   90.00000
LATT -1
SFAC C  
C      1  0.5145690000000  0.5264660000000  0.4804900000000 1.0
C      1  0.4845150000000  0.5267430000000  0.5248380000000 1.0
C      1  0.5164550000000  0.5253330000000  0.5264670000000 1.0
C      1  0.4867080000000  0.5254650000000  0.4787340000000 1.0
C      1  0.5628860000000  0.5400980000000  0.4993920000000 1.0
C      1  0.4396610000000  0.5396920000000  0.4690580000000 1.0
C      1  0.5609980000000  0.5411950000000  0.4707440000000 1.0
C      1  0.4382270000000  0.5404160000000  0.4977000000000 1.0
C      1  0.4536610000000  0.5008880000000  0.5611950000000 1.0
C      1  0.5487050000000  0.5038420000000  0.4456130000000 1.0
C      1  0.4529910000000  0.5014940000000  0.4449170000000 1.0
C      1  0.5478410000000  0.4959800000000  0.5607730000000 1.0
C      1  0.4865900000000  0.4607040000000  0.4302940000000 1.0
C      1  0.5133240000000  0.4546030000000  0.5711990000000 1.0
C      1  0.4859390000000  0.4564060000000  0.5705290000000 1.0
C      1  0.5139740000000  0.4621920000000  0.4312360000000 1.0
C      1  0.5430710000000  0.5322650000000  0.4476280000000 1.0
C      1  0.4653120000000  0.5139820000000  0.5815120000000 1.0
C      1  0.5378150000000  0.5102360000000  0.5811830000000 1.0
C      1  0.4577980000000  0.5300890000000  0.4465050000000 1.0
C      1  0.5131670000000  0.4461640000000  0.4757140000000 1.0
C      1  0.4863860000000  0.4456550000000  0.5244950000000 1.0
C      1  0.5139050000000  0.4374380000000  0.5276110000000 1.0
C      1  0.4854640000000  0.4390200000000  0.4719320000000 1.0
C      1  0.5266220000000  0.4626510000000  0.4570600000000 1.0
C      1  0.4732130000000  0.4601590000000  0.5450010000000 1.0
C      1  0.5271080000000  0.4554060000000  0.5457020000000 1.0
C      1  0.4727770000000  0.4589840000000  0.4557110000000 1.0
C      1  0.5256990000000  0.3908920000000  0.4781400000000 1.0
C      1  0.4722280000000  0.3906550000000  0.5187800000000 1.0
C      1  0.5337910000000  0.3990740000000  0.5026470000000 1.0
C      1  0.4643510000000  0.4000650000000  0.4946510000000 1.0
C      1  0.5020110000000  0.3945700000000  0.4654880000000 1.0
C      1  0.4959990000000  0.3931900000000  0.5315440000000 1.0
C      1  0.5182220000000  0.4095030000000  0.5238340000000 1.0
C      1  0.4802370000000  0.4110900000000  0.4740040000000 1.0
C      1  0.4624950000000  0.4855910000000  0.5390310000000 1.0
C      1  0.5381850000000  0.4866950000000  0.4657470000000 1.0
C      1  0.4634410000000  0.4842640000000  0.4653630000000 1.0
C      1  0.5371550000000  0.4814720000000  0.5386960000000 1.0
C      1  0.4786400000000  0.5529460000000  0.4871390000000 1.0
C      1  0.5373960000000  0.5443670000000  0.5138990000000 1.0
C      1  0.4640130000000  0.5456910000000  0.5113000000000 1.0
C      1  0.5222320000000  0.5531720000000  0.4906840000000 1.0
C      1  0.5304530000000  0.5884700000000  0.4576420000000 1.0
C      1  0.4597110000000  0.6173250000000  0.5130920000000 1.0
C      1  0.5292060000000  0.6166450000000  0.5232290000000 1.0
C      1  0.4741590000000  0.5861830000000  0.4509570000000 1.0
C      1  0.4861990000000  0.5379420000000  0.4369350000000 1.0
C      1  0.5153500000000  0.5190870000000  0.5926560000000 1.0
C      1  0.4886760000000  0.5204640000000  0.5927690000000 1.0
C      1  0.5147320000000  0.5391560000000  0.4376790000000 1.0
C      1  0.5278960000000  0.5011090000000  0.4883510000000 1.0
C      1  0.4727230000000  0.5000390000000  0.5167730000000 1.0
C      1  0.5273650000000  0.4981660000000  0.5175130000000 1.0
C      1  0.4736090000000  0.5000060000000  0.4875300000000 1.0
C      1  0.5261900000000  0.5995700000000  0.5037710000000 1.0
C      1  0.4744520000000  0.5793520000000  0.4774570000000 1.0
C      1  0.5254790000000  0.5803490000000  0.4833040000000 1.0
C      1  0.4680230000000  0.5993370000000  0.4961630000000 1.0
END
