TITL C-2323484-8600-432 0.000639529735753675 125000 -348.563017839363 0 0 60 (C1) n - 1
REM
REM in /home/bkarasulu/CARBON/AIRSS/Generating-Clusters/LCBOP/Higher-Symm/Only-C60/SD-CG/FIRE-HFTN
REM
REM
REM
REM
REM
REM ./C.cell (50c204cfd26239f34c78669fe23a5462)
REM
REM compiler GCC version 9.2.1 20190827 (Red Hat 9.2.1-1)
REM options -cpp -mtune=generic -march=x86-64 -g -O0 -fpre-include=/usr/include/finclude/math-vector-fortran.h
REM seed -1752633850 535307330 -1568440753 996002222 -52154955 -981078427 -1637614842 -604248463 -506607529 -790733049 -916759371 -1538500544 993252345 451950635 1387307665 1519877354 -1860973316 21602102 488560349 1289440554 355763566 -1299749298 -1885324726 -30870128 -1236733580 -603668438 1441729083 -2002659664 1794964067 -2058931833 1955591161 1210730963 -926698455
REM
CELL 1.54180   50.00000   50.00000   50.00000   90.00000   90.00000   90.00000
LATT -1
SFAC C  
C      1  0.4675810000000  0.5046310000000  0.5322130000000 1.0
C      1  0.4720770000000  0.4677340000000  0.5043760000000 1.0
C      1  0.4717800000000  0.4959160000000  0.4679610000000 1.0
C      1  0.4675860000000  0.5323840000000  0.4962170000000 1.0
C      1  0.5481550000000  0.5399670000000  0.4694870000000 1.0
C      1  0.5481830000000  0.5300440000000  0.5402260000000 1.0
C      1  0.5481220000000  0.4592230000000  0.5301390000000 1.0
C      1  0.5478560000000  0.4694530000000  0.4593030000000 1.0
C      1  0.5473100000000  0.5172940000000  0.4522970000000 1.0
C      1  0.5474370000000  0.5470010000000  0.5173870000000 1.0
C      1  0.5472450000000  0.4820990000000  0.5470450000000 1.0
C      1  0.5472700000000  0.4525280000000  0.4821760000000 1.0
C      1  0.4631790000000  0.4586510000000  0.4422630000000 1.0
C      1  0.4629670000000  0.5577840000000  0.4586990000000 1.0
C      1  0.4629620000000  0.5418130000000  0.5582720000000 1.0
C      1  0.4626910000000  0.4419560000000  0.5411410000000 1.0
C      1  0.5281880000000  0.4396870000000  0.5228310000000 1.0
C      1  0.5275260000000  0.4768270000000  0.4401560000000 1.0
C      1  0.5280530000000  0.5593800000000  0.4768230000000 1.0
C      1  0.5280770000000  0.5227480000000  0.5596060000000 1.0
C      1  0.5256410000000  0.4937170000000  0.5633410000000 1.0
C      1  0.5258810000000  0.4359210000000  0.4938060000000 1.0
C      1  0.5255470000000  0.5058660000000  0.4360210000000 1.0
C      1  0.5259250000000  0.5634250000000  0.5058470000000 1.0
C      1  0.5027770000000  0.4241370000000  0.4831810000000 1.0
C      1  0.5024850000000  0.5167740000000  0.4243550000000 1.0
C      1  0.5028810000000  0.5750930000000  0.5167560000000 1.0
C      1  0.5022930000000  0.4830940000000  0.5746570000000 1.0
C      1  0.4661400000000  0.5177480000000  0.5733100000000 1.0
C      1  0.4661960000000  0.4268490000000  0.5172890000000 1.0
C      1  0.4661840000000  0.4825460000000  0.4271710000000 1.0
C      1  0.4665260000000  0.5732880000000  0.4823890000000 1.0
C      1  0.5640030000000  0.4941760000000  0.4602160000000 1.0
C      1  0.5640780000000  0.5385790000000  0.4943630000000 1.0
C      1  0.5639900000000  0.5050900000000  0.5387180000000 1.0
C      1  0.5639780000000  0.4607920000000  0.5052040000000 1.0
C      1  0.4484100000000  0.4628870000000  0.4885360000000 1.0
C      1  0.4476980000000  0.5112460000000  0.4629650000000 1.0
C      1  0.4449620000000  0.5389770000000  0.5126250000000 1.0
C      1  0.4451800000000  0.4876110000000  0.5375560000000 1.0
C      1  0.4585180000000  0.5314060000000  0.4448770000000 1.0
C      1  0.4581830000000  0.5562100000000  0.5321930000000 1.0
C      1  0.4579140000000  0.4680750000000  0.5551670000000 1.0
C      1  0.4591890000000  0.4448150000000  0.4685120000000 1.0
C      1  0.5864190000000  0.4964760000000  0.4762820000000 1.0
C      1  0.5858260000000  0.5213200000000  0.4972820000000 1.0
C      1  0.5855290000000  0.5025180000000  0.5210040000000 1.0
C      1  0.5857790000000  0.4781050000000  0.5031190000000 1.0
C      1  0.4972480000000  0.4985080000000  0.4794780000000 1.0
C      1  0.4940040000000  0.5227260000000  0.4978000000000 1.0
C      1  0.4938940000000  0.5056990000000  0.5222970000000 1.0
C      1  0.4971470000000  0.4800090000000  0.5059330000000 1.0
C      1  0.4745260000000  0.5735430000000  0.5125340000000 1.0
C      1  0.4739660000000  0.4875810000000  0.5729290000000 1.0
C      1  0.4745040000000  0.4262400000000  0.4873540000000 1.0
C      1  0.4741850000000  0.5125370000000  0.4264310000000 1.0
C      1  0.4256070000000  0.5051080000000  0.4787360000000 1.0
C      1  0.4222800000000  0.5243920000000  0.5080310000000 1.0
C      1  0.4239610000000  0.4904650000000  0.5200040000000 1.0
C      1  0.4263010000000  0.4793280000000  0.4931130000000 1.0
END
