TITL C-2323490-8774-112 0.367986899574531 125000 -372.785439123967 0 0 60 (C1) n - 1
REM
REM in /home/bkarasulu/CARBON/AIRSS/Generating-Clusters/LCBOP/Higher-Symm/Only-C60/SD-CG/FIRE-HFTN
REM
REM
REM
REM
REM
REM ./C.cell (50c204cfd26239f34c78669fe23a5462)
REM
REM compiler GCC version 9.2.1 20190827 (Red Hat 9.2.1-1)
REM options -cpp -mtune=generic -march=x86-64 -g -O0 -fpre-include=/usr/include/finclude/math-vector-fortran.h
REM seed 751893565 -626780665 -1975510162 1458243944 -1853877483 -2080183046 -753362977 1844684089 1297608681 -1103710529 1731348820 489681606 -1138062934 183887626 -2003651785 79161720 1677781088 -221212903 -2109251998 -413071234 -1722340489 -1575318954 185228164 90779206 -212882585 212699316 256628371 334553801 28577884 69204920 759599199 -1461734522 1703319564
REM
CELL 1.54180   50.00000   50.00000   50.00000   90.00000   90.00000   90.00000
LATT -1
SFAC C  
C      1  0.4401170000000  0.6034360000000  0.5025960000000 1.0
C      1  0.4057940000000  0.4878330000000  0.5075340000000 1.0
C      1  0.4178620000000  0.5066280000000  0.5218520000000 1.0
C      1  0.5016420000000  0.5037830000000  0.4981100000000 1.0
C      1  0.5005640000000  0.4567920000000  0.5090560000000 1.0
C      1  0.4822740000000  0.5314630000000  0.5518670000000 1.0
C      1  0.5637180000000  0.4390360000000  0.4484930000000 1.0
C      1  0.5307600000000  0.5252400000000  0.5531760000000 1.0
C      1  0.5208100000000  0.4689090000000  0.5525140000000 1.0
C      1  0.5308070000000  0.5404200000000  0.5278130000000 1.0
C      1  0.5580310000000  0.4860900000000  0.4521270000000 1.0
C      1  0.4800040000000  0.4466590000000  0.4377110000000 1.0
C      1  0.3911060000000  0.6044090000000  0.4961780000000 1.0
C      1  0.5449550000000  0.5225010000000  0.5084620000000 1.0
C      1  0.4950220000000  0.4419040000000  0.4854680000000 1.0
C      1  0.4113950000000  0.4534310000000  0.4690320000000 1.0
C      1  0.5523460000000  0.5058890000000  0.5521830000000 1.0
C      1  0.4528150000000  0.4411790000000  0.4403770000000 1.0
C      1  0.5645150000000  0.5085900000000  0.5257690000000 1.0
C      1  0.5706810000000  0.4505110000000  0.5304190000000 1.0
C      1  0.6367540000000  0.5190720000000  0.5244400000000 1.0
C      1  0.4893200000000  0.4146390000000  0.4869560000000 1.0
C      1  0.5126750000000  0.5846900000000  0.5103390000000 1.0
C      1  0.4643570000000  0.5916570000000  0.5106440000000 1.0
C      1  0.5839580000000  0.4621300000000  0.4857380000000 1.0
C      1  0.5506130000000  0.4276900000000  0.4952400000000 1.0
C      1  0.4149940000000  0.5658260000000  0.5157870000000 1.0
C      1  0.4856370000000  0.5550920000000  0.5366570000000 1.0
C      1  0.5049680000000  0.5161600000000  0.5615310000000 1.0
C      1  0.5858640000000  0.4677230000000  0.5136300000000 1.0
C      1  0.5115370000000  0.5606960000000  0.5250970000000 1.0
C      1  0.5560630000000  0.4628700000000  0.4346140000000 1.0
C      1  0.4771970000000  0.4886660000000  0.5370420000000 1.0
C      1  0.6134930000000  0.5074260000000  0.5228870000000 1.0
C      1  0.5455100000000  0.4800690000000  0.5615150000000 1.0
C      1  0.4841550000000  0.3891150000000  0.4878810000000 1.0
C      1  0.4033320000000  0.4690840000000  0.4889040000000 1.0
C      1  0.5170850000000  0.4534270000000  0.4027040000000 1.0
C      1  0.4621920000000  0.5130460000000  0.5410530000000 1.0
C      1  0.5336050000000  0.4943430000000  0.4646400000000 1.0
C      1  0.4143520000000  0.5917940000000  0.5044780000000 1.0
C      1  0.4882150000000  0.4826430000000  0.5114740000000 1.0
C      1  0.3470250000000  0.6283330000000  0.4804430000000 1.0
C      1  0.4377820000000  0.5515770000000  0.5245020000000 1.0
C      1  0.5213370000000  0.4517760000000  0.5287140000000 1.0
C      1  0.5886770000000  0.4950820000000  0.5207640000000 1.0
C      1  0.5688970000000  0.4387970000000  0.4764100000000 1.0
C      1  0.4951030000000  0.4555450000000  0.4602770000000 1.0
C      1  0.4622830000000  0.5667570000000  0.5252110000000 1.0
C      1  0.5412770000000  0.4612990000000  0.4109990000000 1.0
C      1  0.4990220000000  0.4872190000000  0.5567710000000 1.0
C      1  0.5460880000000  0.4394940000000  0.5208080000000 1.0
C      1  0.3688870000000  0.6164680000000  0.4882470000000 1.0
C      1  0.4384930000000  0.5235560000000  0.5299540000000 1.0
C      1  0.5813610000000  0.4846280000000  0.4682840000000 1.0
C      1  0.4907010000000  0.5993160000000  0.5040720000000 1.0
C      1  0.4289120000000  0.4436030000000  0.4516660000000 1.0
C      1  0.5284460000000  0.5091130000000  0.4889090000000 1.0
C      1  0.4933660000000  0.4465050000000  0.4129900000000 1.0
C      1  0.5112460000000  0.4783730000000  0.4569910000000 1.0
END
