TITL C-2323489-8765-414 0.0011202968594763 125000 -374.861139426762 0 0 60 (Td) n - 1
REM
REM in /home/bkarasulu/CARBON/AIRSS/Generating-Clusters/LCBOP/Higher-Symm/Only-C60/SD-CG/FIRE-HFTN
REM
REM
REM
REM
REM
REM ./C.cell (50c204cfd26239f34c78669fe23a5462)
REM
REM compiler GCC version 9.2.1 20190827 (Red Hat 9.2.1-1)
REM options -cpp -mtune=generic -march=x86-64 -g -O0 -fpre-include=/usr/include/finclude/math-vector-fortran.h
REM seed 96930044 -343449459 -1954709410 1809251169 -592873977 481223734 1765053937 1925740665 -826607575 1545584079 -699087871 -628066117 -2025562290 1632702289 -1294254465 1355605361 1528226685 1682423342 -632494728 -274227839 -595369168 -395234077 982079716 -1466743741 -930708828 1205306143 1136392046 -1823836327 1782479971 -683546830 -2146157858 1524202223 -621084471
REM
CELL 1.54180   50.00000   50.00000   50.00000   90.00000   90.00000   90.00000
LATT -1
SFAC C  
C      1  0.5131270000000  0.4462860000000  0.5328580000000 1.0
C      1  0.5328580000000  0.5131280000000  0.4462860000000 1.0
C      1  0.4462860000000  0.5328590000000  0.5131280000000 1.0
C      1  0.5131280000000  0.5537140000000  0.4671420000000 1.0
C      1  0.4868730000000  0.5537140000000  0.5328590000000 1.0
C      1  0.4868720000000  0.4462860000000  0.4671410000000 1.0
C      1  0.5328580000000  0.4868720000000  0.5537140000000 1.0
C      1  0.4671420000000  0.4868730000000  0.4462860000000 1.0
C      1  0.4671420000000  0.5131270000000  0.5537140000000 1.0
C      1  0.4462860000000  0.4671420000000  0.4868720000000 1.0
C      1  0.5537140000000  0.4671410000000  0.5131270000000 1.0
C      1  0.5537140000000  0.5328580000000  0.4868730000000 1.0
C      1  0.5131280000000  0.5328590000000  0.4462860000000 1.0
C      1  0.5328580000000  0.4462860000000  0.5131270000000 1.0
C      1  0.4462860000000  0.5131270000000  0.5328580000000 1.0
C      1  0.5131270000000  0.4671410000000  0.5537140000000 1.0
C      1  0.4868730000000  0.5328580000000  0.5537140000000 1.0
C      1  0.4868720000000  0.4671420000000  0.4462860000000 1.0
C      1  0.5328590000000  0.5537140000000  0.4868730000000 1.0
C      1  0.4671410000000  0.4462860000000  0.4868720000000 1.0
C      1  0.4671420000000  0.5537140000000  0.5131280000000 1.0
C      1  0.4462860000000  0.4868730000000  0.4671420000000 1.0
C      1  0.5537140000000  0.5131270000000  0.4671420000000 1.0
C      1  0.5537140000000  0.4868720000000  0.5328580000000 1.0
C      1  0.4872660000000  0.4669800000000  0.5662480000000 1.0
C      1  0.5662490000000  0.4872660000000  0.4669800000000 1.0
C      1  0.4669810000000  0.5662490000000  0.4872670000000 1.0
C      1  0.4872670000000  0.5330200000000  0.4337520000000 1.0
C      1  0.5127340000000  0.5330190000000  0.5662490000000 1.0
C      1  0.5127330000000  0.4669810000000  0.4337510000000 1.0
C      1  0.5662490000000  0.5127330000000  0.5330200000000 1.0
C      1  0.4337510000000  0.5127340000000  0.4669800000000 1.0
C      1  0.4337510000000  0.4872670000000  0.5330190000000 1.0
C      1  0.4669800000000  0.4337510000000  0.5127330000000 1.0
C      1  0.5330190000000  0.4337510000000  0.4872660000000 1.0
C      1  0.5330200000000  0.5662480000000  0.5127340000000 1.0
C      1  0.4872670000000  0.5662490000000  0.4669810000000 1.0
C      1  0.5662480000000  0.4669800000000  0.4872660000000 1.0
C      1  0.4669800000000  0.4872660000000  0.5662490000000 1.0
C      1  0.4872660000000  0.4337510000000  0.5330190000000 1.0
C      1  0.5127340000000  0.5662480000000  0.5330200000000 1.0
C      1  0.5127330000000  0.4337520000000  0.4669800000000 1.0
C      1  0.5662490000000  0.5330190000000  0.5127340000000 1.0
C      1  0.4337510000000  0.4669810000000  0.5127330000000 1.0
C      1  0.4337520000000  0.5330200000000  0.4872670000000 1.0
C      1  0.4669800000000  0.5127340000000  0.4337510000000 1.0
C      1  0.5330200000000  0.4872670000000  0.4337510000000 1.0
C      1  0.5330200000000  0.5127330000000  0.5662490000000 1.0
C      1  0.5559640000000  0.4440350000000  0.4731650000000 1.0
C      1  0.5559650000000  0.4731650000000  0.4440350000000 1.0
C      1  0.4440360000000  0.5559650000000  0.4731650000000 1.0
C      1  0.4731650000000  0.4440350000000  0.5559640000000 1.0
C      1  0.5559650000000  0.5268340000000  0.5559650000000 1.0
C      1  0.4440350000000  0.5268350000000  0.4440350000000 1.0
C      1  0.4440350000000  0.4731650000000  0.5559640000000 1.0
C      1  0.4440350000000  0.4440350000000  0.5268340000000 1.0
C      1  0.4731650000000  0.5559650000000  0.4440360000000 1.0
C      1  0.5268350000000  0.5559640000000  0.5559650000000 1.0
C      1  0.5268350000000  0.4440360000000  0.4440350000000 1.0
C      1  0.5559650000000  0.5559640000000  0.5268350000000 1.0
END
