TITL C-2323486-8761-368 0.0998904812628327 125000 -351.901909838976 0 0 60 (C1) n - 1
REM
REM in /home/bkarasulu/CARBON/AIRSS/Generating-Clusters/LCBOP/Higher-Symm/Only-C60/SD-CG/FIRE-HFTN
REM
REM
REM
REM
REM
REM ./C.cell (50c204cfd26239f34c78669fe23a5462)
REM
REM compiler GCC version 9.2.1 20190827 (Red Hat 9.2.1-1)
REM options -cpp -mtune=generic -march=x86-64 -g -O0 -fpre-include=/usr/include/finclude/math-vector-fortran.h
REM seed 669284521 1485419755 -1890747433 307419963 1120753135 732485249 1753592141 1028144180 -431041730 -1381047689 2109161147 -1689754058 756958084 1954182340 -756951332 188018225 262442940 -229827689 -281696354 454786929 -1890129751 -822003559 -49470164 -69336638 -1855140069 -1995205982 1887495160 -514838684 -956087970 -626879968 -1398791470 1804024905 2097505114
REM
CELL 1.54180   50.00000   50.00000   50.00000   90.00000   90.00000   90.00000
LATT -1
SFAC C  
C      1  0.4817790000000  0.4827040000000  0.3389030000000 1.0
C      1  0.4049310000000  0.4904960000000  0.5171710000000 1.0
C      1  0.5403430000000  0.4790550000000  0.5367030000000 1.0
C      1  0.5174100000000  0.4650390000000  0.4935380000000 1.0
C      1  0.6203180000000  0.5874820000000  0.4161660000000 1.0
C      1  0.5245460000000  0.6312560000000  0.5794460000000 1.0
C      1  0.4808560000000  0.5076410000000  0.5478710000000 1.0
C      1  0.4835780000000  0.4365010000000  0.5590870000000 1.0
C      1  0.5012260000000  0.5390700000000  0.4480400000000 1.0
C      1  0.5004080000000  0.4221690000000  0.5442400000000 1.0
C      1  0.4696490000000  0.4589760000000  0.5622550000000 1.0
C      1  0.5433610000000  0.4202300000000  0.5193390000000 1.0
C      1  0.4737740000000  0.4415850000000  0.4949240000000 1.0
C      1  0.4861680000000  0.5111630000000  0.5200770000000 1.0
C      1  0.4806610000000  0.5736900000000  0.4746620000000 1.0
C      1  0.4631720000000  0.4643300000000  0.4821000000000 1.0
C      1  0.4919560000000  0.5057910000000  0.4138310000000 1.0
C      1  0.4193040000000  0.5113690000000  0.5091230000000 1.0
C      1  0.4720610000000  0.4906980000000  0.4783590000000 1.0
C      1  0.4669220000000  0.4848530000000  0.5565040000000 1.0
C      1  0.4102050000000  0.4395670000000  0.5222090000000 1.0
C      1  0.5135650000000  0.5099070000000  0.5118920000000 1.0
C      1  0.5639290000000  0.5803530000000  0.4711240000000 1.0
C      1  0.4407360000000  0.5988210000000  0.4848860000000 1.0
C      1  0.4425450000000  0.5243180000000  0.5004380000000 1.0
C      1  0.5262050000000  0.5327500000000  0.5021450000000 1.0
C      1  0.4305500000000  0.4234670000000  0.5159730000000 1.0
C      1  0.5828630000000  0.5828020000000  0.4527650000000 1.0
C      1  0.5258310000000  0.4839790000000  0.5131570000000 1.0
C      1  0.5020570000000  0.4416930000000  0.5004790000000 1.0
C      1  0.5161670000000  0.4748000000000  0.4664970000000 1.0
C      1  0.5365960000000  0.6080620000000  0.5338320000000 1.0
C      1  0.4988500000000  0.3695110000000  0.4943100000000 1.0
C      1  0.4975770000000  0.5206520000000  0.5671670000000 1.0
C      1  0.5056860000000  0.3925700000000  0.5053910000000 1.0
C      1  0.5134380000000  0.4187530000000  0.5172480000000 1.0
C      1  0.5553290000000  0.4195080000000  0.5446560000000 1.0
C      1  0.5664800000000  0.4192030000000  0.5682100000000 1.0
C      1  0.4427620000000  0.5513480000000  0.4934000000000 1.0
C      1  0.4551390000000  0.4235460000000  0.5055200000000 1.0
C      1  0.4885010000000  0.4981580000000  0.3887050000000 1.0
C      1  0.5385650000000  0.4901220000000  0.5611630000000 1.0
C      1  0.5306720000000  0.6199980000000  0.5567450000000 1.0
C      1  0.4917560000000  0.3469690000000  0.4833070000000 1.0
C      1  0.5586380000000  0.4210960000000  0.4965600000000 1.0
C      1  0.5030240000000  0.5581020000000  0.4684870000000 1.0
C      1  0.4012050000000  0.4646480000000  0.5223030000000 1.0
C      1  0.5412800000000  0.5944480000000  0.5115980000000 1.0
C      1  0.4543830000000  0.5751950000000  0.4843220000000 1.0
C      1  0.5247240000000  0.5561260000000  0.4867790000000 1.0
C      1  0.4840470000000  0.5681510000000  0.5885940000000 1.0
C      1  0.5434440000000  0.5771130000000  0.4898050000000 1.0
C      1  0.4851120000000  0.4903680000000  0.3635970000000 1.0
C      1  0.4960300000000  0.5126250000000  0.4405440000000 1.0
C      1  0.5342280000000  0.4669780000000  0.4475750000000 1.0
C      1  0.6017460000000  0.5851620000000  0.4343140000000 1.0
C      1  0.4946400000000  0.4930110000000  0.4608980000000 1.0
C      1  0.4903130000000  0.5447580000000  0.5789670000000 1.0
C      1  0.5220250000000  0.5077500000000  0.5728520000000 1.0
C      1  0.4667330000000  0.5095190000000  0.4992450000000 1.0
END
