TITL C-2323478-8180-362 49.9676188410982 125000 -349.463735749446 0 0 60 (C1) n - 1
REM
REM in /home/bkarasulu/CARBON/AIRSS/Generating-Clusters/LCBOP/Higher-Symm/Only-C60/SD-CG/FIRE-HFTN
REM
REM
REM
REM
REM
REM ./C.cell (50c204cfd26239f34c78669fe23a5462)
REM
REM compiler GCC version 9.2.1 20190827 (Red Hat 9.2.1-1)
REM options -cpp -mtune=generic -march=x86-64 -g -O0 -fpre-include=/usr/include/finclude/math-vector-fortran.h
REM seed -820216603 840038180 1253388790 1977872508 44370496 876615006 1610476036 -1969915997 427483839 -1811309042 1153638278 288513645 -1813205140 819243110 -864733913 -436283420 1477868043 -1289147791 -614425208 -947245440 -712384671 1317259004 -1385973758 -153990202 676628615 1644282873 126577140 365528553 1397044012 -1508362655 228077346 715962374 887275752
REM
CELL 1.54180   50.00000   50.00000   50.00000   90.00000   90.00000   90.00000
LATT -1
SFAC C  
C      1  0.4408660000000  0.4365530000000  0.3917170000000 1.0
C      1  0.4874090000000  0.4711750000000  0.5931350000000 1.0
C      1  0.4829480000000  0.5943260000000  0.4843380000000 1.0
C      1  0.4581680000000  0.5072140000000  0.4092340000000 1.0
C      1  0.4147540000000  0.6057510000000  0.4562300000000 1.0
C      1  0.5207510000000  0.5899260000000  0.5146110000000 1.0
C      1  0.5055660000000  0.5805010000000  0.4931370000000 1.0
C      1  0.5080240000000  0.4953280000000  0.5184460000000 1.0
C      1  0.5041880000000  0.5494430000000  0.4553460000000 1.0
C      1  0.6488010000000  0.4732140000000  0.6332490000000 1.0
C      1  0.5830650000000  0.4933540000000  0.5933640000000 1.0
C      1  0.5740910000000  0.5096270000000  0.5312250000000 1.0
C      1  0.5610900000000  0.5008240000000  0.5778400000000 1.0
C      1  0.4220650000000  0.4184670000000  0.3977010000000 1.0
C      1  0.4116340000000  0.4920950000000  0.4125070000000 1.0
C      1  0.4489190000000  0.4871440000000  0.4909340000000 1.0
C      1  0.3817510000000  0.3961700000000  0.4145740000000 1.0
C      1  0.3951550000000  0.4703870000000  0.4192250000000 1.0
C      1  0.6268350000000  0.4799050000000  0.6200220000000 1.0
C      1  0.4632740000000  0.4605160000000  0.5956680000000 1.0
C      1  0.3969940000000  0.4190410000000  0.4104960000000 1.0
C      1  0.5645580000000  0.5189800000000  0.5563210000000 1.0
C      1  0.4394330000000  0.4500720000000  0.5971410000000 1.0
C      1  0.4453250000000  0.4958340000000  0.5384600000000 1.0
C      1  0.4469310000000  0.4409180000000  0.4631210000000 1.0
C      1  0.4462510000000  0.4625250000000  0.3945740000000 1.0
C      1  0.4388970000000  0.5108820000000  0.4801330000000 1.0
C      1  0.3886020000000  0.4445480000000  0.4188610000000 1.0
C      1  0.3674760000000  0.3747130000000  0.4184530000000 1.0
C      1  0.4332150000000  0.5882640000000  0.4661820000000 1.0
C      1  0.5242700000000  0.5353080000000  0.4968410000000 1.0
C      1  0.4600590000000  0.4870510000000  0.5171130000000 1.0
C      1  0.5357430000000  0.4905210000000  0.5833910000000 1.0
C      1  0.5115660000000  0.4811700000000  0.5888150000000 1.0
C      1  0.3917610000000  0.5422750000000  0.4115870000000 1.0
C      1  0.6278410000000  0.4821880000000  0.4936230000000 1.0
C      1  0.5119210000000  0.5552400000000  0.4815740000000 1.0
C      1  0.6018480000000  0.5089090000000  0.5267940000000 1.0
C      1  0.4758100000000  0.5244120000000  0.4189700000000 1.0
C      1  0.4012400000000  0.5180150000000  0.4124870000000 1.0
C      1  0.4910390000000  0.4512490000000  0.5270490000000 1.0
C      1  0.6923830000000  0.4599370000000  0.6594900000000 1.0
C      1  0.5835060000000  0.4693670000000  0.4781970000000 1.0
C      1  0.4865960000000  0.4775680000000  0.5209940000000 1.0
C      1  0.6707730000000  0.4665200000000  0.6464780000000 1.0
C      1  0.6048710000000  0.4865980000000  0.6067930000000 1.0
C      1  0.4476730000000  0.4634690000000  0.4761600000000 1.0
C      1  0.5359180000000  0.5859630000000  0.5360410000000 1.0
C      1  0.4306140000000  0.5349690000000  0.4728460000000 1.0
C      1  0.4277800000000  0.5608520000000  0.4678830000000 1.0
C      1  0.5558930000000  0.5006650000000  0.5109900000000 1.0
C      1  0.6103710000000  0.4689680000000  0.4779610000000 1.0
C      1  0.5492570000000  0.5698400000000  0.5523840000000 1.0
C      1  0.5294010000000  0.5108410000000  0.5093260000000 1.0
C      1  0.5641750000000  0.4817660000000  0.4918680000000 1.0
C      1  0.4916440000000  0.5389010000000  0.4345220000000 1.0
C      1  0.4388690000000  0.4874850000000  0.4050720000000 1.0
C      1  0.5587200000000  0.5461070000000  0.5595180000000 1.0
C      1  0.6231450000000  0.4990820000000  0.5139830000000 1.0
C      1  0.4582770000000  0.5970690000000  0.4750060000000 1.0
END
