TITL C-2323492-8884-384 -2.95875250736377e-07 125000 -360.329901707572 0 0 60 (C1) n - 1
REM
REM in /home/bkarasulu/CARBON/AIRSS/Generating-Clusters/LCBOP/Higher-Symm/Only-C60/SD-CG/FIRE-HFTN
REM
REM
REM
REM
REM
REM ./C.cell (50c204cfd26239f34c78669fe23a5462)
REM
REM compiler GCC version 9.2.1 20190827 (Red Hat 9.2.1-1)
REM options -cpp -mtune=generic -march=x86-64 -g -O0 -fpre-include=/usr/include/finclude/math-vector-fortran.h
REM seed 2118593754 2112722857 1935548571 870838999 -1178207886 298611991 -1906964512 21224938 494518249 1898915563 452990954 -477168104 -1588697147 -82890720 1238094971 1630125242 2138460357 -1270374765 262376303 1944000846 -793998745 691158669 -774662947 763479935 1170037089 -1316425009 1918971757 -1757965923 1500083439 -609202648 558093545 -50170366 662584463
REM
CELL 1.54180   50.00000   50.00000   50.00000   90.00000   90.00000   90.00000
LATT -1
SFAC C  
C      1  0.5229350000000  0.4932910000000  0.5790010000000 1.0
C      1  0.4972410000000  0.5749160000000  0.5280330000000 1.0
C      1  0.5752260000000  0.5299000000000  0.4883690000000 1.0
C      1  0.4689180000000  0.5122660000000  0.5716400000000 1.0
C      1  0.5134310000000  0.5092190000000  0.4263920000000 1.0
C      1  0.4691240000000  0.4767270000000  0.4384510000000 1.0
C      1  0.5176910000000  0.4354290000000  0.5181050000000 1.0
C      1  0.4856340000000  0.4262260000000  0.4739830000000 1.0
C      1  0.5208960000000  0.5636920000000  0.4780900000000 1.0
C      1  0.4101920000000  0.4842010000000  0.4719780000000 1.0
C      1  0.5709260000000  0.4794050000000  0.5137600000000 1.0
C      1  0.4400430000000  0.5090050000000  0.5114810000000 1.0
C      1  0.5182270000000  0.4818890000000  0.4348580000000 1.0
C      1  0.4933650000000  0.5723970000000  0.4827300000000 1.0
C      1  0.5708330000000  0.5254290000000  0.5169570000000 1.0
C      1  0.4683730000000  0.5050960000000  0.4326840000000 1.0
C      1  0.5136420000000  0.5211850000000  0.5789910000000 1.0
C      1  0.4784990000000  0.4833330000000  0.5724310000000 1.0
C      1  0.5146880000000  0.4303550000000  0.4725610000000 1.0
C      1  0.4884570000000  0.4321720000000  0.5189970000000 1.0
C      1  0.5248570000000  0.5649140000000  0.5261530000000 1.0
C      1  0.4025230000000  0.4802820000000  0.4991880000000 1.0
C      1  0.5755060000000  0.4842710000000  0.4843000000000 1.0
C      1  0.4397900000000  0.5207160000000  0.4850480000000 1.0
C      1  0.5403060000000  0.4843110000000  0.5240950000000 1.0
C      1  0.4778500000000  0.5264680000000  0.5430070000000 1.0
C      1  0.5274740000000  0.5391800000000  0.4649600000000 1.0
C      1  0.4651120000000  0.5052340000000  0.5238770000000 1.0
C      1  0.5509500000000  0.5239330000000  0.4713530000000 1.0
C      1  0.4265030000000  0.4648080000000  0.4597260000000 1.0
C      1  0.5226030000000  0.4815700000000  0.5508470000000 1.0
C      1  0.4545890000000  0.4632480000000  0.4586180000000 1.0
C      1  0.5073470000000  0.5269430000000  0.4493930000000 1.0
C      1  0.4696350000000  0.4510410000000  0.4791800000000 1.0
C      1  0.5265300000000  0.4622410000000  0.5067100000000 1.0
C      1  0.4770470000000  0.5520970000000  0.5238490000000 1.0
C      1  0.5524660000000  0.4942830000000  0.4685230000000 1.0
C      1  0.4781750000000  0.5233410000000  0.4541530000000 1.0
C      1  0.5276360000000  0.5381490000000  0.5347550000000 1.0
C      1  0.4636570000000  0.5328100000000  0.4763910000000 1.0
C      1  0.5437850000000  0.5186090000000  0.5241240000000 1.0
C      1  0.4773650000000  0.4795810000000  0.5240880000000 1.0
C      1  0.5328300000000  0.4770450000000  0.4586540000000 1.0
C      1  0.4929600000000  0.4761720000000  0.5474710000000 1.0
C      1  0.5080750000000  0.5298250000000  0.5519830000000 1.0
C      1  0.4741950000000  0.4566130000000  0.5080210000000 1.0
C      1  0.5239890000000  0.4580120000000  0.4772880000000 1.0
C      1  0.4753980000000  0.5515520000000  0.4936840000000 1.0
C      1  0.5273580000000  0.4169490000000  0.4963410000000 1.0
C      1  0.4919630000000  0.5924220000000  0.5046560000000 1.0
C      1  0.5857080000000  0.5019340000000  0.5272510000000 1.0
C      1  0.4871800000000  0.5255580000000  0.5916070000000 1.0
C      1  0.5369300000000  0.5708350000000  0.5008650000000 1.0
C      1  0.4172120000000  0.4933030000000  0.5181940000000 1.0
C      1  0.5939370000000  0.5075120000000  0.4805780000000 1.0
C      1  0.4193300000000  0.5110740000000  0.4678880000000 1.0
C      1  0.5000910000000  0.4787620000000  0.5923050000000 1.0
C      1  0.4947320000000  0.4657110000000  0.4309340000000 1.0
C      1  0.4880740000000  0.5111160000000  0.4110190000000 1.0
C      1  0.4799900000000  0.4114400000000  0.4994320000000 1.0
END
