TITL C-2323485-8600-378 0.0170691230076362 125000 -357.436366349746 0 0 60 (C3) n - 1
REM
REM in /home/bkarasulu/CARBON/AIRSS/Generating-Clusters/LCBOP/Higher-Symm/Only-C60/SD-CG/FIRE-HFTN
REM
REM
REM
REM
REM
REM ./C.cell (50c204cfd26239f34c78669fe23a5462)
REM
REM compiler GCC version 9.2.1 20190827 (Red Hat 9.2.1-1)
REM options -cpp -mtune=generic -march=x86-64 -g -O0 -fpre-include=/usr/include/finclude/math-vector-fortran.h
REM seed -600786603 1772996923 970212967 -858154934 1526756234 1832039254 1674152530 -1408698070 55440202 -1515290826 -1278068677 -1248194696 1443871636 -162761420 -509850020 624453302 1159116745 78783971 -1413322938 -1723503588 1426876888 691112716 2109977529 -535165185 -1357053051 -895289655 -1304859583 -1884643503 -1311881898 -1261526065 -1322712950 -929332820 358821508
REM
CELL 1.54180   50.00000   50.00000   50.00000   90.00000   90.00000   90.00000
LATT -1
SFAC C  
C      1  0.4691300000000  0.3994500000000  0.4844810000000 1.0
C      1  0.4282030000000  0.5771070000000  0.4851690000000 1.0
C      1  0.6026750000000  0.5235140000000  0.4846170000000 1.0
C      1  0.4776430000000  0.5912930000000  0.5265410000000 1.0
C      1  0.4318230000000  0.4346920000000  0.5259950000000 1.0
C      1  0.5905140000000  0.4740290000000  0.5266130000000 1.0
C      1  0.4884840000000  0.4663790000000  0.4818720000000 1.0
C      1  0.4766870000000  0.5267920000000  0.4819700000000 1.0
C      1  0.5348610000000  0.5066220000000  0.4817450000000 1.0
C      1  0.4730770000000  0.5194910000000  0.5070730000000 1.0
C      1  0.4966110000000  0.4668360000000  0.5069830000000 1.0
C      1  0.5304350000000  0.5135110000000  0.5068450000000 1.0
C      1  0.4227390000000  0.5698850000000  0.5104780000000 1.0
C      1  0.5991780000000  0.5321290000000  0.5098360000000 1.0
C      1  0.4780300000000  0.3981790000000  0.5098120000000 1.0
C      1  0.4261090000000  0.4396470000000  0.5002390000000 1.0
C      1  0.5892090000000  0.4663350000000  0.5009300000000 1.0
C      1  0.4846800000000  0.5939030000000  0.5007700000000 1.0
C      1  0.4392560000000  0.5327560000000  0.5372000000000 1.0
C      1  0.5588570000000  0.5365980000000  0.5366590000000 1.0
C      1  0.5017360000000  0.4307900000000  0.5370230000000 1.0
C      1  0.4449240000000  0.4647030000000  0.4627950000000 1.0
C      1  0.5584180000000  0.4696530000000  0.4631890000000 1.0
C      1  0.4967180000000  0.5655160000000  0.4629050000000 1.0
C      1  0.4589380000000  0.5780490000000  0.5406170000000 1.0
C      1  0.5883430000000  0.4970100000000  0.5404150000000 1.0
C      1  0.4526420000000  0.4251110000000  0.5400700000000 1.0
C      1  0.4540920000000  0.4160260000000  0.4695710000000 1.0
C      1  0.5958980000000  0.5020440000000  0.4699110000000 1.0
C      1  0.4500240000000  0.5818530000000  0.4701850000000 1.0
C      1  0.4167720000000  0.5173970000000  0.5299080000000 1.0
C      1  0.5567820000000  0.5637260000000  0.5293140000000 1.0
C      1  0.5263520000000  0.4189650000000  0.5300540000000 1.0
C      1  0.4248500000000  0.4842380000000  0.4650990000000 1.0
C      1  0.5516690000000  0.4424720000000  0.4655200000000 1.0
C      1  0.5236530000000  0.5732970000000  0.4648090000000 1.0
C      1  0.4999940000000  0.4788950000000  0.5527980000000 1.0
C      1  0.4818270000000  0.5099990000000  0.5527520000000 1.0
C      1  0.5178250000000  0.5116130000000  0.5526240000000 1.0
C      1  0.4958680000000  0.5207180000000  0.4393260000000 1.0
C      1  0.4842380000000  0.4865130000000  0.4394320000000 1.0
C      1  0.5199370000000  0.4921850000000  0.4393530000000 1.0
C      1  0.4780240000000  0.4155240000000  0.5322830000000 1.0
C      1  0.4378630000000  0.5609780000000  0.5327870000000 1.0
C      1  0.5839910000000  0.5236870000000  0.5322810000000 1.0
C      1  0.4776820000000  0.5827450000000  0.4756510000000 1.0
C      1  0.4394140000000  0.4394500000000  0.4751920000000 1.0
C      1  0.5829070000000  0.4776890000000  0.4757170000000 1.0
C      1  0.4997280000000  0.4591470000000  0.5337800000000 1.0
C      1  0.4648430000000  0.5203970000000  0.5338770000000 1.0
C      1  0.5353460000000  0.5205900000000  0.5335430000000 1.0
C      1  0.4895040000000  0.5380590000000  0.4596620000000 1.0
C      1  0.4723460000000  0.4720790000000  0.4595930000000 1.0
C      1  0.5382390000000  0.4895860000000  0.4596690000000 1.0
C      1  0.5476940000000  0.4230910000000  0.4834570000000 1.0
C      1  0.4100010000000  0.4973000000000  0.4830490000000 1.0
C      1  0.5425680000000  0.5796850000000  0.4825480000000 1.0
C      1  0.5523740000000  0.5782690000000  0.5073110000000 1.0
C      1  0.4063850000000  0.5063480000000  0.5078780000000 1.0
C      1  0.5413930000000  0.4154550000000  0.5082220000000 1.0
END
