TITL C-2323477-5056-541 0.0153268875299984 125000 -346.332777654846 0 0 60 (C1) n - 1
REM
REM in /home/bkarasulu/CARBON/AIRSS/Generating-Clusters/LCBOP/Higher-Symm/Only-C60/SD-CG/FIRE-HFTN
REM
REM
REM
REM
REM
REM ./C.cell (50c204cfd26239f34c78669fe23a5462)
REM
REM compiler GCC version 9.2.1 20190827 (Red Hat 9.2.1-1)
REM options -cpp -mtune=generic -march=x86-64 -g -O0 -fpre-include=/usr/include/finclude/math-vector-fortran.h
REM seed -796884192 -1789481510 -914341857 189682048 2098543495 -1645348544 1932695650 -1096137910 -458046622 1749468232 240910199 1762842786 -426657161 1739592423 -278136825 128612435 -1777102676 1123751611 1780137864 -1084155574 -1876042251 -99791522 1082267615 -1773643458 2002625123 1436367663 454146412 -925710285 1762585324 1813419571 1531879344 -862459136 2120485680
REM
CELL 1.54180   50.00000   50.00000   50.00000   90.00000   90.00000   90.00000
LATT -1
SFAC C  
C      1  0.4536730000000  0.4578350000000  0.5286590000000 1.0
C      1  0.5513100000000  0.5346620000000  0.4575630000000 1.0
C      1  0.5357480000000  0.5236470000000  0.5140650000000 1.0
C      1  0.4370580000000  0.5348450000000  0.4881450000000 1.0
C      1  0.5292490000000  0.4322690000000  0.4651220000000 1.0
C      1  0.5375420000000  0.4668240000000  0.5187210000000 1.0
C      1  0.5137400000000  0.4956040000000  0.4726030000000 1.0
C      1  0.4469280000000  0.4584390000000  0.4994460000000 1.0
C      1  0.5491940000000  0.5399420000000  0.4824820000000 1.0
C      1  0.5566100000000  0.4378610000000  0.4626440000000 1.0
C      1  0.4435480000000  0.5225480000000  0.4377970000000 1.0
C      1  0.4748320000000  0.5208390000000  0.5683710000000 1.0
C      1  0.4874630000000  0.5706430000000  0.5446640000000 1.0
C      1  0.4929400000000  0.5036890000000  0.4278240000000 1.0
C      1  0.4604150000000  0.5590900000000  0.5469010000000 1.0
C      1  0.5879880000000  0.4752880000000  0.4767050000000 1.0
C      1  0.4806150000000  0.5396100000000  0.5077390000000 1.0
C      1  0.5480940000000  0.5429280000000  0.5345700000000 1.0
C      1  0.4541800000000  0.4842250000000  0.5400440000000 1.0
C      1  0.4923700000000  0.5683190000000  0.4719870000000 1.0
C      1  0.4917560000000  0.5398960000000  0.4633920000000 1.0
C      1  0.4530770000000  0.5308730000000  0.5515540000000 1.0
C      1  0.5795290000000  0.4848640000000  0.5017980000000 1.0
C      1  0.4441780000000  0.5099290000000  0.5041810000000 1.0
C      1  0.5149350000000  0.4289690000000  0.4899070000000 1.0
C      1  0.5239940000000  0.4385630000000  0.5157950000000 1.0
C      1  0.4314410000000  0.5323850000000  0.4602240000000 1.0
C      1  0.5128240000000  0.4365050000000  0.4424060000000 1.0
C      1  0.5402360000000  0.5181780000000  0.4392930000000 1.0
C      1  0.4649370000000  0.5753430000000  0.4785810000000 1.0
C      1  0.5683880000000  0.5095870000000  0.5071280000000 1.0
C      1  0.4760480000000  0.5113650000000  0.5035930000000 1.0
C      1  0.5289910000000  0.4817840000000  0.5448680000000 1.0
C      1  0.4808850000000  0.4473680000000  0.5297760000000 1.0
C      1  0.5774000000000  0.4547230000000  0.4628580000000 1.0
C      1  0.4415860000000  0.5092540000000  0.5349390000000 1.0
C      1  0.5080900000000  0.5540420000000  0.5574270000000 1.0
C      1  0.5079180000000  0.5725110000000  0.4973010000000 1.0
C      1  0.4654910000000  0.4879750000000  0.4618590000000 1.0
C      1  0.5129420000000  0.5068370000000  0.5383720000000 1.0
C      1  0.4647220000000  0.4433070000000  0.4812440000000 1.0
C      1  0.5286560000000  0.4926910000000  0.4953550000000 1.0
C      1  0.4880360000000  0.4951240000000  0.5241180000000 1.0
C      1  0.4568650000000  0.5544000000000  0.4964150000000 1.0
C      1  0.5669870000000  0.4648440000000  0.5173510000000 1.0
C      1  0.5177320000000  0.5016440000000  0.4437780000000 1.0
C      1  0.4934460000000  0.4689480000000  0.5147750000000 1.0
C      1  0.4412780000000  0.4840880000000  0.4887110000000 1.0
C      1  0.4888370000000  0.4481830000000  0.4390010000000 1.0
C      1  0.5147050000000  0.4398490000000  0.5641130000000 1.0
C      1  0.5086170000000  0.5450670000000  0.5066720000000 1.0
C      1  0.4971130000000  0.5859770000000  0.5213170000000 1.0
C      1  0.5015790000000  0.5257860000000  0.5595270000000 1.0
C      1  0.4859640000000  0.5060600000000  0.4764310000000 1.0
C      1  0.5255750000000  0.4646910000000  0.5674000000000 1.0
C      1  0.4645740000000  0.5034370000000  0.4359190000000 1.0
C      1  0.4861040000000  0.4253690000000  0.4877390000000 1.0
C      1  0.4708410000000  0.4590170000000  0.4576230000000 1.0
C      1  0.5355460000000  0.5583770000000  0.5528290000000 1.0
C      1  0.5046800000000  0.4330830000000  0.5383770000000 1.0
END
