TITL C-2323482-8828-75 1.65170764332223e-06 125000 -367.339294641708 0 0 60 (C5) n - 1
REM
REM in /home/bkarasulu/CARBON/AIRSS/Generating-Clusters/LCBOP/Higher-Symm/Only-C60/SD-CG/FIRE-HFTN
REM
REM
REM
REM
REM
REM ./C.cell (50c204cfd26239f34c78669fe23a5462)
REM
REM compiler GCC version 9.2.1 20190827 (Red Hat 9.2.1-1)
REM options -cpp -mtune=generic -march=x86-64 -g -O0 -fpre-include=/usr/include/finclude/math-vector-fortran.h
REM seed 720347234 -1278507164 1640204395 38899419 222407999 -2008443015 -1356522386 209837235 1624886671 -1481509632 -751762172 79882572 -995685913 -1666420493 -594597980 -1645390867 -52761018 -51356303 -322323618 -1309072587 128755745 916312996 2108455581 1929004604 -322813084 -1648162983 -1836921244 1158243114 -278589164 1728323517 666793402 2079306398 -311987030
REM
CELL 1.54180   50.00000   50.00000   50.00000   90.00000   90.00000   90.00000
LATT -1
SFAC C  
C      1  0.5365650000000  0.4672980000000  0.5640360000000 1.0
C      1  0.5365700000000  0.4289950000000  0.4886850000000 1.0
C      1  0.5365670000000  0.4888230000000  0.4289720000000 1.0
C      1  0.5365600000000  0.5641000000000  0.4674190000000 1.0
C      1  0.5365590000000  0.5507980000000  0.5508930000000 1.0
C      1  0.5118840000000  0.5675400000000  0.4814340000000 1.0
C      1  0.5118840000000  0.5385290000000  0.5584960000000 1.0
C      1  0.5118900000000  0.4562740000000  0.5547190000000 1.0
C      1  0.5118940000000  0.4344480000000  0.4753220000000 1.0
C      1  0.5118900000000  0.5032140000000  0.4300300000000 1.0
C      1  0.4867080000000  0.5742440000000  0.4418590000000 1.0
C      1  0.4867040000000  0.5782380000000  0.5526450000000 1.0
C      1  0.4867110000000  0.4741080000000  0.5906770000000 1.0
C      1  0.4867190000000  0.4057590000000  0.5033960000000 1.0
C      1  0.4867170000000  0.4676470000000  0.4114210000000 1.0
C      1  0.5103680000000  0.3954060000000  0.5123500000000 1.0
C      1  0.5103660000000  0.4559340000000  0.4043410000000 1.0
C      1  0.5103570000000  0.5773610000000  0.4285300000000 1.0
C      1  0.5103520000000  0.5918780000000  0.5514890000000 1.0
C      1  0.5103590000000  0.4794240000000  0.6032920000000 1.0
C      1  0.4814710000000  0.5167100000000  0.5180490000000 1.0
C      1  0.4814730000000  0.4879970000000  0.5214700000000 1.0
C      1  0.4814740000000  0.4758700000000  0.4952200000000 1.0
C      1  0.4814730000000  0.4970880000000  0.4755750000000 1.0
C      1  0.4814710000000  0.5223280000000  0.4896840000000 1.0
C      1  0.5558410000000  0.4756140000000  0.5457160000000 1.0
C      1  0.5558450000000  0.4489900000000  0.4909320000000 1.0
C      1  0.5558430000000  0.4928660000000  0.4486810000000 1.0
C      1  0.5558380000000  0.5466070000000  0.4773540000000 1.0
C      1  0.5558370000000  0.5359450000000  0.5373250000000 1.0
C      1  0.4248940000000  0.5227300000000  0.4896320000000 1.0
C      1  0.4248940000000  0.5168790000000  0.5184180000000 1.0
C      1  0.4248960000000  0.4876940000000  0.5217480000000 1.0
C      1  0.4248970000000  0.4755080000000  0.4950210000000 1.0
C      1  0.4248960000000  0.4971610000000  0.4751720000000 1.0
C      1  0.5620360000000  0.5171150000000  0.5178160000000 1.0
C      1  0.5620390000000  0.4883500000000  0.5217790000000 1.0
C      1  0.5620400000000  0.4756920000000  0.4956470000000 1.0
C      1  0.5620390000000  0.4966330000000  0.4755330000000 1.0
C      1  0.5620370000000  0.5222340000000  0.4892340000000 1.0
C      1  0.5345670000000  0.5792510000000  0.5506310000000 1.0
C      1  0.5345730000000  0.4763400000000  0.5910160000000 1.0
C      1  0.5345810000000  0.4061300000000  0.5056220000000 1.0
C      1  0.5345790000000  0.4656490000000  0.4124590000000 1.0
C      1  0.5345700000000  0.5726440000000  0.4402770000000 1.0
C      1  0.4406040000000  0.4760710000000  0.5423380000000 1.0
C      1  0.4406070000000  0.4523350000000  0.4903290000000 1.0
C      1  0.4406050000000  0.4944640000000  0.4516830000000 1.0
C      1  0.4406000000000  0.5442370000000  0.4798070000000 1.0
C      1  0.4406000000000  0.5328700000000  0.5358350000000 1.0
C      1  0.4688910000000  0.4755670000000  0.5437500000000 1.0
C      1  0.4688940000000  0.4508390000000  0.4902840000000 1.0
C      1  0.4688920000000  0.4940460000000  0.4502440000000 1.0
C      1  0.4688870000000  0.5454790000000  0.4789640000000 1.0
C      1  0.4688870000000  0.5340580000000  0.5367540000000 1.0
C      1  0.4861560000000  0.5651830000000  0.4688700000000 1.0
C      1  0.4861550000000  0.5497480000000  0.5523730000000 1.0
C      1  0.4861610000000  0.4655620000000  0.5634980000000 1.0
C      1  0.4861660000000  0.4289670000000  0.4868700000000 1.0
C      1  0.4861630000000  0.4905360000000  0.4283870000000 1.0
END
