TITL C-2323481-8605-248 8.87435698548222e-06 125000 -359.527610305665 0 0 60 (D3) n - 1
REM
REM in /home/bkarasulu/CARBON/AIRSS/Generating-Clusters/LCBOP/Higher-Symm/Only-C60/SD-CG/FIRE-HFTN
REM
REM
REM
REM
REM
REM ./C.cell (50c204cfd26239f34c78669fe23a5462)
REM
REM compiler GCC version 9.2.1 20190827 (Red Hat 9.2.1-1)
REM options -cpp -mtune=generic -march=x86-64 -g -O0 -fpre-include=/usr/include/finclude/math-vector-fortran.h
REM seed -521657608 1472257455 1730064307 215680514 554000203 1933443394 -7060892 -1216484652 -1540376970 -1408754525 -565842566 871429366 -1827615337 -1740225675 -394474737 -1131756105 -1644825421 877795368 -412108762 -347788380 1485516269 -480817949 -1180903070 -1726485620 -1729794916 1627521939 -522551792 -1285245008 -929126527 2037896939 1678040666 654759052 -688646652
REM
CELL 1.54180   50.00000   50.00000   50.00000   90.00000   90.00000   90.00000
LATT -1
SFAC C  
C      1  0.4739880000000  0.5180510000000  0.5672670000000 1.0
C      1  0.4973730000000  0.4684430000000  0.5672650000000 1.0
C      1  0.5286430000000  0.5134990000000  0.5672660000000 1.0
C      1  0.5260120000000  0.5180560000000  0.4327340000000 1.0
C      1  0.5026270000000  0.4684470000000  0.4327330000000 1.0
C      1  0.4713570000000  0.5135040000000  0.4327350000000 1.0
C      1  0.5872010000000  0.4820880000000  0.4940240000000 1.0
C      1  0.4719120000000  0.5844750000000  0.4940290000000 1.0
C      1  0.4408870000000  0.4334380000000  0.4940250000000 1.0
C      1  0.4127990000000  0.4820870000000  0.5059750000000 1.0
C      1  0.5280880000000  0.5844740000000  0.5059770000000 1.0
C      1  0.5591130000000  0.4334380000000  0.5059710000000 1.0
C      1  0.5221940000000  0.4676790000000  0.5533540000000 1.0
C      1  0.5168940000000  0.5353780000000  0.5533560000000 1.0
C      1  0.4609150000000  0.4969380000000  0.5533560000000 1.0
C      1  0.4778060000000  0.4676820000000  0.4466440000000 1.0
C      1  0.4831060000000  0.5353810000000  0.4466460000000 1.0
C      1  0.5390850000000  0.4969420000000  0.4466440000000 1.0
C      1  0.4746630000000  0.5471750000000  0.5278910000000 1.0
C      1  0.4718140000000  0.4544680000000  0.5278880000000 1.0
C      1  0.5535250000000  0.4983540000000  0.5278880000000 1.0
C      1  0.5253370000000  0.5471770000000  0.4721120000000 1.0
C      1  0.5281860000000  0.4544700000000  0.4721090000000 1.0
C      1  0.4464750000000  0.4983560000000  0.4721120000000 1.0
C      1  0.5557870000000  0.4067300000000  0.5098520000000 1.0
C      1  0.5528800000000  0.5949470000000  0.5098580000000 1.0
C      1  0.3913330000000  0.4983220000000  0.5098580000000 1.0
C      1  0.4442130000000  0.4067310000000  0.4901420000000 1.0
C      1  0.4471190000000  0.5949470000000  0.4901480000000 1.0
C      1  0.6086670000000  0.4983230000000  0.4901420000000 1.0
C      1  0.4234760000000  0.4641090000000  0.5255590000000 1.0
C      1  0.5693440000000  0.4516720000000  0.5255560000000 1.0
C      1  0.5071810000000  0.5842160000000  0.5255620000000 1.0
C      1  0.5765240000000  0.4641110000000  0.4744380000000 1.0
C      1  0.4306560000000  0.4516730000000  0.4744410000000 1.0
C      1  0.4928180000000  0.5842180000000  0.4744440000000 1.0
C      1  0.5264610000000  0.4714500000000  0.4481850000000 1.0
C      1  0.5114940000000  0.5371940000000  0.4481870000000 1.0
C      1  0.4620420000000  0.4913610000000  0.4481870000000 1.0
C      1  0.4735390000000  0.4714470000000  0.5518130000000 1.0
C      1  0.4885060000000  0.5371900000000  0.5518150000000 1.0
C      1  0.5379580000000  0.4913580000000  0.5518130000000 1.0
C      1  0.5198810000000  0.4504210000000  0.5312170000000 1.0
C      1  0.5329960000000  0.5420050000000  0.5312190000000 1.0
C      1  0.4471250000000  0.5075700000000  0.5312200000000 1.0
C      1  0.4801190000000  0.4504230000000  0.4687800000000 1.0
C      1  0.4670040000000  0.5420070000000  0.4687830000000 1.0
C      1  0.5528750000000  0.5075730000000  0.4687810000000 1.0
C      1  0.4973440000000  0.4491920000000  0.5140710000000 1.0
C      1  0.5453290000000  0.5231040000000  0.5140730000000 1.0
C      1  0.4573270000000  0.5277040000000  0.5140750000000 1.0
C      1  0.5026560000000  0.4491920000000  0.4859250000000 1.0
C      1  0.4546710000000  0.5231040000000  0.4859280000000 1.0
C      1  0.5426730000000  0.5277050000000  0.4859270000000 1.0
C      1  0.5186990000000  0.5734720000000  0.4811130000000 1.0
C      1  0.4270220000000  0.4794590000000  0.4811110000000 1.0
C      1  0.5542780000000  0.4470710000000  0.4811080000000 1.0
C      1  0.4813010000000  0.5734710000000  0.5188920000000 1.0
C      1  0.5729780000000  0.4794580000000  0.5188870000000 1.0
C      1  0.4457220000000  0.4470700000000  0.5188890000000 1.0
END
