TITL C-2323487-9546-142 -1.89148739851772e-06 125000 -350.482709670526 0 0 60 (C1) n - 1
REM
REM in /home/bkarasulu/CARBON/AIRSS/Generating-Clusters/LCBOP/Higher-Symm/Only-C60/SD-CG/FIRE-HFTN
REM
REM
REM
REM
REM
REM ./C.cell (50c204cfd26239f34c78669fe23a5462)
REM
REM compiler GCC version 9.2.1 20190827 (Red Hat 9.2.1-1)
REM options -cpp -mtune=generic -march=x86-64 -g -O0 -fpre-include=/usr/include/finclude/math-vector-fortran.h
REM seed 1680596276 575756874 -1775039108 -1626287715 -59894918 -457754176 716940895 205071663 -1561103264 -6792924 1815756754 -1079602387 -569106388 -1311439173 672129965 531692964 -85979944 1561054134 -827516930 -951128949 21865100 418186100 -1898461959 -473166027 -1585481126 -1696622107 669346066 999839472 1925680288 644227439 -178178996 -250155511 -1524250334
REM
CELL 1.54180   50.00000   50.00000   50.00000   90.00000   90.00000   90.00000
LATT -1
SFAC C  
C      1  0.4801250000000  0.5936400000000  0.4739460000000 1.0
C      1  0.5598310000000  0.4561130000000  0.4796250000000 1.0
C      1  0.5328580000000  0.4655210000000  0.5471030000000 1.0
C      1  0.4511980000000  0.5097710000000  0.5202950000000 1.0
C      1  0.5403640000000  0.5095890000000  0.4624590000000 1.0
C      1  0.4917190000000  0.5145020000000  0.4746360000000 1.0
C      1  0.5172400000000  0.4665910000000  0.4688630000000 1.0
C      1  0.5286450000000  0.4903040000000  0.4807610000000 1.0
C      1  0.5169330000000  0.4893380000000  0.5478250000000 1.0
C      1  0.5067280000000  0.4982140000000  0.5231860000000 1.0
C      1  0.4837620000000  0.5377890000000  0.4885980000000 1.0
C      1  0.4721230000000  0.5209120000000  0.5883850000000 1.0
C      1  0.5149260000000  0.4425760000000  0.5492710000000 1.0
C      1  0.5252890000000  0.5011300000000  0.4381280000000 1.0
C      1  0.4631060000000  0.5433750000000  0.4276460000000 1.0
C      1  0.5620550000000  0.4996630000000  0.5143250000000 1.0
C      1  0.4359790000000  0.5787100000000  0.4822900000000 1.0
C      1  0.5014210000000  0.4180150000000  0.4880820000000 1.0
C      1  0.4661200000000  0.5330240000000  0.5120900000000 1.0
C      1  0.4604290000000  0.5874110000000  0.4937480000000 1.0
C      1  0.4494030000000  0.4426380000000  0.5308480000000 1.0
C      1  0.4594380000000  0.4246470000000  0.5122190000000 1.0
C      1  0.5406370000000  0.4767280000000  0.4319380000000 1.0
C      1  0.4297640000000  0.5650030000000  0.4600020000000 1.0
C      1  0.4438900000000  0.4853090000000  0.5054450000000 1.0
C      1  0.5663710000000  0.4772260000000  0.4990030000000 1.0
C      1  0.5478910000000  0.5366110000000  0.4594700000000 1.0
C      1  0.4937850000000  0.4587340000000  0.4584580000000 1.0
C      1  0.5071950000000  0.5547030000000  0.4971720000000 1.0
C      1  0.4625300000000  0.4543470000000  0.5546510000000 1.0
C      1  0.4940410000000  0.5842600000000  0.4526810000000 1.0
C      1  0.4531460000000  0.5242740000000  0.5694230000000 1.0
C      1  0.5214350000000  0.4230000000000  0.5303950000000 1.0
C      1  0.4669070000000  0.5797110000000  0.5208310000000 1.0
C      1  0.5253520000000  0.5731680000000  0.4887090000000 1.0
C      1  0.5564740000000  0.5237960000000  0.5296520000000 1.0
C      1  0.5070650000000  0.5506570000000  0.5262580000000 1.0
C      1  0.5866790000000  0.3894710000000  0.4843450000000 1.0
C      1  0.4904460000000  0.5391630000000  0.4329350000000 1.0
C      1  0.4901570000000  0.4549170000000  0.5617970000000 1.0
C      1  0.4405420000000  0.5523160000000  0.4390100000000 1.0
C      1  0.4904160000000  0.5011230000000  0.5887930000000 1.0
C      1  0.5343810000000  0.5559820000000  0.4457880000000 1.0
C      1  0.5785600000000  0.5356210000000  0.5413990000000 1.0
C      1  0.5564380000000  0.4624770000000  0.4505600000000 1.0
C      1  0.4987010000000  0.5142480000000  0.4452210000000 1.0
C      1  0.4751450000000  0.4289140000000  0.4893660000000 1.0
C      1  0.4336230000000  0.4645600000000  0.5218690000000 1.0
C      1  0.4546360000000  0.4745790000000  0.4815640000000 1.0
C      1  0.4480260000000  0.5055590000000  0.5490120000000 1.0
C      1  0.4986740000000  0.4826950000000  0.5696020000000 1.0
C      1  0.5070520000000  0.5005390000000  0.4954680000000 1.0
C      1  0.5069460000000  0.5619830000000  0.4403370000000 1.0
C      1  0.4477760000000  0.4786910000000  0.5569190000000 1.0
C      1  0.4710460000000  0.4527210000000  0.4736970000000 1.0
C      1  0.5509640000000  0.4299020000000  0.4897130000000 1.0
C      1  0.5695080000000  0.4089020000000  0.4869360000000 1.0
C      1  0.5311460000000  0.5374070000000  0.5344690000000 1.0
C      1  0.4774350000000  0.5543400000000  0.5305670000000 1.0
C      1  0.5255280000000  0.4228850000000  0.5022170000000 1.0
END
