TITL C-2323492-8884-71 8.75345254120294e-06 125000 -367.840633187897 0 0 60 (C1) n - 1
REM
REM in /home/bkarasulu/CARBON/AIRSS/Generating-Clusters/LCBOP/Higher-Symm/Only-C60/SD-CG/FIRE-HFTN
REM
REM
REM
REM
REM
REM ./C.cell (50c204cfd26239f34c78669fe23a5462)
REM
REM compiler GCC version 9.2.1 20190827 (Red Hat 9.2.1-1)
REM options -cpp -mtune=generic -march=x86-64 -g -O0 -fpre-include=/usr/include/finclude/math-vector-fortran.h
REM seed -1267402305 1432998947 -1705510579 -318321915 -1086242410 953868386 1417584473 1520657962 -1381508037 1215225112 1848259701 276579555 829106452 -406494285 -1704294300 -1210377769 140310959 1724598852 1764285254 -1092968782 1738418239 1826782587 114096067 -882339856 439843136 -146134632 554292602 1061968966 -1672907576 1221177030 -831567453 1957155315 -697834370
REM
CELL 1.54180   50.00000   50.00000   50.00000   90.00000   90.00000   90.00000
LATT -1
SFAC C  
C      1  0.4646520000000  0.5126060000000  0.5681910000000 1.0
C      1  0.5129410000000  0.5457020000000  0.4805290000000 1.0
C      1  0.5589240000000  0.4776070000000  0.4890250000000 1.0
C      1  0.5209230000000  0.4927230000000  0.5477870000000 1.0
C      1  0.4655560000000  0.4659260000000  0.4196080000000 1.0
C      1  0.5218500000000  0.4897670000000  0.4439920000000 1.0
C      1  0.4867950000000  0.4333420000000  0.4754710000000 1.0
C      1  0.5390790000000  0.4286410000000  0.5186750000000 1.0
C      1  0.4984300000000  0.5635570000000  0.5256860000000 1.0
C      1  0.4340350000000  0.5367610000000  0.5097720000000 1.0
C      1  0.5670700000000  0.5373800000000  0.5149790000000 1.0
C      1  0.4468110000000  0.4794570000000  0.4895120000000 1.0
C      1  0.4963620000000  0.4779750000000  0.5470310000000 1.0
C      1  0.5747550000000  0.5413080000000  0.4878920000000 1.0
C      1  0.4755310000000  0.5669710000000  0.5053880000000 1.0
C      1  0.4846860000000  0.5330750000000  0.5708670000000 1.0
C      1  0.4890000000000  0.4521400000000  0.4275680000000 1.0
C      1  0.5025190000000  0.5109230000000  0.4460740000000 1.0
C      1  0.4498150000000  0.5036060000000  0.4739080000000 1.0
C      1  0.4328600000000  0.5149000000000  0.5287970000000 1.0
C      1  0.5589740000000  0.4854370000000  0.5165530000000 1.0
C      1  0.5409750000000  0.4317050000000  0.4904840000000 1.0
C      1  0.5180530000000  0.5452390000000  0.5094160000000 1.0
C      1  0.4792690000000  0.4435900000000  0.5014000000000 1.0
C      1  0.5158310000000  0.4260300000000  0.5322540000000 1.0
C      1  0.4159870000000  0.5343270000000  0.4873300000000 1.0
C      1  0.5274730000000  0.4790990000000  0.4178620000000 1.0
C      1  0.5119650000000  0.5895130000000  0.5312480000000 1.0
C      1  0.5060590000000  0.5716630000000  0.4703070000000 1.0
C      1  0.5015150000000  0.4089190000000  0.4739330000000 1.0
C      1  0.5722160000000  0.4950390000000  0.4710700000000 1.0
C      1  0.4211830000000  0.4765450000000  0.5021350000000 1.0
C      1  0.5858700000000  0.5219230000000  0.5303460000000 1.0
C      1  0.4644170000000  0.4929040000000  0.4172940000000 1.0
C      1  0.5255800000000  0.5066680000000  0.5722790000000 1.0
C      1  0.4686830000000  0.4889380000000  0.5841040000000 1.0
C      1  0.4145210000000  0.4939030000000  0.5221750000000 1.0
C      1  0.5286850000000  0.4103090000000  0.4761670000000 1.0
C      1  0.4820000000000  0.5113370000000  0.4262950000000 1.0
C      1  0.5831760000000  0.4946180000000  0.5288750000000 1.0
C      1  0.5774400000000  0.5214570000000  0.4696660000000 1.0
C      1  0.4249630000000  0.5171360000000  0.4676910000000 1.0
C      1  0.4841000000000  0.5824900000000  0.4827230000000 1.0
C      1  0.4905580000000  0.4303620000000  0.5238560000000 1.0
C      1  0.5251080000000  0.6115800000000  0.5355580000000 1.0
C      1  0.5118600000000  0.4575750000000  0.4107010000000 1.0
C      1  0.5089290000000  0.5249620000000  0.5833190000000 1.0
C      1  0.4856860000000  0.4704450000000  0.5728500000000 1.0
C      1  0.5402230000000  0.4584310000000  0.4797110000000 1.0
C      1  0.4569700000000  0.5058270000000  0.5410780000000 1.0
C      1  0.4967850000000  0.5245910000000  0.4701470000000 1.0
C      1  0.4605010000000  0.5432140000000  0.5003340000000 1.0
C      1  0.4705410000000  0.5227000000000  0.4815020000000 1.0
C      1  0.4748740000000  0.4854050000000  0.5288900000000 1.0
C      1  0.5392720000000  0.5293900000000  0.5191300000000 1.0
C      1  0.4683590000000  0.4697000000000  0.5055100000000 1.0
C      1  0.4957180000000  0.4515370000000  0.4557390000000 1.0
C      1  0.5364870000000  0.5011110000000  0.5258470000000 1.0
C      1  0.5190210000000  0.4677190000000  0.4626550000000 1.0
C      1  0.4875780000000  0.5522970000000  0.5508150000000 1.0
END
