TITL C-2323484-8600-289 -0.0248099950290598 125000 -346.491497619701 0 0 60 (C3) n - 1
REM
REM in /home/bkarasulu/CARBON/AIRSS/Generating-Clusters/LCBOP/Higher-Symm/Only-C60/SD-CG/FIRE-HFTN
REM
REM
REM
REM
REM
REM ./C.cell (50c204cfd26239f34c78669fe23a5462)
REM
REM compiler GCC version 9.2.1 20190827 (Red Hat 9.2.1-1)
REM options -cpp -mtune=generic -march=x86-64 -g -O0 -fpre-include=/usr/include/finclude/math-vector-fortran.h
REM seed -1281068942 1057778437 -1946948270 -1257510472 1985017336 -687958440 902450167 1658322538 1062725521 -1732454782 1925626883 2099454793 -2058628214 1893952293 -154330969 739885134 2073930134 -1542375619 1903591321 -7798192 -756820745 963634907 833713236 2065346712 -1758540173 -1167028406 -1621535250 -1602181868 1812560928 413155570 -1769963832 1717255407 -443392924
REM
CELL 1.54180   50.00000   50.00000   50.00000   90.00000   90.00000   90.00000
LATT -1
SFAC C  
C      1  0.4576440000000  0.5359750000000  0.5640670000000 1.0
C      1  0.5766570000000  0.5359810000000  0.5046800000000 1.0
C      1  0.4657200000000  0.5360390000000  0.4313060000000 1.0
C      1  0.4553100000000  0.4476450000000  0.5014110000000 1.0
C      1  0.5235740000000  0.4476140000000  0.5379500000000 1.0
C      1  0.5210860000000  0.4476520000000  0.4605620000000 1.0
C      1  0.5341740000000  0.4967420000000  0.6005640000000 1.0
C      1  0.5700040000000  0.4968230000000  0.4201200000000 1.0
C      1  0.3958200000000  0.4968280000000  0.4793120000000 1.0
C      1  0.5536980000000  0.5254930000000  0.5667420000000 1.0
C      1  0.5309470000000  0.5255680000000  0.4201480000000 1.0
C      1  0.4153690000000  0.5255450000000  0.5131480000000 1.0
C      1  0.5666480000000  0.4582970000000  0.4721380000000 1.0
C      1  0.4425520000000  0.4583280000000  0.4561750000000 1.0
C      1  0.4907760000000  0.4582630000000  0.5716260000000 1.0
C      1  0.5312890000000  0.4922550000000  0.4662770000000 1.0
C      1  0.4551520000000  0.4922580000000  0.4897580000000 1.0
C      1  0.5135550000000  0.4922210000000  0.5439540000000 1.0
C      1  0.5517920000000  0.4584530000000  0.5759000000000 1.0
C      1  0.5398410000000  0.4585320000000  0.4171600000000 1.0
C      1  0.4083440000000  0.4585140000000  0.5068800000000 1.0
C      1  0.4211270000000  0.5072070000000  0.5776220000000 1.0
C      1  0.6066580000000  0.5071950000000  0.5295010000000 1.0
C      1  0.4722190000000  0.5072880000000  0.3928880000000 1.0
C      1  0.5065890000000  0.4577300000000  0.5938900000000 1.0
C      1  0.5780230000000  0.4577870000000  0.4473110000000 1.0
C      1  0.4153650000000  0.4578130000000  0.4587370000000 1.0
C      1  0.4640230000000  0.5628260000000  0.4236300000000 1.0
C      1  0.4518420000000  0.5627570000000  0.5693990000000 1.0
C      1  0.5841720000000  0.5627620000000  0.5070630000000 1.0
C      1  0.4628980000000  0.5877640000000  0.4161470000000 1.0
C      1  0.4459210000000  0.5876900000000  0.5741360000000 1.0
C      1  0.5912320000000  0.5876930000000  0.5098450000000 1.0
C      1  0.4348410000000  0.4609160000000  0.5177330000000 1.0
C      1  0.5479420000000  0.4608790000000  0.5475280000000 1.0
C      1  0.5171950000000  0.4609400000000  0.4346820000000 1.0
C      1  0.5660810000000  0.4687810000000  0.4237280000000 1.0
C      1  0.4009100000000  0.4687850000000  0.4808800000000 1.0
C      1  0.5329900000000  0.4687040000000  0.5953460000000 1.0
C      1  0.5549200000000  0.5171660000000  0.4331910000000 1.0
C      1  0.4146800000000  0.5171680000000  0.4858570000000 1.0
C      1  0.5304100000000  0.5170990000000  0.5809770000000 1.0
C      1  0.5078920000000  0.5129000000000  0.5631380000000 1.0
C      1  0.5507320000000  0.5129410000000  0.4616080000000 1.0
C      1  0.4413840000000  0.5129560000000  0.4752730000000 1.0
C      1  0.5120810000000  0.4889210000000  0.4432280000000 1.0
C      1  0.4447950000000  0.4888970000000  0.5179140000000 1.0
C      1  0.5431180000000  0.4888680000000  0.5388420000000 1.0
C      1  0.5817100000000  0.5178600000000  0.5259940000000 1.0
C      1  0.4816540000000  0.5179330000000  0.4162560000000 1.0
C      1  0.4366470000000  0.5178730000000  0.5577760000000 1.0
C      1  0.4839920000000  0.5267980000000  0.5646290000000 1.0
C      1  0.5639700000000  0.5268240000000  0.4815730000000 1.0
C      1  0.4520530000000  0.5268590000000  0.4538380000000 1.0
C      1  0.5071400000000  0.5110000000000  0.4259700000000 1.0
C      1  0.4323170000000  0.5109640000000  0.5308410000000 1.0
C      1  0.5605490000000  0.5109330000000  0.5432040000000 1.0
C      1  0.5392610000000  0.4651700000000  0.4756960000000 1.0
C      1  0.4593260000000  0.4651840000000  0.4781200000000 1.0
C      1  0.5013930000000  0.4651430000000  0.5461340000000 1.0
END
