TITL C-2323480-5884-163 -1.3882457067728e-05 125000 -370.735046005487 0 0 60 (C2) n - 1
REM
REM in /home/bkarasulu/CARBON/AIRSS/Generating-Clusters/LCBOP/Higher-Symm/Only-C60/SD-CG/FIRE-HFTN
REM
REM
REM
REM
REM
REM ./C.cell (50c204cfd26239f34c78669fe23a5462)
REM
REM compiler GCC version 9.2.1 20190827 (Red Hat 9.2.1-1)
REM options -cpp -mtune=generic -march=x86-64 -g -O0 -fpre-include=/usr/include/finclude/math-vector-fortran.h
REM seed 2083883477 541278975 -1935621054 1029135566 1328591083 895727942 -70319680 -1335494010 -625124278 -92050886 -547796912 -1142329654 1654200822 -1307338210 -438324447 -1480065718 2005131169 1030096232 -530167082 507546125 396953154 -527951469 -1123071524 1112932918 1078364426 -856794295 1732882108 1124111497 557723548 463058028 -1829552168 381877523 1972402840
REM
CELL 1.54180   50.00000   50.00000   50.00000   90.00000   90.00000   90.00000
LATT -1
SFAC C  
C      1  0.4881830000000  0.4350620000000  0.5080910000000 1.0
C      1  0.4881840000000  0.5649380000000  0.4919090000000 1.0
C      1  0.5148350000000  0.4353260000000  0.5073930000000 1.0
C      1  0.5148360000000  0.5646740000000  0.4926070000000 1.0
C      1  0.4504570000000  0.5359500000000  0.5134110000000 1.0
C      1  0.4504570000000  0.4640500000000  0.4865900000000 1.0
C      1  0.5515910000000  0.5355030000000  0.5158510000000 1.0
C      1  0.5515900000000  0.4644960000000  0.4841480000000 1.0
C      1  0.4429190000000  0.4847920000000  0.4444480000000 1.0
C      1  0.4429200000000  0.5152080000000  0.5555530000000 1.0
C      1  0.5539730000000  0.4860330000000  0.4418530000000 1.0
C      1  0.5539740000000  0.5139670000000  0.5581460000000 1.0
C      1  0.5520510000000  0.4885910000000  0.4137010000000 1.0
C      1  0.5520520000000  0.5114090000000  0.5862980000000 1.0
C      1  0.4450480000000  0.4888170000000  0.4162650000000 1.0
C      1  0.4450500000000  0.5111830000000  0.5837360000000 1.0
C      1  0.4856420000000  0.4956570000000  0.3813030000000 1.0
C      1  0.4856440000000  0.5043430000000  0.6186970000000 1.0
C      1  0.5130830000000  0.4928090000000  0.3789930000000 1.0
C      1  0.5130850000000  0.5071910000000  0.6210060000000 1.0
C      1  0.5289740000000  0.4805250000000  0.3995330000000 1.0
C      1  0.5289760000000  0.5194740000000  0.6004660000000 1.0
C      1  0.4711300000000  0.4895000000000  0.4051190000000 1.0
C      1  0.4711310000000  0.5105000000000  0.5948820000000 1.0
C      1  0.5131680000000  0.5107520000000  0.4574740000000 1.0
C      1  0.5131690000000  0.4892480000000  0.5425260000000 1.0
C      1  0.4888660000000  0.4993220000000  0.4494060000000 1.0
C      1  0.4888670000000  0.5006780000000  0.5505940000000 1.0
C      1  0.5112230000000  0.4669960000000  0.4175500000000 1.0
C      1  0.5112240000000  0.5330040000000  0.5824500000000 1.0
C      1  0.4897640000000  0.4825960000000  0.4262940000000 1.0
C      1  0.4897650000000  0.5174040000000  0.5737060000000 1.0
C      1  0.4430190000000  0.4348350000000  0.4472790000000 1.0
C      1  0.4430210000000  0.5651650000000  0.5527210000000 1.0
C      1  0.5539380000000  0.4354710000000  0.4440230000000 1.0
C      1  0.5539390000000  0.5645280000000  0.5559770000000 1.0
C      1  0.5399140000000  0.5028790000000  0.4616550000000 1.0
C      1  0.5399150000000  0.4971210000000  0.5383450000000 1.0
C      1  0.4628850000000  0.4997640000000  0.4611960000000 1.0
C      1  0.4628850000000  0.5002360000000  0.5388050000000 1.0
C      1  0.4850960000000  0.4071520000000  0.4346100000000 1.0
C      1  0.4850980000000  0.5928480000000  0.5653910000000 1.0
C      1  0.5117190000000  0.4069820000000  0.4341930000000 1.0
C      1  0.5117210000000  0.5930180000000  0.5658070000000 1.0
C      1  0.5382770000000  0.4454400000000  0.4996440000000 1.0
C      1  0.5382780000000  0.5545600000000  0.5003560000000 1.0
C      1  0.4642420000000  0.4447650000000  0.5013930000000 1.0
C      1  0.4642420000000  0.5552360000000  0.4986070000000 1.0
C      1  0.5363890000000  0.4166070000000  0.4371100000000 1.0
C      1  0.5363900000000  0.5833930000000  0.5628890000000 1.0
C      1  0.4605520000000  0.4166330000000  0.4387380000000 1.0
C      1  0.4605530000000  0.5833680000000  0.5612630000000 1.0
C      1  0.5577030000000  0.5395570000000  0.5440360000000 1.0
C      1  0.5577020000000  0.4604430000000  0.4559630000000 1.0
C      1  0.4400600000000  0.5402230000000  0.5404190000000 1.0
C      1  0.4400590000000  0.4597780000000  0.4595820000000 1.0
C      1  0.4585850000000  0.4920110000000  0.4887190000000 1.0
C      1  0.4585850000000  0.5079890000000  0.5112820000000 1.0
C      1  0.5467020000000  0.4928520000000  0.4881500000000 1.0
C      1  0.5467020000000  0.5071480000000  0.5118500000000 1.0
END
