TITL C-2323490-8774-552 1.24131943083603e-06 125000 -373.425604160656 0 0 60 (C2) n - 1
REM
REM in /home/bkarasulu/CARBON/AIRSS/Generating-Clusters/LCBOP/Higher-Symm/Only-C60/SD-CG/FIRE-HFTN
REM
REM
REM
REM
REM
REM ./C.cell (50c204cfd26239f34c78669fe23a5462)
REM
REM compiler GCC version 9.2.1 20190827 (Red Hat 9.2.1-1)
REM options -cpp -mtune=generic -march=x86-64 -g -O0 -fpre-include=/usr/include/finclude/math-vector-fortran.h
REM seed 90999833 -1700126012 -467361972 -1404753990 -549852485 1741186727 1165492521 -557460184 1913758309 1790006075 1124229318 -85006979 1914335121 689967947 495492345 1460065977 161305360 -1363224031 -1672325095 303295953 -811047237 864809280 1902721177 1655560032 1516445615 173223078 285003168 -535925741 -144767733 174779868 991626082 -369820708 -295729821
REM
CELL 1.54180   50.00000   50.00000   50.00000   90.00000   90.00000   90.00000
LATT -1
SFAC C  
C      1  0.5550830000000  0.4935650000000  0.4857190000000 1.0
C      1  0.4430760000000  0.4945590000000  0.5140380000000 1.0
C      1  0.5550930000000  0.5064620000000  0.5142280000000 1.0
C      1  0.4430590000000  0.5054130000000  0.4860170000000 1.0
C      1  0.5404700000000  0.5312500000000  0.5176800000000 1.0
C      1  0.4649740000000  0.5229520000000  0.4809310000000 1.0
C      1  0.5404680000000  0.4687700000000  0.4822810000000 1.0
C      1  0.4650040000000  0.4770310000000  0.5191030000000 1.0
C      1  0.5375960000000  0.4513180000000  0.4593560000000 1.0
C      1  0.4645620000000  0.4539480000000  0.5363120000000 1.0
C      1  0.5376120000000  0.5487010000000  0.5406080000000 1.0
C      1  0.4645050000000  0.5460350000000  0.4637220000000 1.0
C      1  0.4740370000000  0.4300420000000  0.5241520000000 1.0
C      1  0.5266630000000  0.4259840000000  0.4675510000000 1.0
C      1  0.4739790000000  0.5699450000000  0.4758730000000 1.0
C      1  0.5266580000000  0.5740290000000  0.5324240000000 1.0
C      1  0.5348300000000  0.5040780000000  0.5625950000000 1.0
C      1  0.4612440000000  0.5035410000000  0.4365280000000 1.0
C      1  0.5347720000000  0.4959400000000  0.4373710000000 1.0
C      1  0.4613070000000  0.4964400000000  0.5635100000000 1.0
C      1  0.4899630000000  0.4917150000000  0.5239190000000 1.0
C      1  0.5144430000000  0.4702030000000  0.4929860000000 1.0
C      1  0.4899360000000  0.5082800000000  0.4760900000000 1.0
C      1  0.5144350000000  0.5298040000000  0.5070000000000 1.0
C      1  0.4696570000000  0.4667290000000  0.5626130000000 1.0
C      1  0.5284710000000  0.4668330000000  0.4364450000000 1.0
C      1  0.4695810000000  0.5332560000000  0.4374160000000 1.0
C      1  0.5285160000000  0.5331810000000  0.5635270000000 1.0
C      1  0.4747360000000  0.4579840000000  0.4657550000000 1.0
C      1  0.5269600000000  0.4548280000000  0.5371940000000 1.0
C      1  0.4747490000000  0.5420040000000  0.5342690000000 1.0
C      1  0.5269010000000  0.5451850000000  0.4627800000000 1.0
C      1  0.5533330000000  0.4933110000000  0.5412570000000 1.0
C      1  0.4423340000000  0.4915080000000  0.4594200000000 1.0
C      1  0.5532900000000  0.5067150000000  0.4586910000000 1.0
C      1  0.4423690000000  0.5084640000000  0.5406350000000 1.0
C      1  0.5006210000000  0.4635970000000  0.4273720000000 1.0
C      1  0.4973360000000  0.4642530000000  0.5725360000000 1.0
C      1  0.5006730000000  0.5364040000000  0.5726280000000 1.0
C      1  0.4972490000000  0.5357460000000  0.4274670000000 1.0
C      1  0.4904620000000  0.5814260000000  0.4941550000000 1.0
C      1  0.5091530000000  0.5834180000000  0.5137190000000 1.0
C      1  0.4905080000000  0.4185690000000  0.5058550000000 1.0
C      1  0.5091810000000  0.4165860000000  0.4862730000000 1.0
C      1  0.4472500000000  0.4638890000000  0.4633880000000 1.0
C      1  0.5531380000000  0.4648640000000  0.5404210000000 1.0
C      1  0.4472680000000  0.5360850000000  0.5366630000000 1.0
C      1  0.5530820000000  0.5351620000000  0.4595280000000 1.0
C      1  0.4856310000000  0.5545000000000  0.5572160000000 1.0
C      1  0.5136840000000  0.5549570000000  0.4399020000000 1.0
C      1  0.4856030000000  0.4454930000000  0.4427980000000 1.0
C      1  0.5137690000000  0.4450500000000  0.5600850000000 1.0
C      1  0.5111120000000  0.5277420000000  0.4795170000000 1.0
C      1  0.4922540000000  0.5210110000000  0.5227310000000 1.0
C      1  0.5111460000000  0.4722630000000  0.5204720000000 1.0
C      1  0.4922420000000  0.4789850000000  0.4772760000000 1.0
C      1  0.4870260000000  0.4897480000000  0.4246160000000 1.0
C      1  0.5099630000000  0.4905570000000  0.5747410000000 1.0
C      1  0.4870940000000  0.5102460000000  0.5753970000000 1.0
C      1  0.5098860000000  0.5094480000000  0.4252500000000 1.0
END
