TITL C-2323491-8878-460 15.9029654314617 125000 -338.398302013924 0 0 60 (C2h) n - 1
REM
REM in /home/bkarasulu/CARBON/AIRSS/Generating-Clusters/LCBOP/Higher-Symm/Only-C60/SD-CG/FIRE-HFTN
REM
REM
REM
REM
REM
REM ./C.cell (50c204cfd26239f34c78669fe23a5462)
REM
REM compiler GCC version 9.2.1 20190827 (Red Hat 9.2.1-1)
REM options -cpp -mtune=generic -march=x86-64 -g -O0 -fpre-include=/usr/include/finclude/math-vector-fortran.h
REM seed 2086967676 572728910 65244927 1716106004 505204546 -729043531 909809905 -1847421951 1133144244 -774229327 1608568136 1436950466 -1593329806 -556890590 302667765 -2101684494 -1926412859 -1207734542 -1045457793 816985726 1103454348 1821874891 1578273230 -800893984 -608663663 -860641758 -1288364194 -771914944 1095041904 -702271315 -1332935104 -1606930164 -1518924934
REM
CELL 1.54180   50.00000   50.00000   50.00000   90.00000   90.00000   90.00000
LATT -1
SFAC C  
C      1  0.4819030000000  0.5121830000000  0.5248480000000 1.0
C      1  0.4862510000000  0.4782900000000  0.5152550000000 1.0
C      1  0.5180940000000  0.4878050000000  0.5248440000000 1.0
C      1  0.5137470000000  0.5217090000000  0.5152590000000 1.0
C      1  0.4815100000000  0.5115930000000  0.4762870000000 1.0
C      1  0.4858220000000  0.4785740000000  0.4858620000000 1.0
C      1  0.5184880000000  0.4884130000000  0.4762840000000 1.0
C      1  0.5141770000000  0.5214300000000  0.4858680000000 1.0
C      1  0.5494630000000  0.4560120000000  0.4594190000000 1.0
C      1  0.5542940000000  0.5383480000000  0.4632640000000 1.0
C      1  0.4505370000000  0.5440000000000  0.4594300000000 1.0
C      1  0.4457050000000  0.4616610000000  0.4632550000000 1.0
C      1  0.5495990000000  0.4560350000000  0.5418590000000 1.0
C      1  0.5544980000000  0.5379420000000  0.5372930000000 1.0
C      1  0.4504030000000  0.5439540000000  0.5418700000000 1.0
C      1  0.4455000000000  0.4620480000000  0.5372820000000 1.0
C      1  0.5318620000000  0.4898830000000  0.5700650000000 1.0
C      1  0.5132930000000  0.5623030000000  0.5426650000000 1.0
C      1  0.4681370000000  0.5100990000000  0.5700690000000 1.0
C      1  0.4867040000000  0.4376830000000  0.5426440000000 1.0
C      1  0.5315960000000  0.4894770000000  0.4308500000000 1.0
C      1  0.5127810000000  0.5624380000000  0.4590750000000 1.0
C      1  0.4684010000000  0.5105400000000  0.4308530000000 1.0
C      1  0.4872180000000  0.4375710000000  0.4590620000000 1.0
C      1  0.5794840000000  0.5347720000000  0.4747230000000 1.0
C      1  0.4378080000000  0.5634140000000  0.4746750000000 1.0
C      1  0.4205150000000  0.4652350000000  0.4747130000000 1.0
C      1  0.5621940000000  0.4365950000000  0.4746590000000 1.0
C      1  0.5795800000000  0.5344230000000  0.5255950000000 1.0
C      1  0.4376800000000  0.5633800000000  0.5266320000000 1.0
C      1  0.4204180000000  0.4655710000000  0.5255850000000 1.0
C      1  0.5623230000000  0.4366150000000  0.5266150000000 1.0
C      1  0.5330460000000  0.4784270000000  0.4559400000000 1.0
C      1  0.5268820000000  0.5410650000000  0.4687040000000 1.0
C      1  0.4669530000000  0.5215850000000  0.4559450000000 1.0
C      1  0.4731160000000  0.4589430000000  0.4686950000000 1.0
C      1  0.5330700000000  0.4783980000000  0.5451620000000 1.0
C      1  0.5270180000000  0.5409650000000  0.5324190000000 1.0
C      1  0.4669290000000  0.5215880000000  0.5451680000000 1.0
C      1  0.4729790000000  0.4590260000000  0.5324080000000 1.0
C      1  0.5598870000000  0.3881430000000  0.4871570000000 1.0
C      1  0.6093270000000  0.4964880000000  0.4863060000000 1.0
C      1  0.4401200000000  0.6118620000000  0.4871870000000 1.0
C      1  0.3906730000000  0.5035170000000  0.4863060000000 1.0
C      1  0.5599670000000  0.3881520000000  0.5141780000000 1.0
C      1  0.6093660000000  0.4962930000000  0.5133470000000 1.0
C      1  0.4400410000000  0.6118450000000  0.5142080000000 1.0
C      1  0.3906340000000  0.5037050000000  0.5133460000000 1.0
C      1  0.4389960000000  0.5912210000000  0.4697730000000 1.0
C      1  0.4033170000000  0.4869600000000  0.4690400000000 1.0
C      1  0.5610080000000  0.4087890000000  0.4697490000000 1.0
C      1  0.5966820000000  0.5130490000000  0.4690450000000 1.0
C      1  0.4388200000000  0.5911790000000  0.5315860000000 1.0
C      1  0.4032270000000  0.4873960000000  0.5308830000000 1.0
C      1  0.5611870000000  0.4088130000000  0.5315620000000 1.0
C      1  0.5967720000000  0.5125970000000  0.5308870000000 1.0
C      1  0.5706000000000  0.4438170000000  0.5006130000000 1.0
C      1  0.5833530000000  0.5465810000000  0.5002340000000 1.0
C      1  0.4294020000000  0.5561850000000  0.5006280000000 1.0
C      1  0.4166440000000  0.4534200000000  0.5002220000000 1.0
END
