TITL C-2323492-8884-242 2.17059567979883e-06 125000 -359.285158932149 0 0 60 (C3) n - 1
REM
REM in /home/bkarasulu/CARBON/AIRSS/Generating-Clusters/LCBOP/Higher-Symm/Only-C60/SD-CG/FIRE-HFTN
REM
REM
REM
REM
REM
REM ./C.cell (50c204cfd26239f34c78669fe23a5462)
REM
REM compiler GCC version 9.2.1 20190827 (Red Hat 9.2.1-1)
REM options -cpp -mtune=generic -march=x86-64 -g -O0 -fpre-include=/usr/include/finclude/math-vector-fortran.h
REM seed 1363764536 1057343650 191903365 1287416988 -1297187525 -2087997480 62084452 -2133257475 891845543 554203550 2132216761 1690108036 1124633299 -878051794 -827905722 2006017310 -1077212371 -1294532495 216728458 1299886576 -474703322 2029169898 1318542405 -2083940607 36067032 -1161006803 -1897658364 1977443404 -29706795 -1447119370 -1586872106 1476011486 11015082
REM
CELL 1.54180   50.00000   50.00000   50.00000   90.00000   90.00000   90.00000
LATT -1
SFAC C  
C      1  0.5246200000000  0.4848470000000  0.5176160000000 1.0
C      1  0.5029360000000  0.4848030000000  0.4698920000000 1.0
C      1  0.4724480000000  0.4848390000000  0.5125330000000 1.0
C      1  0.4725630000000  0.4477650000000  0.4692560000000 1.0
C      1  0.4870590000000  0.4478290000000  0.5392060000000 1.0
C      1  0.5403890000000  0.4477900000000  0.4916770000000 1.0
C      1  0.4647490000000  0.4402540000000  0.4950860000000 1.0
C      1  0.5133300000000  0.4402910000000  0.5330690000000 1.0
C      1  0.5219330000000  0.4402370000000  0.4720050000000 1.0
C      1  0.4937990000000  0.4862530000000  0.4209190000000 1.0
C      1  0.4346050000000  0.4863590000000  0.5449300000000 1.0
C      1  0.5715990000000  0.4863590000000  0.5341870000000 1.0
C      1  0.4995620000000  0.4566150000000  0.4677790000000 1.0
C      1  0.4722860000000  0.4566560000000  0.5165510000000 1.0
C      1  0.5281620000000  0.4566590000000  0.5157870000000 1.0
C      1  0.4708630000000  0.5681560000000  0.4973830000000 1.0
C      1  0.5123480000000  0.5681840000000  0.5264470000000 1.0
C      1  0.5167750000000  0.5681400000000  0.4759880000000 1.0
C      1  0.5241610000000  0.5127250000000  0.5204100000000 1.0
C      1  0.5056030000000  0.5126780000000  0.4688530000000 1.0
C      1  0.4702330000000  0.5127130000000  0.5107030000000 1.0
C      1  0.4833230000000  0.5619140000000  0.5224630000000 1.0
C      1  0.5278340000000  0.5619000000000  0.5031250000000 1.0
C      1  0.4888310000000  0.5618720000000  0.4742470000000 1.0
C      1  0.4792920000000  0.5316020000000  0.5330750000000 1.0
C      1  0.5390190000000  0.5315780000000  0.5013520000000 1.0
C      1  0.4816830000000  0.5315420000000  0.4654890000000 1.0
C      1  0.5536670000000  0.4792480000000  0.5559450000000 1.0
C      1  0.5216020000000  0.4791300000000  0.4255790000000 1.0
C      1  0.4247350000000  0.4792060000000  0.5185310000000 1.0
C      1  0.5325940000000  0.5514480000000  0.4582130000000 1.0
C      1  0.4475490000000  0.5514730000000  0.4925950000000 1.0
C      1  0.5198460000000  0.5515280000000  0.5490540000000 1.0
C      1  0.4602840000000  0.5257070000000  0.4873240000000 1.0
C      1  0.5088980000000  0.5257580000000  0.5406970000000 1.0
C      1  0.5308130000000  0.5256980000000  0.4719100000000 1.0
C      1  0.5639690000000  0.4626210000000  0.4861040000000 1.0
C      1  0.4559570000000  0.4625830000000  0.4516010000000 1.0
C      1  0.4800820000000  0.4626830000000  0.5623940000000 1.0
C      1  0.5762270000000  0.5140720000000  0.5288750000000 1.0
C      1  0.4869020000000  0.5139680000000  0.4195290000000 1.0
C      1  0.4368680000000  0.5140820000000  0.5515590000000 1.0
C      1  0.4613510000000  0.5276610000000  0.5569580000000 1.0
C      1  0.5686700000000  0.5276220000000  0.5049530000000 1.0
C      1  0.4699730000000  0.5275560000000  0.4380150000000 1.0
C      1  0.5771500000000  0.4700870000000  0.5108300000000 1.0
C      1  0.4707840000000  0.4700050000000  0.4278130000000 1.0
C      1  0.4520720000000  0.4701230000000  0.5614370000000 1.0
C      1  0.5448140000000  0.4766050000000  0.4399870000000 1.0
C      1  0.4256050000000  0.4766420000000  0.4912300000000 1.0
C      1  0.5295870000000  0.4767180000000  0.5688460000000 1.0
C      1  0.4748560000000  0.5219860000000  0.5812790000000 1.0
C      1  0.5829760000000  0.5219050000000  0.4811050000000 1.0
C      1  0.4421630000000  0.5218560000000  0.4375580000000 1.0
C      1  0.4279270000000  0.5018800000000  0.4488410000000 1.0
C      1  0.4917330000000  0.5020080000000  0.5879940000000 1.0
C      1  0.5803400000000  0.5019030000000  0.4631600000000 1.0
C      1  0.4345080000000  0.4785220000000  0.4636260000000 1.0
C      1  0.5012310000000  0.4786260000000  0.5749350000000 1.0
C      1  0.5642650000000  0.4785290000000  0.4614960000000 1.0
END
