TITL C-2323480-5884-227 -2.97411479924535e-05 125000 -361.593038275473 0 0 60 (C1) n - 1
REM
REM in /home/bkarasulu/CARBON/AIRSS/Generating-Clusters/LCBOP/Higher-Symm/Only-C60/SD-CG/FIRE-HFTN
REM
REM
REM
REM
REM
REM ./C.cell (50c204cfd26239f34c78669fe23a5462)
REM
REM compiler GCC version 9.2.1 20190827 (Red Hat 9.2.1-1)
REM options -cpp -mtune=generic -march=x86-64 -g -O0 -fpre-include=/usr/include/finclude/math-vector-fortran.h
REM seed 2131160019 1815631020 -671820561 493386137 1140058178 1570819725 2035309414 2127318127 -1691135762 -2060144478 1197202686 -897104884 1713749739 -678877210 2108743364 494315695 691122696 1159449596 -1063726579 639029844 -781776458 1356715001 358650277 1715941166 2065984951 -1081052806 1037463240 -2084446802 1429870554 1011535221 -1418219433 -1649994040 -789182970
REM
CELL 1.54180   50.00000   50.00000   50.00000   90.00000   90.00000   90.00000
LATT -1
SFAC C  
C      1  0.4796510000000  0.4609940000000  0.4896960000000 1.0
C      1  0.5347120000000  0.5423530000000  0.5076440000000 1.0
C      1  0.5114750000000  0.4196200000000  0.5441550000000 1.0
C      1  0.5111040000000  0.5363120000000  0.4209310000000 1.0
C      1  0.4493590000000  0.5059570000000  0.4987260000000 1.0
C      1  0.5772620000000  0.4951550000000  0.5138470000000 1.0
C      1  0.5367070000000  0.5035550000000  0.4430200000000 1.0
C      1  0.4685700000000  0.4375930000000  0.5520770000000 1.0
C      1  0.4852630000000  0.4159920000000  0.5510590000000 1.0
C      1  0.5311900000000  0.5180010000000  0.4206590000000 1.0
C      1  0.4254260000000  0.5487770000000  0.3929070000000 1.0
C      1  0.4991890000000  0.4695170000000  0.6049350000000 1.0
C      1  0.5630690000000  0.4618640000000  0.4776980000000 1.0
C      1  0.4708490000000  0.5188330000000  0.5454480000000 1.0
C      1  0.4131540000000  0.4993370000000  0.3958870000000 1.0
C      1  0.5021090000000  0.5164250000000  0.5852840000000 1.0
C      1  0.5411390000000  0.4441120000000  0.5862770000000 1.0
C      1  0.4579360000000  0.5691410000000  0.4295400000000 1.0
C      1  0.4680100000000  0.5466220000000  0.4435840000000 1.0
C      1  0.5424830000000  0.4541790000000  0.5595870000000 1.0
C      1  0.5200550000000  0.4436590000000  0.4551460000000 1.0
C      1  0.5012300000000  0.5741030000000  0.5463280000000 1.0
C      1  0.5340340000000  0.5379380000000  0.5352440000000 1.0
C      1  0.4739570000000  0.4624410000000  0.4622960000000 1.0
C      1  0.5000070000000  0.5908020000000  0.5678510000000 1.0
C      1  0.5291050000000  0.4184430000000  0.4492630000000 1.0
C      1  0.4149810000000  0.5247590000000  0.3882100000000 1.0
C      1  0.4911170000000  0.4940040000000  0.5978910000000 1.0
C      1  0.5287090000000  0.5233350000000  0.5925890000000 1.0
C      1  0.4205670000000  0.4807430000000  0.4134170000000 1.0
C      1  0.5650550000000  0.4986710000000  0.5389120000000 1.0
C      1  0.4493980000000  0.5042430000000  0.4705760000000 1.0
C      1  0.5511700000000  0.5248750000000  0.5777110000000 1.0
C      1  0.4345090000000  0.4739400000000  0.4349980000000 1.0
C      1  0.4928210000000  0.5275740000000  0.5606730000000 1.0
C      1  0.4900480000000  0.4515760000000  0.4176440000000 1.0
C      1  0.5206950000000  0.4825900000000  0.4840950000000 1.0
C      1  0.4990850000000  0.5717970000000  0.4961180000000 1.0
C      1  0.5217620000000  0.5060180000000  0.4675760000000 1.0
C      1  0.4776040000000  0.4620470000000  0.5437920000000 1.0
C      1  0.5355670000000  0.4608250000000  0.4720010000000 1.0
C      1  0.4941360000000  0.5823700000000  0.5203280000000 1.0
C      1  0.4408450000000  0.5644680000000  0.4078260000000 1.0
C      1  0.5188490000000  0.4518250000000  0.6015390000000 1.0
C      1  0.5598640000000  0.4748600000000  0.5529680000000 1.0
C      1  0.4509770000000  0.5282810000000  0.4561450000000 1.0
C      1  0.5531290000000  0.5223220000000  0.5495080000000 1.0
C      1  0.4521940000000  0.4796230000000  0.4558540000000 1.0
C      1  0.5100670000000  0.5470470000000  0.5486130000000 1.0
C      1  0.4944040000000  0.4524380000000  0.4447310000000 1.0
C      1  0.5031140000000  0.4649460000000  0.5304700000000 1.0
C      1  0.5081940000000  0.5313580000000  0.4687410000000 1.0
C      1  0.5145860000000  0.5493780000000  0.4891980000000 1.0
C      1  0.5017050000000  0.4726880000000  0.5031420000000 1.0
C      1  0.4955740000000  0.5405130000000  0.4443550000000 1.0
C      1  0.5223790000000  0.4460520000000  0.5412990000000 1.0
C      1  0.4645320000000  0.5945480000000  0.4371380000000 1.0
C      1  0.5605150000000  0.4277070000000  0.5963110000000 1.0
C      1  0.5779240000000  0.4782290000000  0.4930390000000 1.0
C      1  0.4568800000000  0.5126290000000  0.5235010000000 1.0
END
