TITL C-2323486-8761-171 -15.2126454684466 125000 -349.642758549554 0 0 60 (C1) n - 1
REM
REM in /home/bkarasulu/CARBON/AIRSS/Generating-Clusters/LCBOP/Higher-Symm/Only-C60/SD-CG/FIRE-HFTN
REM
REM
REM
REM
REM
REM ./C.cell (50c204cfd26239f34c78669fe23a5462)
REM
REM compiler GCC version 9.2.1 20190827 (Red Hat 9.2.1-1)
REM options -cpp -mtune=generic -march=x86-64 -g -O0 -fpre-include=/usr/include/finclude/math-vector-fortran.h
REM seed 606452114 -2097969965 1309051474 -127905972 1985050037 1911783969 915828484 1451567387 1218067965 2145661038 772487251 -729330358 -935228729 2042321884 -1985022723 -935211082 105331343 1785442586 -262685833 -302098084 1949466969 725353302 -413194740 -1833943825 -1952881168 899231559 1373318885 991812212 -114019077 -843468562 -1817302371 -1353455489 -1682666533
REM
CELL 1.54180   50.00000   50.00000   50.00000   90.00000   90.00000   90.00000
LATT -1
SFAC C  
C      1  0.5195640000000  0.5722700000000  0.4535510000000 1.0
C      1  0.5196750000000  0.4684180000000  0.4196220000000 1.0
C      1  0.5194060000000  0.4126280000000  0.4945830000000 1.0
C      1  0.5173490000000  0.4716240000000  0.5862200000000 1.0
C      1  0.5191930000000  0.5742450000000  0.5410540000000 1.0
C      1  0.4349460000000  0.4931280000000  0.4741440000000 1.0
C      1  0.4331480000000  0.4736490000000  0.4982160000000 1.0
C      1  0.4323550000000  0.4906290000000  0.5240910000000 1.0
C      1  0.4337350000000  0.5209670000000  0.5167020000000 1.0
C      1  0.4347250000000  0.5216000000000  0.4851890000000 1.0
C      1  0.5579230000000  0.4735460000000  0.4566100000000 1.0
C      1  0.5403480000000  0.4489020000000  0.5166330000000 1.0
C      1  0.5400140000000  0.4987980000000  0.5549990000000 1.0
C      1  0.5609490000000  0.5476460000000  0.5248950000000 1.0
C      1  0.5404980000000  0.5307340000000  0.4636770000000 1.0
C      1  0.5066260000000  0.4419470000000  0.5280680000000 1.0
C      1  0.5077550000000  0.5110060000000  0.5643490000000 1.0
C      1  0.4914770000000  0.5650510000000  0.5039010000000 1.0
C      1  0.5073450000000  0.5285430000000  0.4467380000000 1.0
C      1  0.4913690000000  0.4535350000000  0.4526970000000 1.0
C      1  0.4947620000000  0.4864620000000  0.5750630000000 1.0
C      1  0.4927740000000  0.5684990000000  0.5319310000000 1.0
C      1  0.4959780000000  0.5554040000000  0.4499160000000 1.0
C      1  0.4916900000000  0.4656060000000  0.4267210000000 1.0
C      1  0.4958860000000  0.4245300000000  0.5067080000000 1.0
C      1  0.5428160000000  0.5591300000000  0.4611850000000 1.0
C      1  0.5428540000000  0.4702280000000  0.4341580000000 1.0
C      1  0.5431470000000  0.4257680000000  0.4999700000000 1.0
C      1  0.5416980000000  0.4778690000000  0.5745760000000 1.0
C      1  0.5443060000000  0.5655870000000  0.5361660000000 1.0
C      1  0.4923180000000  0.5345250000000  0.5649930000000 1.0
C      1  0.4745050000000  0.5773390000000  0.4852330000000 1.0
C      1  0.4907110000000  0.5117910000000  0.4320650000000 1.0
C      1  0.4767100000000  0.4324240000000  0.4637320000000 1.0
C      1  0.4883050000000  0.4494500000000  0.5480300000000 1.0
C      1  0.4694070000000  0.5602230000000  0.4626150000000 1.0
C      1  0.4736360000000  0.4889870000000  0.4306520000000 1.0
C      1  0.4715800000000  0.4315070000000  0.4918110000000 1.0
C      1  0.4743040000000  0.4718100000000  0.5600360000000 1.0
C      1  0.4757760000000  0.5499630000000  0.5470140000000 1.0
C      1  0.5562610000000  0.4979120000000  0.5303160000000 1.0
C      1  0.5634010000000  0.5218040000000  0.5133270000000 1.0
C      1  0.5582110000000  0.5154530000000  0.4835280000000 1.0
C      1  0.5627350000000  0.4854390000000  0.4824250000000 1.0
C      1  0.5567450000000  0.4734940000000  0.5115930000000 1.0
C      1  0.5165610000000  0.4955880000000  0.5109880000000 1.0
C      1  0.5208170000000  0.5239740000000  0.5077720000000 1.0
C      1  0.5010290000000  0.5393720000000  0.4947220000000 1.0
C      1  0.5003530000000  0.4753960000000  0.4691490000000 1.0
C      1  0.5206600000000  0.4785480000000  0.4880310000000 1.0
C      1  0.4797220000000  0.4912520000000  0.4813010000000 1.0
C      1  0.4760820000000  0.4739040000000  0.5055730000000 1.0
C      1  0.4910730000000  0.4899130000000  0.5239250000000 1.0
C      1  0.4765370000000  0.5143760000000  0.5210890000000 1.0
C      1  0.4807230000000  0.5189490000000  0.4917260000000 1.0
C      1  0.4484950000000  0.4807570000000  0.5478780000000 1.0
C      1  0.4572540000000  0.5324470000000  0.5313720000000 1.0
C      1  0.4470010000000  0.5422070000000  0.4680940000000 1.0
C      1  0.4490230000000  0.4885790000000  0.4478930000000 1.0
C      1  0.4557540000000  0.4546700000000  0.5007840000000 1.0
END
