TITL C-2323478-8180-220 2.88185564025273 125000 -349.111344711261 0 0 60 (C1) n - 1
REM
REM in /home/bkarasulu/CARBON/AIRSS/Generating-Clusters/LCBOP/Higher-Symm/Only-C60/SD-CG/FIRE-HFTN
REM
REM
REM
REM
REM
REM ./C.cell (50c204cfd26239f34c78669fe23a5462)
REM
REM compiler GCC version 9.2.1 20190827 (Red Hat 9.2.1-1)
REM options -cpp -mtune=generic -march=x86-64 -g -O0 -fpre-include=/usr/include/finclude/math-vector-fortran.h
REM seed -849225146 -47836032 -831853365 -1038925096 -494038744 -1097995078 -630084182 1021533170 847582173 1821515225 891454518 1361989360 1853198038 -924122330 1322380100 1156065691 1430201062 140445995 -1672539635 1417139698 -821005571 -425382349 732702763 1575829475 838526582 376245599 -546960435 -1522077370 158517165 -1802454003 2126790690 -738370486 -264930021
REM
CELL 1.54180   50.00000   50.00000   50.00000   90.00000   90.00000   90.00000
LATT -1
SFAC C  
C      1  0.5484790000000  0.5051890000000  0.5507120000000 1.0
C      1  0.5262890000000  0.5509290000000  0.4726420000000 1.0
C      1  0.5288330000000  0.4342650000000  0.5267770000000 1.0
C      1  0.5487670000000  0.4768020000000  0.5618230000000 1.0
C      1  0.5493090000000  0.4682610000000  0.5013440000000 1.0
C      1  0.4462110000000  0.4636510000000  0.5491490000000 1.0
C      1  0.4765570000000  0.5170700000000  0.5083120000000 1.0
C      1  0.5179630000000  0.5004260000000  0.4840310000000 1.0
C      1  0.5804410000000  0.5282430000000  0.4555380000000 1.0
C      1  0.4884690000000  0.4462300000000  0.5476550000000 1.0
C      1  0.5102190000000  0.5253380000000  0.4686060000000 1.0
C      1  0.4581470000000  0.5326470000000  0.5269690000000 1.0
C      1  0.4288420000000  0.5204930000000  0.3889280000000 1.0
C      1  0.4828340000000  0.5617820000000  0.4902690000000 1.0
C      1  0.4712150000000  0.5037370000000  0.4159650000000 1.0
C      1  0.4740660000000  0.5558570000000  0.5368900000000 1.0
C      1  0.5313480000000  0.5549960000000  0.5483610000000 1.0
C      1  0.5121790000000  0.5143110000000  0.4402520000000 1.0
C      1  0.3867410000000  0.5371170000000  0.3621800000000 1.0
C      1  0.5032650000000  0.4888350000000  0.5536010000000 1.0
C      1  0.5135110000000  0.4404240000000  0.4776080000000 1.0
C      1  0.5821740000000  0.5399610000000  0.4796030000000 1.0
C      1  0.4927500000000  0.5668770000000  0.5170240000000 1.0
C      1  0.5542210000000  0.4543650000000  0.5440800000000 1.0
C      1  0.5234290000000  0.5029550000000  0.5330130000000 1.0
C      1  0.5663810000000  0.5516840000000  0.4980040000000 1.0
C      1  0.5000040000000  0.4481850000000  0.4184650000000 1.0
C      1  0.4549940000000  0.4225590000000  0.5202220000000 1.0
C      1  0.5385650000000  0.5565570000000  0.4981390000000 1.0
C      1  0.4770900000000  0.4855970000000  0.5072960000000 1.0
C      1  0.5025930000000  0.4255870000000  0.5343980000000 1.0
C      1  0.5276580000000  0.5695040000000  0.4524110000000 1.0
C      1  0.4631190000000  0.4525140000000  0.4747880000000 1.0
C      1  0.4500610000000  0.5121140000000  0.4024110000000 1.0
C      1  0.4918870000000  0.4587150000000  0.4663390000000 1.0
C      1  0.5224880000000  0.5631130000000  0.5212910000000 1.0
C      1  0.4838630000000  0.5505760000000  0.5635070000000 1.0
C      1  0.4447330000000  0.5173750000000  0.5463190000000 1.0
C      1  0.4647280000000  0.4457950000000  0.5634660000000 1.0
C      1  0.4950850000000  0.4669990000000  0.4378090000000 1.0
C      1  0.4829160000000  0.5334710000000  0.4822830000000 1.0
C      1  0.5382150000000  0.5160150000000  0.4291410000000 1.0
C      1  0.5222140000000  0.4757000000000  0.5728930000000 1.0
C      1  0.5316730000000  0.4445950000000  0.4992470000000 1.0
C      1  0.5353890000000  0.4931810000000  0.5051660000000 1.0
C      1  0.5507280000000  0.5339220000000  0.5538200000000 1.0
C      1  0.4076170000000  0.5288740000000  0.3754430000000 1.0
C      1  0.4783440000000  0.4991990000000  0.5679490000000 1.0
C      1  0.4521290000000  0.4915830000000  0.5552390000000 1.0
C      1  0.5637520000000  0.5200580000000  0.4362540000000 1.0
C      1  0.4805420000000  0.4115180000000  0.5215040000000 1.0
C      1  0.4740580000000  0.5262840000000  0.5735810000000 1.0
C      1  0.4929770000000  0.4950190000000  0.4311980000000 1.0
C      1  0.5107200000000  0.5585740000000  0.5679100000000 1.0
C      1  0.4899680000000  0.4712390000000  0.5331110000000 1.0
C      1  0.4961960000000  0.4824440000000  0.4839070000000 1.0
C      1  0.5037910000000  0.5223560000000  0.5226610000000 1.0
C      1  0.5692350000000  0.4622150000000  0.5211260000000 1.0
C      1  0.4548350000000  0.4657880000000  0.4995300000000 1.0
C      1  0.4451930000000  0.4503360000000  0.5218390000000 1.0
END
