TITL C-2323481-8605-105 2.91336509435739e-06 125000 -353.214090112993 0 0 60 (Ci) n - 1
REM
REM in /home/bkarasulu/CARBON/AIRSS/Generating-Clusters/LCBOP/Higher-Symm/Only-C60/SD-CG/FIRE-HFTN
REM
REM
REM
REM
REM
REM ./C.cell (50c204cfd26239f34c78669fe23a5462)
REM
REM compiler GCC version 9.2.1 20190827 (Red Hat 9.2.1-1)
REM options -cpp -mtune=generic -march=x86-64 -g -O0 -fpre-include=/usr/include/finclude/math-vector-fortran.h
REM seed 1793160200 -1007999180 -714864640 1640239189 -778045122 1924509194 -1820397536 1027065322 -542269521 1460798646 -1797085412 -1067925371 2054573416 127636602 2048286239 -352841564 1547305570 112145084 -476074851 -710676829 -979838474 -292425812 1174413052 -2104728924 653253600 -2136375531 -1932616277 1301709194 1480576349 212735459 -1193642956 1953361929 201580049
REM
CELL 1.54180   50.00000   50.00000   50.00000   90.00000   90.00000   90.00000
LATT -1
SFAC C  
C      1  0.4693530000000  0.4376670000000  0.4681220000000 1.0
C      1  0.5306470000000  0.5623330000000  0.5318780000000 1.0
C      1  0.4789740000000  0.5578440000000  0.4627230000000 1.0
C      1  0.5210260000000  0.4421560000000  0.5372770000000 1.0
C      1  0.5107810000000  0.5765420000000  0.5483490000000 1.0
C      1  0.4892190000000  0.4234580000000  0.4516510000000 1.0
C      1  0.4364080000000  0.4778810000000  0.4883860000000 1.0
C      1  0.5635920000000  0.5221190000000  0.5116140000000 1.0
C      1  0.4809820000000  0.5423040000000  0.5118030000000 1.0
C      1  0.5190180000000  0.4576960000000  0.4881970000000 1.0
C      1  0.5009820000000  0.5573890000000  0.5682890000000 1.0
C      1  0.4990180000000  0.4426110000000  0.4317110000000 1.0
C      1  0.5718830000000  0.5103770000000  0.4630000000000 1.0
C      1  0.4281170000000  0.4896230000000  0.5370000000000 1.0
C      1  0.5361420000000  0.5625980000000  0.5038460000000 1.0
C      1  0.4638580000000  0.4374020000000  0.4961540000000 1.0
C      1  0.5325360000000  0.6057610000000  0.4823110000000 1.0
C      1  0.4674640000000  0.3942390000000  0.5176890000000 1.0
C      1  0.5571910000000  0.4686140000000  0.4640480000000 1.0
C      1  0.4428090000000  0.5313860000000  0.5359520000000 1.0
C      1  0.5317860000000  0.5290520000000  0.4484400000000 1.0
C      1  0.4682140000000  0.4709480000000  0.5515600000000 1.0
C      1  0.5467720000000  0.4846480000000  0.4435100000000 1.0
C      1  0.4532280000000  0.5153520000000  0.5564900000000 1.0
C      1  0.5343210000000  0.5372300000000  0.5465860000000 1.0
C      1  0.4656790000000  0.4627700000000  0.4534140000000 1.0
C      1  0.5212930000000  0.4841340000000  0.5605610000000 1.0
C      1  0.4787070000000  0.5158660000000  0.4394390000000 1.0
C      1  0.4746370000000  0.4974600000000  0.5607600000000 1.0
C      1  0.5253630000000  0.5025400000000  0.4392400000000 1.0
C      1  0.4278200000000  0.5121780000000  0.5197220000000 1.0
C      1  0.5721800000000  0.4878220000000  0.4802780000000 1.0
C      1  0.4978990000000  0.4954370000000  0.4353330000000 1.0
C      1  0.5021010000000  0.5045630000000  0.5646670000000 1.0
C      1  0.4333690000000  0.5060550000000  0.4922480000000 1.0
C      1  0.5666310000000  0.4939450000000  0.5077520000000 1.0
C      1  0.4878770000000  0.4690170000000  0.4355230000000 1.0
C      1  0.5121230000000  0.5309830000000  0.5644770000000 1.0
C      1  0.5006450000000  0.4276200000000  0.5277890000000 1.0
C      1  0.4993550000000  0.5723800000000  0.4722110000000 1.0
C      1  0.4658140000000  0.5334080000000  0.4573600000000 1.0
C      1  0.5341860000000  0.4665920000000  0.5426400000000 1.0
C      1  0.5521440000000  0.5412280000000  0.4934530000000 1.0
C      1  0.4478560000000  0.4587720000000  0.5065470000000 1.0
C      1  0.5021770000000  0.4760000000000  0.4959180000000 1.0
C      1  0.4978230000000  0.5240000000000  0.5040820000000 1.0
C      1  0.4533140000000  0.5792910000000  0.5263990000000 1.0
C      1  0.5466860000000  0.4207090000000  0.4736010000000 1.0
C      1  0.4952190000000  0.5986770000000  0.5413840000000 1.0
C      1  0.5047810000000  0.4013230000000  0.4586160000000 1.0
C      1  0.4773740000000  0.4195060000000  0.5139480000000 1.0
C      1  0.5226260000000  0.5804940000000  0.4860520000000 1.0
C      1  0.4443370000000  0.5237500000000  0.4731790000000 1.0
C      1  0.5556630000000  0.4762500000000  0.5268210000000 1.0
C      1  0.5536970000000  0.5319630000000  0.4662530000000 1.0
C      1  0.4463030000000  0.4680370000000  0.5337470000000 1.0
C      1  0.4697340000000  0.5996220000000  0.5327670000000 1.0
C      1  0.5302660000000  0.4003780000000  0.4672330000000 1.0
C      1  0.4576060000000  0.5517340000000  0.5240070000000 1.0
C      1  0.5423940000000  0.4482660000000  0.4759930000000 1.0
END
