TITL C-2323485-8600-91 36518101.4106679 125000 -206.002209440217 0 0 60 (Oh) n - 1
REM
REM in /home/bkarasulu/CARBON/AIRSS/Generating-Clusters/LCBOP/Higher-Symm/Only-C60/SD-CG/FIRE-HFTN
REM
REM
REM
REM
REM
REM ./C.cell (50c204cfd26239f34c78669fe23a5462)
REM
REM compiler GCC version 9.2.1 20190827 (Red Hat 9.2.1-1)
REM options -cpp -mtune=generic -march=x86-64 -g -O0 -fpre-include=/usr/include/finclude/math-vector-fortran.h
REM seed 192103948 1378736916 727431957 -931224518 -648533296 -792664604 -931300587 161836254 1928196611 -1658297639 -2120169475 1031137109 -910703114 1843818912 -735810333 -1368082642 -675573493 -1872103598 -112866381 -2016647856 371045077 1346431133 -2042292445 -142019461 -550710704 2121401912 -144607929 800536602 1276414867 -829443190 -349123151 858621239 1166925059
REM
CELL 1.54180   50.00000   50.00000   50.00000   90.00000   90.00000   90.00000
LATT -1
SFAC C  
C      1  0.5229530000000  0.5511160000000  0.4476420000000 1.0
C      1  0.4476420000000  0.5229530000000  0.5511160000000 1.0
C      1  0.5511160000000  0.4476420000000  0.5229520000000 1.0
C      1  0.4770470000000  0.4488840000000  0.4476420000000 1.0
C      1  0.4770470000000  0.5511160000000  0.5523580000000 1.0
C      1  0.5229520000000  0.4488840000000  0.5523580000000 1.0
C      1  0.5523580000000  0.4770480000000  0.5511160000000 1.0
C      1  0.5523580000000  0.5229530000000  0.4488840000000 1.0
C      1  0.4476420000000  0.4770470000000  0.4488840000000 1.0
C      1  0.4488840000000  0.5523580000000  0.5229530000000 1.0
C      1  0.4488840000000  0.4476420000000  0.4770470000000 1.0
C      1  0.5511160000000  0.5523580000000  0.4770470000000 1.0
C      1  0.5229530000000  0.5511170000000  0.5523580000000 1.0
C      1  0.4476420000000  0.5229530000000  0.4488840000000 1.0
C      1  0.5511160000000  0.4476420000000  0.4770480000000 1.0
C      1  0.4770470000000  0.4488840000000  0.5523580000000 1.0
C      1  0.4770470000000  0.5511160000000  0.4476420000000 1.0
C      1  0.5229520000000  0.4488840000000  0.4476420000000 1.0
C      1  0.5523580000000  0.4770480000000  0.4488840000000 1.0
C      1  0.5523580000000  0.5229530000000  0.5511160000000 1.0
C      1  0.4476420000000  0.4770470000000  0.5511160000000 1.0
C      1  0.4488840000000  0.5523580000000  0.4770470000000 1.0
C      1  0.4488840000000  0.4476420000000  0.5229530000000 1.0
C      1  0.5511160000000  0.5523580000000  0.5229530000000 1.0
C      1  0.5543830000000  0.5165200000000  0.5161410000000 1.0
C      1  0.5161410000000  0.5543830000000  0.5165200000000 1.0
C      1  0.5165200000000  0.5161410000000  0.5543830000000 1.0
C      1  0.4456170000000  0.4834800000000  0.5161410000000 1.0
C      1  0.4456170000000  0.5165210000000  0.4838580000000 1.0
C      1  0.5543830000000  0.4834790000000  0.4838580000000 1.0
C      1  0.4838590000000  0.4456170000000  0.5165200000000 1.0
C      1  0.4838580000000  0.5543830000000  0.4834790000000 1.0
C      1  0.5161420000000  0.4456170000000  0.4834790000000 1.0
C      1  0.4834800000000  0.4838590000000  0.5543830000000 1.0
C      1  0.4834790000000  0.5161420000000  0.4456170000000 1.0
C      1  0.5165210000000  0.4838580000000  0.4456170000000 1.0
C      1  0.5543830000000  0.5165210000000  0.4838580000000 1.0
C      1  0.5161420000000  0.5543830000000  0.4834800000000 1.0
C      1  0.5165200000000  0.5161410000000  0.4456170000000 1.0
C      1  0.4456170000000  0.4834790000000  0.4838580000000 1.0
C      1  0.4456170000000  0.5165210000000  0.5161420000000 1.0
C      1  0.5543830000000  0.4834790000000  0.5161420000000 1.0
C      1  0.4838580000000  0.4456170000000  0.4834800000000 1.0
C      1  0.4838580000000  0.5543830000000  0.5165210000000 1.0
C      1  0.5161420000000  0.4456170000000  0.5165210000000 1.0
C      1  0.4834790000000  0.4838580000000  0.4456170000000 1.0
C      1  0.4834790000000  0.5161420000000  0.5543830000000 1.0
C      1  0.5165210000000  0.4838580000000  0.5543830000000 1.0
C      1  0.5633460000000  0.5000010000000  0.4374590000000 1.0
C      1  0.4374590000000  0.5633460000000  0.5000000000000 1.0
C      1  0.4999990000000  0.4374590000000  0.5633460000000 1.0
C      1  0.5625420000000  0.4366530000000  0.5000000000000 1.0
C      1  0.5625410000000  0.5633460000000  0.5000000000000 1.0
C      1  0.5000000000000  0.5625410000000  0.4366540000000 1.0
C      1  0.4366540000000  0.5000000000000  0.5625410000000 1.0
C      1  0.4374590000000  0.4366540000000  0.5000000000000 1.0
C      1  0.5000000000000  0.5625410000000  0.5633460000000 1.0
C      1  0.4999990000000  0.4374590000000  0.4366540000000 1.0
C      1  0.4366540000000  0.5000000000000  0.4374590000000 1.0
C      1  0.5633460000000  0.5000010000000  0.5625410000000 1.0
END
