TITL C-2323487-9546-324 0.000229065782959488 125000 -362.838663985854 0 0 60 (C3) n - 1
REM
REM in /home/bkarasulu/CARBON/AIRSS/Generating-Clusters/LCBOP/Higher-Symm/Only-C60/SD-CG/FIRE-HFTN
REM
REM
REM
REM
REM
REM ./C.cell (50c204cfd26239f34c78669fe23a5462)
REM
REM compiler GCC version 9.2.1 20190827 (Red Hat 9.2.1-1)
REM options -cpp -mtune=generic -march=x86-64 -g -O0 -fpre-include=/usr/include/finclude/math-vector-fortran.h
REM seed -1342762238 719521519 -146018760 -527980031 -343887436 -1011728673 555018468 -1810294389 -927703592 1381763330 -529040951 -1185247253 -723153380 -187064918 358807927 2100895942 -1924940038 -1556152946 365922686 -634316915 1599604607 -1051162547 -775773248 1542616955 832284969 -1851329277 1451307473 -1207360695 -978872124 -762867341 556740799 653173696 -634471302
REM
CELL 1.54180   50.00000   50.00000   50.00000   90.00000   90.00000   90.00000
LATT -1
SFAC C  
C      1  0.5223630000000  0.5159920000000  0.5659890000000 1.0
C      1  0.4749600000000  0.5113690000000  0.5659860000000 1.0
C      1  0.5026660000000  0.4726280000000  0.5659850000000 1.0
C      1  0.5174820000000  0.5209250000000  0.5111110000000 1.0
C      1  0.4731360000000  0.5046770000000  0.5111080000000 1.0
C      1  0.5093800000000  0.4743970000000  0.5111080000000 1.0
C      1  0.5870710000000  0.4881650000000  0.5173590000000 1.0
C      1  0.4667110000000  0.5813230000000  0.5173580000000 1.0
C      1  0.4462150000000  0.4305090000000  0.5173480000000 1.0
C      1  0.5283950000000  0.4507770000000  0.4663680000000 1.0
C      1  0.5284350000000  0.5492030000000  0.4663740000000 1.0
C      1  0.4431760000000  0.5000250000000  0.4663670000000 1.0
C      1  0.4949440000000  0.5561930000000  0.5488240000000 1.0
C      1  0.4538570000000  0.4675230000000  0.5488160000000 1.0
C      1  0.5511910000000  0.4762760000000  0.5488220000000 1.0
C      1  0.4768550000000  0.4043980000000  0.4581110000000 1.0
C      1  0.5943720000000  0.5277590000000  0.4581250000000 1.0
C      1  0.4287800000000  0.5678510000000  0.4581180000000 1.0
C      1  0.4859790000000  0.5261290000000  0.4726480000000 1.0
C      1  0.4843860000000  0.4747940000000  0.4726450000000 1.0
C      1  0.5296400000000  0.4990820000000  0.4726490000000 1.0
C      1  0.6159020000000  0.5416790000000  0.4534640000000 1.0
C      1  0.4059600000000  0.5795360000000  0.4534550000000 1.0
C      1  0.4781460000000  0.3787920000000  0.4534470000000 1.0
C      1  0.4492990000000  0.5076570000000  0.5248430000000 1.0
C      1  0.5187160000000  0.4522620000000  0.5248430000000 1.0
C      1  0.5319810000000  0.5400770000000  0.5248490000000 1.0
C      1  0.5436990000000  0.5240350000000  0.4651320000000 1.0
C      1  0.4573400000000  0.5258290000000  0.4651270000000 1.0
C      1  0.4989660000000  0.4501430000000  0.4651250000000 1.0
C      1  0.4369300000000  0.4466670000000  0.4957230000000 1.0
C      1  0.5777230000000  0.4720470000000  0.4957330000000 1.0
C      1  0.4853470000000  0.5812870000000  0.4957340000000 1.0
C      1  0.5275380000000  0.4876500000000  0.5625360000000 1.0
C      1  0.4969180000000  0.5300210000000  0.5625370000000 1.0
C      1  0.4755340000000  0.4823180000000  0.5625330000000 1.0
C      1  0.4500740000000  0.4471780000000  0.4696270000000 1.0
C      1  0.5707120000000  0.4831750000000  0.4696350000000 1.0
C      1  0.4792190000000  0.5696520000000  0.4696350000000 1.0
C      1  0.5714500000000  0.5132040000000  0.4637300000000 1.0
C      1  0.4528450000000  0.5552770000000  0.4637260000000 1.0
C      1  0.4757120000000  0.4315260000000  0.4637200000000 1.0
C      1  0.5425540000000  0.4759330000000  0.4617930000000 1.0
C      1  0.4995700000000  0.5488880000000  0.4617950000000 1.0
C      1  0.4578820000000  0.4751850000000  0.4617880000000 1.0
C      1  0.5131580000000  0.5780240000000  0.5051100000000 1.0
C      1  0.4258490000000  0.4723830000000  0.5051000000000 1.0
C      1  0.5609920000000  0.4495920000000  0.5051060000000 1.0
C      1  0.5464070000000  0.4538190000000  0.5304230000000 1.0
C      1  0.5167870000000  0.5632790000000  0.5304280000000 1.0
C      1  0.4368010000000  0.4828970000000  0.5304190000000 1.0
C      1  0.5253340000000  0.4962500000000  0.5008670000000 1.0
C      1  0.4905800000000  0.5238150000000  0.5008670000000 1.0
C      1  0.4840850000000  0.4799350000000  0.5008640000000 1.0
C      1  0.4543120000000  0.4399560000000  0.5416720000000 1.0
C      1  0.5748380000000  0.4904530000000  0.5416810000000 1.0
C      1  0.4708430000000  0.5695830000000  0.5416800000000 1.0
C      1  0.5327730000000  0.5712220000000  0.4846850000000 1.0
C      1  0.4219360000000  0.4927720000000  0.4846740000000 1.0
C      1  0.5452940000000  0.4360090000000  0.4846780000000 1.0
END
