TITL C-2323485-8600-264 3.60458544622486e-06 125000 -351.351600943264 0 0 60 (C1) n - 1
REM
REM in /home/bkarasulu/CARBON/AIRSS/Generating-Clusters/LCBOP/Higher-Symm/Only-C60/SD-CG/FIRE-HFTN
REM
REM
REM
REM
REM
REM ./C.cell (50c204cfd26239f34c78669fe23a5462)
REM
REM compiler GCC version 9.2.1 20190827 (Red Hat 9.2.1-1)
REM options -cpp -mtune=generic -march=x86-64 -g -O0 -fpre-include=/usr/include/finclude/math-vector-fortran.h
REM seed 1116498666 1728415537 939039260 -1875003000 -438539519 490741827 374211845 -1378831177 -369042179 300991069 -1398500143 -1926201459 571954815 999945966 -2014920614 -169735887 -426488146 1579015604 2025692526 -1678844261 -1460577878 2009414735 -1804720003 1275864845 316482096 -380249738 907909890 1783825686 -512958827 -1615437611 1524799322 195739045 871448459
REM
CELL 1.54180   50.00000   50.00000   50.00000   90.00000   90.00000   90.00000
LATT -1
SFAC C  
C      1  0.5104350000000  0.4791540000000  0.5564190000000 1.0
C      1  0.4859260000000  0.4765660000000  0.4450270000000 1.0
C      1  0.5228100000000  0.5595030000000  0.4952350000000 1.0
C      1  0.5014660000000  0.5752300000000  0.4835350000000 1.0
C      1  0.5064970000000  0.4330250000000  0.5193430000000 1.0
C      1  0.5133320000000  0.4235140000000  0.4904930000000 1.0
C      1  0.5212430000000  0.5099120000000  0.5124700000000 1.0
C      1  0.4716680000000  0.5291110000000  0.4974920000000 1.0
C      1  0.4440180000000  0.4502450000000  0.4423160000000 1.0
C      1  0.5313240000000  0.4421940000000  0.5346220000000 1.0
C      1  0.5277610000000  0.5504790000000  0.5647740000000 1.0
C      1  0.4700800000000  0.5468900000000  0.4277620000000 1.0
C      1  0.5724780000000  0.5346530000000  0.5354960000000 1.0
C      1  0.4381760000000  0.5418090000000  0.4717830000000 1.0
C      1  0.4458410000000  0.4896070000000  0.4725220000000 1.0
C      1  0.5459940000000  0.4942430000000  0.5253470000000 1.0
C      1  0.4370300000000  0.4489100000000  0.5053860000000 1.0
C      1  0.5698710000000  0.4581160000000  0.4945170000000 1.0
C      1  0.4516080000000  0.5652380000000  0.4772290000000 1.0
C      1  0.5654020000000  0.5558360000000  0.5199590000000 1.0
C      1  0.5387720000000  0.5659360000000  0.5182550000000 1.0
C      1  0.4773780000000  0.5743400000000  0.4677940000000 1.0
C      1  0.5081610000000  0.4596690000000  0.4545910000000 1.0
C      1  0.4872640000000  0.4697640000000  0.5422280000000 1.0
C      1  0.5065060000000  0.4859940000000  0.5018260000000 1.0
C      1  0.4783070000000  0.4525840000000  0.4892440000000 1.0
C      1  0.5214570000000  0.5297070000000  0.4877550000000 1.0
C      1  0.4744890000000  0.5263800000000  0.5249080000000 1.0
C      1  0.4658520000000  0.5204620000000  0.4376540000000 1.0
C      1  0.5335440000000  0.5223360000000  0.5650730000000 1.0
C      1  0.5112630000000  0.5039020000000  0.5708900000000 1.0
C      1  0.4881140000000  0.5024110000000  0.4336310000000 1.0
C      1  0.4943010000000  0.4620980000000  0.5131250000000 1.0
C      1  0.4968560000000  0.4389710000000  0.4717810000000 1.0
C      1  0.4589740000000  0.4651500000000  0.5420760000000 1.0
C      1  0.5363120000000  0.4658780000000  0.4612840000000 1.0
C      1  0.4458370000000  0.4883070000000  0.5287300000000 1.0
C      1  0.5467360000000  0.4910470000000  0.4735270000000 1.0
C      1  0.5602740000000  0.4849180000000  0.4996580000000 1.0
C      1  0.4388930000000  0.4790450000000  0.5003790000000 1.0
C      1  0.4584660000000  0.4706160000000  0.4537090000000 1.0
C      1  0.5343420000000  0.4701890000000  0.5420420000000 1.0
C      1  0.4377190000000  0.5212430000000  0.5854620000000 1.0
C      1  0.5529580000000  0.5411110000000  0.4267300000000 1.0
C      1  0.5019930000000  0.5239230000000  0.5310140000000 1.0
C      1  0.4920460000000  0.5275620000000  0.4799060000000 1.0
C      1  0.5534110000000  0.4448020000000  0.4747100000000 1.0
C      1  0.4537060000000  0.4392600000000  0.5282480000000 1.0
C      1  0.5355630000000  0.5244340000000  0.4394250000000 1.0
C      1  0.4587990000000  0.5159380000000  0.5689320000000 1.0
C      1  0.4854800000000  0.5132690000000  0.5788970000000 1.0
C      1  0.5131270000000  0.5131370000000  0.4266620000000 1.0
C      1  0.4465870000000  0.5167500000000  0.4602490000000 1.0
C      1  0.5549640000000  0.5147470000000  0.5459760000000 1.0
C      1  0.4795540000000  0.5692990000000  0.4397950000000 1.0
C      1  0.5269340000000  0.5683500000000  0.5441990000000 1.0
C      1  0.4552850000000  0.5128650000000  0.5404260000000 1.0
C      1  0.5384600000000  0.5172200000000  0.4667280000000 1.0
C      1  0.5401300000000  0.4209510000000  0.4820350000000 1.0
C      1  0.4782250000000  0.4211990000000  0.5287190000000 1.0
END
