TITL C-2323490-8774-581 -4.18143538568158e-07 125000 -353.062752803373 0 0 60 (C1) n - 1
REM
REM in /home/bkarasulu/CARBON/AIRSS/Generating-Clusters/LCBOP/Higher-Symm/Only-C60/SD-CG/FIRE-HFTN
REM
REM
REM
REM
REM
REM ./C.cell (50c204cfd26239f34c78669fe23a5462)
REM
REM compiler GCC version 9.2.1 20190827 (Red Hat 9.2.1-1)
REM options -cpp -mtune=generic -march=x86-64 -g -O0 -fpre-include=/usr/include/finclude/math-vector-fortran.h
REM seed 1350423995 -60459150 1728531472 -5253029 572381181 -191798363 -905369572 -1821424600 1320159288 -2114006026 -1714789408 -1650663502 1580581193 1474122476 -1980415312 490046910 1374435504 -1771046659 -526788526 122951446 -1362589206 12093545 -1025403139 869544763 1224225245 582617342 1850214560 2105825205 1742359 -2144635098 -623627958 1324428705 1241550466
REM
CELL 1.54180   50.00000   50.00000   50.00000   90.00000   90.00000   90.00000
LATT -1
SFAC C  
C      1  0.5276520000000  0.4436290000000  0.4513010000000 1.0
C      1  0.5514060000000  0.4454140000000  0.5077880000000 1.0
C      1  0.5079600000000  0.4433870000000  0.5559290000000 1.0
C      1  0.4499150000000  0.4439410000000  0.5194110000000 1.0
C      1  0.4590710000000  0.4436560000000  0.4654760000000 1.0
C      1  0.5234090000000  0.5567480000000  0.4490810000000 1.0
C      1  0.5521450000000  0.5569610000000  0.5098060000000 1.0
C      1  0.5068520000000  0.5561420000000  0.5551920000000 1.0
C      1  0.4538620000000  0.5556340000000  0.5241000000000 1.0
C      1  0.4645100000000  0.5552100000000  0.4616260000000 1.0
C      1  0.4775860000000  0.5644030000000  0.5109750000000 1.0
C      1  0.4825250000000  0.5642050000000  0.4818400000000 1.0
C      1  0.5120490000000  0.5563910000000  0.4765890000000 1.0
C      1  0.5254060000000  0.5642580000000  0.5042600000000 1.0
C      1  0.5035750000000  0.5564010000000  0.5256440000000 1.0
C      1  0.4761610000000  0.4352770000000  0.5112180000000 1.0
C      1  0.4811440000000  0.4350410000000  0.4819120000000 1.0
C      1  0.5109960000000  0.4433120000000  0.4764230000000 1.0
C      1  0.5246700000000  0.4361660000000  0.5042840000000 1.0
C      1  0.5025830000000  0.4435370000000  0.5262720000000 1.0
C      1  0.5610090000000  0.4858060000000  0.5336870000000 1.0
C      1  0.4904790000000  0.4854880000000  0.5785230000000 1.0
C      1  0.4280270000000  0.4869880000000  0.5029700000000 1.0
C      1  0.4710180000000  0.4853160000000  0.4463320000000 1.0
C      1  0.5535570000000  0.4868080000000  0.4569140000000 1.0
C      1  0.5561190000000  0.5152680000000  0.5362750000000 1.0
C      1  0.4832860000000  0.5125670000000  0.5690240000000 1.0
C      1  0.4302690000000  0.5154440000000  0.5086580000000 1.0
C      1  0.4756420000000  0.5124410000000  0.4346850000000 1.0
C      1  0.5506760000000  0.5155410000000  0.4521250000000 1.0
C      1  0.5087910000000  0.5289750000000  0.5656060000000 1.0
C      1  0.4430660000000  0.5300790000000  0.5311130000000 1.0
C      1  0.4563790000000  0.5297020000000  0.4514400000000 1.0
C      1  0.5287060000000  0.5300860000000  0.4389190000000 1.0
C      1  0.5627960000000  0.5308060000000  0.5125330000000 1.0
C      1  0.5123680000000  0.4688800000000  0.5695130000000 1.0
C      1  0.4382490000000  0.4697970000000  0.5237650000000 1.0
C      1  0.4494570000000  0.4694610000000  0.4573630000000 1.0
C      1  0.5360280000000  0.4698390000000  0.4412190000000 1.0
C      1  0.5630860000000  0.4714150000000  0.5089980000000 1.0
C      1  0.5679720000000  0.5160440000000  0.4883350000000 1.0
C      1  0.5340610000000  0.5139120000000  0.5585390000000 1.0
C      1  0.4560480000000  0.5130580000000  0.5532070000000 1.0
C      1  0.4369760000000  0.5152210000000  0.4686110000000 1.0
C      1  0.5064440000000  0.5124710000000  0.4285830000000 1.0
C      1  0.5657780000000  0.4873770000000  0.4846980000000 1.0
C      1  0.5350060000000  0.4844360000000  0.5626500000000 1.0
C      1  0.4551770000000  0.4857970000000  0.5409410000000 1.0
C      1  0.4330190000000  0.4868250000000  0.4735320000000 1.0
C      1  0.5180060000000  0.4854020000000  0.4243850000000 1.0
C      1  0.4797070000000  0.5125510000000  0.5108670000000 1.0
C      1  0.4849050000000  0.5126430000000  0.4820540000000 1.0
C      1  0.5111000000000  0.5256920000000  0.4795450000000 1.0
C      1  0.5228020000000  0.5141620000000  0.5036010000000 1.0
C      1  0.5033230000000  0.5258050000000  0.5220870000000 1.0
C      1  0.4785340000000  0.4878800000000  0.5247930000000 1.0
C      1  0.4879550000000  0.4877140000000  0.4691030000000 1.0
C      1  0.5089710000000  0.4734570000000  0.4796030000000 1.0
C      1  0.5196040000000  0.4853390000000  0.5033440000000 1.0
C      1  0.5021260000000  0.4737960000000  0.5227330000000 1.0
END
