TITL C-2323487-9546-246 -4.72029635618546e-08 125000 -378.689569491747 0 0 60 (C1) n - 1
REM
REM in /home/bkarasulu/CARBON/AIRSS/Generating-Clusters/LCBOP/Higher-Symm/Only-C60/SD-CG/FIRE-HFTN
REM
REM
REM
REM
REM
REM ./C.cell (50c204cfd26239f34c78669fe23a5462)
REM
REM compiler GCC version 9.2.1 20190827 (Red Hat 9.2.1-1)
REM options -cpp -mtune=generic -march=x86-64 -g -O0 -fpre-include=/usr/include/finclude/math-vector-fortran.h
REM seed 1698134113 172270340 -846621848 1904335545 232094491 106487406 -1828805034 -713003168 431137710 1029403530 -2086919870 1446453487 259759519 1107223438 -1340661582 -587502686 419203380 -1349543931 1184101416 631127837 -105535783 -369733848 1446708554 -113387215 -1519542983 1426650606 -404705527 -1154598756 12610689 -1830574666 900572567 1643482633 -491170384
REM
CELL 1.54180   50.00000   50.00000   50.00000   90.00000   90.00000   90.00000
LATT -1
SFAC C  
C      1  0.5583910000000  0.4732940000000  0.4679920000000 1.0
C      1  0.4648400000000  0.4839720000000  0.4447210000000 1.0
C      1  0.4439280000000  0.4772050000000  0.5312170000000 1.0
C      1  0.5363650000000  0.4686380000000  0.5410420000000 1.0
C      1  0.5352160000000  0.5229220000000  0.5309560000000 1.0
C      1  0.4658600000000  0.5246810000000  0.5573470000000 1.0
C      1  0.4566530000000  0.5287150000000  0.4731710000000 1.0
C      1  0.5335500000000  0.5200860000000  0.4425820000000 1.0
C      1  0.5136830000000  0.4682290000000  0.5586630000000 1.0
C      1  0.5706900000000  0.4527010000000  0.4838320000000 1.0
C      1  0.4905050000000  0.4702090000000  0.4380300000000 1.0
C      1  0.4373430000000  0.4581200000000  0.5106860000000 1.0
C      1  0.5095980000000  0.5339600000000  0.4331460000000 1.0
C      1  0.5561710000000  0.5287770000000  0.5129820000000 1.0
C      1  0.4826510000000  0.5462160000000  0.5667230000000 1.0
C      1  0.4364010000000  0.5355720000000  0.4912790000000 1.0
C      1  0.5108530000000  0.4572820000000  0.4549480000000 1.0
C      1  0.4573180000000  0.4572350000000  0.4888690000000 1.0
C      1  0.4900880000000  0.4560580000000  0.5441010000000 1.0
C      1  0.5538980000000  0.4424230000000  0.5061090000000 1.0
C      1  0.5039800000000  0.5540970000000  0.5471050000000 1.0
C      1  0.4505640000000  0.5479920000000  0.5142470000000 1.0
C      1  0.4912400000000  0.5492030000000  0.4496870000000 1.0
C      1  0.5425480000000  0.5421750000000  0.4896010000000 1.0
C      1  0.5366020000000  0.4703610000000  0.4506130000000 1.0
C      1  0.4482770000000  0.4764550000000  0.4673540000000 1.0
C      1  0.4671490000000  0.4743730000000  0.5474640000000 1.0
C      1  0.5611400000000  0.4602800000000  0.5297770000000 1.0
C      1  0.5255390000000  0.5350600000000  0.5538930000000 1.0
C      1  0.4477810000000  0.5280030000000  0.5359420000000 1.0
C      1  0.4652680000000  0.5352950000000  0.4478330000000 1.0
C      1  0.5476580000000  0.5237480000000  0.4670070000000 1.0
C      1  0.5943340000000  0.4632810000000  0.4979860000000 1.0
C      1  0.5062480000000  0.4883080000000  0.4198070000000 1.0
C      1  0.4128700000000  0.4645280000000  0.4959580000000 1.0
C      1  0.5045650000000  0.4936190000000  0.5708630000000 1.0
C      1  0.5715430000000  0.5050050000000  0.5052380000000 1.0
C      1  0.4982970000000  0.5374110000000  0.5902680000000 1.0
C      1  0.4236130000000  0.5104600000000  0.4984660000000 1.0
C      1  0.4930510000000  0.5137060000000  0.4180840000000 1.0
C      1  0.4223120000000  0.4877990000000  0.4800220000000 1.0
C      1  0.4761290000000  0.4977260000000  0.5623280000000 1.0
C      1  0.5810060000000  0.4804400000000  0.5182480000000 1.0
C      1  0.5322580000000  0.4922970000000  0.4324150000000 1.0
C      1  0.4339880000000  0.5042330000000  0.5258230000000 1.0
C      1  0.4669780000000  0.5113800000000  0.4314310000000 1.0
C      1  0.5630880000000  0.5006430000000  0.4769020000000 1.0
C      1  0.5173590000000  0.5187410000000  0.5773580000000 1.0
C      1  0.5181410000000  0.5574210000000  0.4947220000000 1.0
C      1  0.4978200000000  0.5604370000000  0.4748070000000 1.0
C      1  0.4749030000000  0.5619750000000  0.5080250000000 1.0
C      1  0.5010880000000  0.5612000000000  0.5196640000000 1.0
C      1  0.5272950000000  0.4339080000000  0.5037660000000 1.0
C      1  0.4950920000000  0.4415310000000  0.5199950000000 1.0
C      1  0.4818510000000  0.4455770000000  0.4945260000000 1.0
C      1  0.5052240000000  0.4422660000000  0.4775600000000 1.0
C      1  0.5242570000000  0.4801400000000  0.5174740000000 1.0
C      1  0.5163370000000  0.5061660000000  0.5179710000000 1.0
C      1  0.4756780000000  0.5122840000000  0.4859360000000 1.0
C      1  0.4929260000000  0.5113600000000  0.5054410000000 1.0
END
