TITL C-2323477-5056-505 1.36511668216193e-05 125000 -359.555190313794 0 0 60 (C1) n - 1
REM
REM in /home/bkarasulu/CARBON/AIRSS/Generating-Clusters/LCBOP/Higher-Symm/Only-C60/SD-CG/FIRE-HFTN
REM
REM
REM
REM
REM
REM ./C.cell (50c204cfd26239f34c78669fe23a5462)
REM
REM compiler GCC version 9.2.1 20190827 (Red Hat 9.2.1-1)
REM options -cpp -mtune=generic -march=x86-64 -g -O0 -fpre-include=/usr/include/finclude/math-vector-fortran.h
REM seed 18372749 -1733478909 1383336238 1370316308 2125372353 644102492 1873330302 57497889 -2080155796 978288532 769433152 1260878199 119284205 -1392487764 -1992524931 1588594041 -1606645374 504350497 697547831 323734731 335848321 1336780136 1539627216 1221369604 -1020531409 -695573139 -531275471 595567919 -1055450742 1864757974 -953702829 -159108220 -1422993157
REM
CELL 1.54180   50.00000   50.00000   50.00000   90.00000   90.00000   90.00000
LATT -1
SFAC C  
C      1  0.4552670000000  0.4906040000000  0.5875170000000 1.0
C      1  0.4490770000000  0.5657100000000  0.5319340000000 1.0
C      1  0.4427830000000  0.4673280000000  0.5468280000000 1.0
C      1  0.5650940000000  0.5062600000000  0.5312550000000 1.0
C      1  0.5011320000000  0.5349270000000  0.5531960000000 1.0
C      1  0.4710180000000  0.4696220000000  0.4939820000000 1.0
C      1  0.4745240000000  0.5490480000000  0.4646850000000 1.0
C      1  0.4334870000000  0.4960010000000  0.4793590000000 1.0
C      1  0.5412350000000  0.5002010000000  0.4831160000000 1.0
C      1  0.4740560000000  0.4661110000000  0.4341770000000 1.0
C      1  0.5305190000000  0.5590990000000  0.4246290000000 1.0
C      1  0.4981480000000  0.5842200000000  0.5297400000000 1.0
C      1  0.5154720000000  0.5032080000000  0.5201910000000 1.0
C      1  0.4392100000000  0.4884310000000  0.5277690000000 1.0
C      1  0.5222120000000  0.5719520000000  0.5334470000000 1.0
C      1  0.4358050000000  0.5422700000000  0.5339500000000 1.0
C      1  0.5767650000000  0.4722490000000  0.4940630000000 1.0
C      1  0.4487860000000  0.5058100000000  0.4575020000000 1.0
C      1  0.5082040000000  0.5718180000000  0.4329770000000 1.0
C      1  0.5144910000000  0.4935360000000  0.4749540000000 1.0
C      1  0.4754160000000  0.5080150000000  0.5889900000000 1.0
C      1  0.5644740000000  0.5328660000000  0.4497980000000 1.0
C      1  0.5247400000000  0.4846380000000  0.4277620000000 1.0
C      1  0.4881970000000  0.4260450000000  0.5764280000000 1.0
C      1  0.5211540000000  0.4568730000000  0.4368730000000 1.0
C      1  0.4864020000000  0.5691340000000  0.4486290000000 1.0
C      1  0.5774510000000  0.4459120000000  0.4837460000000 1.0
C      1  0.4373870000000  0.4732830000000  0.5743240000000 1.0
C      1  0.5015670000000  0.4646210000000  0.5499490000000 1.0
C      1  0.5187910000000  0.4772030000000  0.5321560000000 1.0
C      1  0.5264030000000  0.5447900000000  0.5415670000000 1.0
C      1  0.5776010000000  0.5073110000000  0.4540030000000 1.0
C      1  0.4619630000000  0.4301810000000  0.5161310000000 1.0
C      1  0.4933660000000  0.5242820000000  0.5776970000000 1.0
C      1  0.5403500000000  0.5233520000000  0.5242240000000 1.0
C      1  0.5233550000000  0.5129400000000  0.4348680000000 1.0
C      1  0.4932310000000  0.5327770000000  0.4792360000000 1.0
C      1  0.4597830000000  0.4444860000000  0.5409990000000 1.0
C      1  0.5087730000000  0.5177720000000  0.4593900000000 1.0
C      1  0.4836060000000  0.4443050000000  0.5567600000000 1.0
C      1  0.5627020000000  0.4360070000000  0.4633750000000 1.0
C      1  0.4464780000000  0.4829730000000  0.5010360000000 1.0
C      1  0.4827890000000  0.5321520000000  0.5310290000000 1.0
C      1  0.4157380000000  0.4625820000000  0.5870790000000 1.0
C      1  0.5674750000000  0.4789400000000  0.5209160000000 1.0
C      1  0.4328940000000  0.5154540000000  0.5342160000000 1.0
C      1  0.5441670000000  0.4647150000000  0.5288790000000 1.0
C      1  0.5581820000000  0.5449430000000  0.4755080000000 1.0
C      1  0.4730320000000  0.4411330000000  0.4923890000000 1.0
C      1  0.4522810000000  0.5339010000000  0.4555480000000 1.0
C      1  0.4941250000000  0.4473860000000  0.4431260000000 1.0
C      1  0.4713020000000  0.5809480000000  0.5299620000000 1.0
C      1  0.4943120000000  0.5211860000000  0.5072450000000 1.0
C      1  0.4878970000000  0.4828330000000  0.4756800000000 1.0
C      1  0.4706770000000  0.4881350000000  0.4517210000000 1.0
C      1  0.5425410000000  0.5341310000000  0.4308160000000 1.0
C      1  0.5669960000000  0.4907220000000  0.4747180000000 1.0
C      1  0.5456830000000  0.5278880000000  0.4944830000000 1.0
C      1  0.4861710000000  0.4330210000000  0.4676640000000 1.0
C      1  0.5432680000000  0.4417580000000  0.4458070000000 1.0
END
