TITL C-2323492-8884-152 -3.45039157695026e-07 125000 -335.400616258687 0 0 60 (C2) n - 1
REM
REM in /home/bkarasulu/CARBON/AIRSS/Generating-Clusters/LCBOP/Higher-Symm/Only-C60/SD-CG/FIRE-HFTN
REM
REM
REM
REM
REM
REM ./C.cell (50c204cfd26239f34c78669fe23a5462)
REM
REM compiler GCC version 9.2.1 20190827 (Red Hat 9.2.1-1)
REM options -cpp -mtune=generic -march=x86-64 -g -O0 -fpre-include=/usr/include/finclude/math-vector-fortran.h
REM seed -1714735261 371192852 1306480136 1735323805 -1259857062 -1904852366 -1872064057 -1747889853 -1187130662 1755600180 -1094727152 -548825333 1841855937 2082814747 1029586003 1576885854 -2103725071 24593177 -1202105616 -742442215 1239974051 -1669653966 1505446587 523263762 1359085440 1172867362 669181031 -1123658490 1574594893 752669585 350054913 213778692 171729683
REM
CELL 1.54180   50.00000   50.00000   50.00000   90.00000   90.00000   90.00000
LATT -1
SFAC C  
C      1  0.5522910000000  0.5236800000000  0.5253720000000 1.0
C      1  0.4908560000000  0.5287090000000  0.4493120000000 1.0
C      1  0.4520300000000  0.5264270000000  0.5301390000000 1.0
C      1  0.5500940000000  0.4735730000000  0.4735410000000 1.0
C      1  0.4958210000000  0.4763320000000  0.5579750000000 1.0
C      1  0.4606840000000  0.4712780000000  0.4667370000000 1.0
C      1  0.5187000000000  0.4644260000000  0.5176950000000 1.0
C      1  0.5054190000000  0.4670470000000  0.4832670000000 1.0
C      1  0.4824370000000  0.4685950000000  0.5096610000000 1.0
C      1  0.5171460000000  0.5314040000000  0.4896160000000 1.0
C      1  0.5059660000000  0.5355800000000  0.5250350000000 1.0
C      1  0.4827950000000  0.5329500000000  0.4963160000000 1.0
C      1  0.4950930000000  0.4185560000000  0.4956260000000 1.0
C      1  0.4730190000000  0.4225960000000  0.5139960000000 1.0
C      1  0.5204030000000  0.4151970000000  0.5082680000000 1.0
C      1  0.4969450000000  0.5848070000000  0.5217850000000 1.0
C      1  0.4986570000000  0.5814430000000  0.4935460000000 1.0
C      1  0.5256050000000  0.5774030000000  0.4836190000000 1.0
C      1  0.4690400000000  0.4434440000000  0.4638520000000 1.0
C      1  0.4913730000000  0.4472040000000  0.5550560000000 1.0
C      1  0.5484450000000  0.4459040000000  0.4637900000000 1.0
C      1  0.4444080000000  0.5540940000000  0.5238290000000 1.0
C      1  0.4841750000000  0.5565440000000  0.4550990000000 1.0
C      1  0.5519840000000  0.5528070000000  0.5200540000000 1.0
C      1  0.4532390000000  0.4238150000000  0.4534350000000 1.0
C      1  0.5149070000000  0.4319800000000  0.5521630000000 1.0
C      1  0.5248020000000  0.4320240000000  0.4590780000000 1.0
C      1  0.4521510000000  0.5679700000000  0.5009960000000 1.0
C      1  0.4830550000000  0.5761690000000  0.4362020000000 1.0
C      1  0.5377060000000  0.5680330000000  0.5389830000000 1.0
C      1  0.5614090000000  0.5331000000000  0.4774270000000 1.0
C      1  0.4423150000000  0.5241240000000  0.4545070000000 1.0
C      1  0.4857420000000  0.5277200000000  0.5697750000000 1.0
C      1  0.5675550000000  0.4722930000000  0.5225560000000 1.0
C      1  0.4497440000000  0.4669030000000  0.5418940000000 1.0
C      1  0.4894590000000  0.4758590000000  0.4273000000000 1.0
C      1  0.4666300000000  0.5138990000000  0.4440660000000 1.0
C      1  0.4650220000000  0.5153520000000  0.5538180000000 1.0
C      1  0.5643020000000  0.5131030000000  0.4995100000000 1.0
C      1  0.4674170000000  0.4869050000000  0.5554400000000 1.0
C      1  0.4682560000000  0.4860850000000  0.4431310000000 1.0
C      1  0.5640990000000  0.4846560000000  0.4966310000000 1.0
C      1  0.4774200000000  0.5614180000000  0.4846610000000 1.0
C      1  0.5095020000000  0.5638500000000  0.5358770000000 1.0
C      1  0.5407360000000  0.5524050000000  0.4909120000000 1.0
C      1  0.4717640000000  0.4475990000000  0.5307410000000 1.0
C      1  0.4980180000000  0.4385760000000  0.4727890000000 1.0
C      1  0.5263230000000  0.4361590000000  0.5261860000000 1.0
C      1  0.5149650000000  0.4766470000000  0.4363950000000 1.0
C      1  0.4370530000000  0.4753930000000  0.5167860000000 1.0
C      1  0.5524910000000  0.4774960000000  0.5453690000000 1.0
C      1  0.5130310000000  0.5225210000000  0.5681400000000 1.0
C      1  0.4374340000000  0.5233410000000  0.4811420000000 1.0
C      1  0.5460150000000  0.5246030000000  0.4538810000000 1.0
C      1  0.5239630000000  0.5155710000000  0.5394740000000 1.0
C      1  0.5174870000000  0.5161810000000  0.4632480000000 1.0
C      1  0.4592160000000  0.5152340000000  0.5015650000000 1.0
C      1  0.5217540000000  0.4847610000000  0.4654700000000 1.0
C      1  0.5222000000000  0.4844400000000  0.5404970000000 1.0
C      1  0.4594310000000  0.4838130000000  0.4967650000000 1.0
END
