TITL C-2323490-8774-19 7.86137619799441e-06 125000 -360.87334317487 0 0 60 (C1) n - 1
REM
REM in /home/bkarasulu/CARBON/AIRSS/Generating-Clusters/LCBOP/Higher-Symm/Only-C60/SD-CG/FIRE-HFTN
REM
REM
REM
REM
REM
REM ./C.cell (50c204cfd26239f34c78669fe23a5462)
REM
REM compiler GCC version 9.2.1 20190827 (Red Hat 9.2.1-1)
REM options -cpp -mtune=generic -march=x86-64 -g -O0 -fpre-include=/usr/include/finclude/math-vector-fortran.h
REM seed 2088157253 -415865545 1562535549 1764136636 278949225 186584329 216579915 1277274381 1003048238 -332589435 -493505241 -1988971711 -1317162110 -800088264 -2045067205 2127740946 -1026367384 -497282538 -463128234 -289391004 -1029525798 -1662856288 -1908205955 -1274188469 111814038 -146875762 -2138126505 657633258 1809564155 -544692806 1515926852 -320695290 1091404843
REM
CELL 1.54180   50.00000   50.00000   50.00000   90.00000   90.00000   90.00000
LATT -1
SFAC C  
C      1  0.5545270000000  0.5135080000000  0.4451320000000 1.0
C      1  0.5496330000000  0.4335280000000  0.5161280000000 1.0
C      1  0.5507700000000  0.5443710000000  0.5549100000000 1.0
C      1  0.4769510000000  0.4378940000000  0.5354890000000 1.0
C      1  0.4692080000000  0.5526630000000  0.5323090000000 1.0
C      1  0.4643090000000  0.5152220000000  0.4232270000000 1.0
C      1  0.5520140000000  0.4771590000000  0.5349140000000 1.0
C      1  0.5627600000000  0.5537710000000  0.5091630000000 1.0
C      1  0.5533250000000  0.4646840000000  0.4409840000000 1.0
C      1  0.4680440000000  0.4800570000000  0.5599090000000 1.0
C      1  0.4778240000000  0.5690070000000  0.4720350000000 1.0
C      1  0.4751050000000  0.4519600000000  0.4537400000000 1.0
C      1  0.5136960000000  0.5220280000000  0.5747480000000 1.0
C      1  0.5272730000000  0.5535340000000  0.4537280000000 1.0
C      1  0.5531950000000  0.3921990000000  0.5417580000000 1.0
C      1  0.5489160000000  0.5700820000000  0.4929690000000 1.0
C      1  0.5359380000000  0.4518290000000  0.4249150000000 1.0
C      1  0.5420750000000  0.4863060000000  0.5580840000000 1.0
C      1  0.5441510000000  0.4610490000000  0.5131200000000 1.0
C      1  0.5515880000000  0.5361750000000  0.5278040000000 1.0
C      1  0.5496590000000  0.4877050000000  0.4569140000000 1.0
C      1  0.5096150000000  0.4536300000000  0.4196980000000 1.0
C      1  0.5167590000000  0.4935110000000  0.5688140000000 1.0
C      1  0.5246230000000  0.5660580000000  0.4795190000000 1.0
C      1  0.4467090000000  0.4812130000000  0.5117220000000 1.0
C      1  0.4316090000000  0.5275320000000  0.5146170000000 1.0
C      1  0.4524280000000  0.5153430000000  0.4689160000000 1.0
C      1  0.5275300000000  0.5223470000000  0.5206660000000 1.0
C      1  0.5263560000000  0.4873760000000  0.4743680000000 1.0
C      1  0.5227660000000  0.4697560000000  0.4963590000000 1.0
C      1  0.4718180000000  0.5614000000000  0.4465460000000 1.0
C      1  0.4734340000000  0.4359610000000  0.4769630000000 1.0
C      1  0.4596240000000  0.5057910000000  0.5497130000000 1.0
C      1  0.4871230000000  0.4673730000000  0.4310530000000 1.0
C      1  0.4964080000000  0.4732240000000  0.5644910000000 1.0
C      1  0.4983650000000  0.5691840000000  0.4925070000000 1.0
C      1  0.4961810000000  0.4633070000000  0.5037970000000 1.0
C      1  0.4997260000000  0.5188260000000  0.5239040000000 1.0
C      1  0.5046890000000  0.5038950000000  0.4642350000000 1.0
C      1  0.4869490000000  0.4969960000000  0.4238070000000 1.0
C      1  0.5006040000000  0.4454160000000  0.5530210000000 1.0
C      1  0.4924320000000  0.5677050000000  0.5224860000000 1.0
C      1  0.5421730000000  0.4167360000000  0.5376000000000 1.0
C      1  0.5237510000000  0.5473980000000  0.5640220000000 1.0
C      1  0.5313970000000  0.5294800000000  0.4388570000000 1.0
C      1  0.4327250000000  0.5249390000000  0.4865710000000 1.0
C      1  0.4285950000000  0.4643530000000  0.5003530000000 1.0
C      1  0.4391660000000  0.5034690000000  0.5287760000000 1.0
C      1  0.4847500000000  0.5076630000000  0.5030900000000 1.0
C      1  0.4806450000000  0.5136620000000  0.4763570000000 1.0
C      1  0.4752050000000  0.4820210000000  0.5074280000000 1.0
C      1  0.5222660000000  0.4277130000000  0.5542880000000 1.0
C      1  0.5100310000000  0.5668270000000  0.5464930000000 1.0
C      1  0.5085590000000  0.5117270000000  0.4367350000000 1.0
C      1  0.4420710000000  0.5519160000000  0.5249740000000 1.0
C      1  0.4451000000000  0.5080460000000  0.4426800000000 1.0
C      1  0.4565430000000  0.4547940000000  0.5485400000000 1.0
C      1  0.4821410000000  0.4380810000000  0.5055270000000 1.0
C      1  0.4785870000000  0.5268500000000  0.5427860000000 1.0
C      1  0.4695870000000  0.5437490000000  0.4257440000000 1.0
END
