TITL C-2323487-9546-17 6.18780300236581e-05 125000 -354.643857681275 0 0 60 (C1) n - 1
REM
REM in /home/bkarasulu/CARBON/AIRSS/Generating-Clusters/LCBOP/Higher-Symm/Only-C60/SD-CG/FIRE-HFTN
REM
REM
REM
REM
REM
REM ./C.cell (50c204cfd26239f34c78669fe23a5462)
REM
REM compiler GCC version 9.2.1 20190827 (Red Hat 9.2.1-1)
REM options -cpp -mtune=generic -march=x86-64 -g -O0 -fpre-include=/usr/include/finclude/math-vector-fortran.h
REM seed 1086113318 769746411 -121711800 1100589516 961357579 492044555 -2069719656 2052458238 -1325042703 127231211 1771245330 57595903 1509390969 1735144204 -1511005813 -1815670186 522565314 1683573326 -1593467029 690186277 -416173284 -635835070 -552167897 -361790990 1218225283 -1950614193 301112304 -1043199717 -744742942 -1315411823 278933569 1890871313 1902061465
REM
CELL 1.54180   50.00000   50.00000   50.00000   90.00000   90.00000   90.00000
LATT -1
SFAC C  
C      1  0.5262090000000  0.4790440000000  0.4977760000000 1.0
C      1  0.5260010000000  0.4979210000000  0.4765240000000 1.0
C      1  0.5079290000000  0.5260860000000  0.5329830000000 1.0
C      1  0.4456700000000  0.4436110000000  0.4984480000000 1.0
C      1  0.4352300000000  0.5289830000000  0.4548260000000 1.0
C      1  0.4438830000000  0.5244980000000  0.5474170000000 1.0
C      1  0.5450900000000  0.4395260000000  0.4601130000000 1.0
C      1  0.5418120000000  0.5552090000000  0.4717710000000 1.0
C      1  0.5440370000000  0.4955160000000  0.5701670000000 1.0
C      1  0.4445600000000  0.4352830000000  0.4717220000000 1.0
C      1  0.4370890000000  0.5567380000000  0.4588850000000 1.0
C      1  0.4474470000000  0.5078210000000  0.5698820000000 1.0
C      1  0.5201140000000  0.5854010000000  0.4990310000000 1.0
C      1  0.5243250000000  0.4542450000000  0.5689920000000 1.0
C      1  0.5245370000000  0.4563970000000  0.4229880000000 1.0
C      1  0.5342260000000  0.5346530000000  0.5405520000000 1.0
C      1  0.5473210000000  0.4609990000000  0.5048770000000 1.0
C      1  0.5488120000000  0.5057550000000  0.4609610000000 1.0
C      1  0.4556480000000  0.4519590000000  0.4514180000000 1.0
C      1  0.4521730000000  0.5668830000000  0.4809400000000 1.0
C      1  0.4584110000000  0.4815300000000  0.5672180000000 1.0
C      1  0.5008900000000  0.4989710000000  0.5356180000000 1.0
C      1  0.4920420000000  0.5075340000000  0.4431950000000 1.0
C      1  0.4903100000000  0.5284520000000  0.4868950000000 1.0
C      1  0.5455450000000  0.4699540000000  0.5564810000000 1.0
C      1  0.5478320000000  0.4600800000000  0.4399930000000 1.0
C      1  0.5410260000000  0.5650810000000  0.4989970000000 1.0
C      1  0.4490190000000  0.4648370000000  0.5467460000000 1.0
C      1  0.4445920000000  0.4774630000000  0.4475160000000 1.0
C      1  0.4447120000000  0.5587180000000  0.5069150000000 1.0
C      1  0.5054150000000  0.4802440000000  0.5168810000000 1.0
C      1  0.5014780000000  0.5104510000000  0.4686320000000 1.0
C      1  0.4944430000000  0.5381880000000  0.5115470000000 1.0
C      1  0.5358700000000  0.4132330000000  0.4965210000000 1.0
C      1  0.5439200000000  0.5424050000000  0.4277640000000 1.0
C      1  0.5369710000000  0.5369190000000  0.5898860000000 1.0
C      1  0.5242880000000  0.5184790000000  0.6061340000000 1.0
C      1  0.5184840000000  0.4052000000000  0.4764900000000 1.0
C      1  0.5256820000000  0.5632240000000  0.4288570000000 1.0
C      1  0.5446580000000  0.5245530000000  0.5647120000000 1.0
C      1  0.5496490000000  0.4378070000000  0.4890190000000 1.0
C      1  0.5511220000000  0.5332450000000  0.4545730000000 1.0
C      1  0.4782170000000  0.4430900000000  0.4371820000000 1.0
C      1  0.4757490000000  0.5818020000000  0.4761820000000 1.0
C      1  0.4800890000000  0.4729250000000  0.5831380000000 1.0
C      1  0.4243250000000  0.5740470000000  0.4419450000000 1.0
C      1  0.4400850000000  0.5168730000000  0.5946880000000 1.0
C      1  0.4327860000000  0.4114940000000  0.4650580000000 1.0
C      1  0.5076560000000  0.4700500000000  0.5868570000000 1.0
C      1  0.5053870000000  0.4376620000000  0.4342630000000 1.0
C      1  0.5036000000000  0.5844450000000  0.4750350000000 1.0
C      1  0.4368970000000  0.5027870000000  0.4504280000000 1.0
C      1  0.4416160000000  0.5429770000000  0.5282850000000 1.0
C      1  0.4455700000000  0.4527980000000  0.5233420000000 1.0
C      1  0.5205950000000  0.4225390000000  0.4536790000000 1.0
C      1  0.5209320000000  0.5711970000000  0.4560270000000 1.0
C      1  0.5244880000000  0.4926260000000  0.5937080000000 1.0
C      1  0.5475840000000  0.5512690000000  0.5223020000000 1.0
C      1  0.5563420000000  0.4635060000000  0.5315180000000 1.0
C      1  0.5596070000000  0.4848220000000  0.4455010000000 1.0
END
