TITL C-2323487-9546-107 3.39836116415731 125000 -373.748410046459 0 0 60 (C1) n - 1
REM
REM in /home/bkarasulu/CARBON/AIRSS/Generating-Clusters/LCBOP/Higher-Symm/Only-C60/SD-CG/FIRE-HFTN
REM
REM
REM
REM
REM
REM ./C.cell (50c204cfd26239f34c78669fe23a5462)
REM
REM compiler GCC version 9.2.1 20190827 (Red Hat 9.2.1-1)
REM options -cpp -mtune=generic -march=x86-64 -g -O0 -fpre-include=/usr/include/finclude/math-vector-fortran.h
REM seed -864574433 1044644840 398828976 -1485099406 269100382 836018976 -153666750 1802629240 739290852 1019381206 762754562 -234143868 633347658 -1778688352 -604994880 1153147630 -1161779314 1190476341 448145999 -1814899066 -429163986 759810415 -1965119077 304154111 -1082440008 -1301176147 1997538304 47025396 339345059 2619413 -306040206 386396114 -391500482
REM
CELL 1.54180   50.00000   50.00000   50.00000   90.00000   90.00000   90.00000
LATT -1
SFAC C  
C      1  0.4752430000000  0.4752060000000  0.5606750000000 1.0
C      1  0.5605720000000  0.4748050000000  0.4641800000000 1.0
C      1  0.4560060000000  0.5811600000000  0.4916880000000 1.0
C      1  0.5249370000000  0.4903190000000  0.3565950000000 1.0
C      1  0.5457330000000  0.5190600000000  0.5920110000000 1.0
C      1  0.5652730000000  0.4725000000000  0.4370010000000 1.0
C      1  0.5545530000000  0.5401910000000  0.5257490000000 1.0
C      1  0.3503010000000  0.5057520000000  0.5181060000000 1.0
C      1  0.4369830000000  0.5039140000000  0.5126750000000 1.0
C      1  0.4855410000000  0.4548170000000  0.5432600000000 1.0
C      1  0.5015820000000  0.4390390000000  0.4562240000000 1.0
C      1  0.5312200000000  0.5528730000000  0.5350660000000 1.0
C      1  0.5449720000000  0.4710330000000  0.5865850000000 1.0
C      1  0.4028140000000  0.5080000000000  0.4744480000000 1.0
C      1  0.5000330000000  0.5909500000000  0.4748880000000 1.0
C      1  0.5858200000000  0.4625180000000  0.3964210000000 1.0
C      1  0.4763380000000  0.5219920000000  0.5649890000000 1.0
C      1  0.5037500000000  0.5006890000000  0.3986060000000 1.0
C      1  0.3857200000000  0.5017820000000  0.5545260000000 1.0
C      1  0.5854350000000  0.5434020000000  0.4868480000000 1.0
C      1  0.5479020000000  0.4647400000000  0.5088040000000 1.0
C      1  0.5284900000000  0.4509030000000  0.5243580000000 1.0
C      1  0.4562160000000  0.4367940000000  0.4742850000000 1.0
C      1  0.4878340000000  0.5447030000000  0.5519300000000 1.0
C      1  0.5475810000000  0.4805880000000  0.4152400000000 1.0
C      1  0.3554730000000  0.5077890000000  0.4919700000000 1.0
C      1  0.4817410000000  0.4445380000000  0.5167530000000 1.0
C      1  0.5215820000000  0.5272020000000  0.5806130000000 1.0
C      1  0.5482980000000  0.4796240000000  0.3647000000000 1.0
C      1  0.4971380000000  0.4822820000000  0.5799950000000 1.0
C      1  0.4370140000000  0.5015660000000  0.5406340000000 1.0
C      1  0.5714040000000  0.4950600000000  0.4816880000000 1.0
C      1  0.5569340000000  0.5118680000000  0.5261160000000 1.0
C      1  0.4617470000000  0.5675250000000  0.5141970000000 1.0
C      1  0.5117740000000  0.5648780000000  0.5171300000000 1.0
C      1  0.5185310000000  0.4442060000000  0.4778360000000 1.0
C      1  0.5222290000000  0.4924080000000  0.4163670000000 1.0
C      1  0.5846000000000  0.5189500000000  0.4756410000000 1.0
C      1  0.5079980000000  0.4416190000000  0.5046720000000 1.0
C      1  0.4977530000000  0.5107980000000  0.5828010000000 1.0
C      1  0.5605280000000  0.4742610000000  0.3891890000000 1.0
C      1  0.5205010000000  0.4662140000000  0.5740770000000 1.0
C      1  0.5613120000000  0.4901590000000  0.5089020000000 1.0
C      1  0.3761380000000  0.5086510000000  0.4750530000000 1.0
C      1  0.4123160000000  0.5011240000000  0.5539140000000 1.0
C      1  0.5156490000000  0.5794220000000  0.4935640000000 1.0
C      1  0.4848290000000  0.5591780000000  0.5275390000000 1.0
C      1  0.4591510000000  0.4403610000000  0.5008540000000 1.0
C      1  0.5730000000000  0.5531840000000  0.5086960000000 1.0
C      1  0.5170550000000  0.5451380000000  0.5589310000000 1.0
C      1  0.5437380000000  0.4576990000000  0.4798290000000 1.0
C      1  0.4250670000000  0.5062070000000  0.4889970000000 1.0
C      1  0.3623650000000  0.5034610000000  0.5418030000000 1.0
C      1  0.4748100000000  0.4361220000000  0.4547330000000 1.0
C      1  0.5150530000000  0.4534500000000  0.5492470000000 1.0
C      1  0.4730480000000  0.5919210000000  0.4736760000000 1.0
C      1  0.5885930000000  0.4614820000000  0.4239140000000 1.0
C      1  0.4610780000000  0.4997120000000  0.5547930000000 1.0
C      1  0.5560870000000  0.4942970000000  0.5944120000000 1.0
C      1  0.5046120000000  0.4999150000000  0.3716050000000 1.0
END
