TITL C-2323485-8600-549 0.033395570567038 125000 -356.195943439649 0 0 60 (C1) n - 1
REM
REM in /home/bkarasulu/CARBON/AIRSS/Generating-Clusters/LCBOP/Higher-Symm/Only-C60/SD-CG/FIRE-HFTN
REM
REM
REM
REM
REM
REM ./C.cell (50c204cfd26239f34c78669fe23a5462)
REM
REM compiler GCC version 9.2.1 20190827 (Red Hat 9.2.1-1)
REM options -cpp -mtune=generic -march=x86-64 -g -O0 -fpre-include=/usr/include/finclude/math-vector-fortran.h
REM seed 1574782389 -2005032606 -358712131 1868419784 1406086758 -772740448 -1104968780 -613706666 500729962 164601626 -1691063572 -37509255 -1877971440 -873884793 1553001953 -2055929713 -106177697 -747723852 1083066353 1486382687 -1950637238 2063200953 372469665 -1294779145 1207221713 -136331339 -1935926773 131802164 -78385246 -2059042658 -832798716 -1664653032 -668972025
REM
CELL 1.54180   50.00000   50.00000   50.00000   90.00000   90.00000   90.00000
LATT -1
SFAC C  
C      1  0.6218690000000  0.4384140000000  0.4738380000000 1.0
C      1  0.4775490000000  0.4568200000000  0.5461300000000 1.0
C      1  0.5113120000000  0.5214850000000  0.6060700000000 1.0
C      1  0.4269180000000  0.4667640000000  0.6378600000000 1.0
C      1  0.5525880000000  0.4709790000000  0.4838900000000 1.0
C      1  0.5087390000000  0.5543060000000  0.4531860000000 1.0
C      1  0.5197960000000  0.5342200000000  0.4696940000000 1.0
C      1  0.6139280000000  0.4530950000000  0.5214480000000 1.0
C      1  0.4674060000000  0.5198600000000  0.4478350000000 1.0
C      1  0.5567560000000  0.4661660000000  0.4565510000000 1.0
C      1  0.4227180000000  0.4543700000000  0.4776160000000 1.0
C      1  0.5686810000000  0.4797620000000  0.5297050000000 1.0
C      1  0.5486130000000  0.4705410000000  0.5116200000000 1.0
C      1  0.5533640000000  0.5281160000000  0.5501200000000 1.0
C      1  0.4791160000000  0.5818440000000  0.4789170000000 1.0
C      1  0.4035840000000  0.4474040000000  0.4605460000000 1.0
C      1  0.3676920000000  0.4351000000000  0.4299650000000 1.0
C      1  0.5575570000000  0.5461530000000  0.5044930000000 1.0
C      1  0.4618100000000  0.5478870000000  0.4468910000000 1.0
C      1  0.5377490000000  0.4737860000000  0.4375430000000 1.0
C      1  0.6042130000000  0.4430010000000  0.4543890000000 1.0
C      1  0.4439830000000  0.4683040000000  0.4852980000000 1.0
C      1  0.5454980000000  0.5375420000000  0.4804920000000 1.0
C      1  0.5821860000000  0.5578760000000  0.5050230000000 1.0
C      1  0.4219260000000  0.4828280000000  0.4087530000000 1.0
C      1  0.3909410000000  0.4493460000000  0.4356150000000 1.0
C      1  0.5922690000000  0.5736870000000  0.5905960000000 1.0
C      1  0.5638210000000  0.5026590000000  0.5450090000000 1.0
C      1  0.4377840000000  0.5579290000000  0.4371530000000 1.0
C      1  0.4870030000000  0.5831730000000  0.5045590000000 1.0
C      1  0.4686060000000  0.4951940000000  0.6230970000000 1.0
C      1  0.5011370000000  0.4571900000000  0.5340600000000 1.0
C      1  0.6113440000000  0.5904450000000  0.5965080000000 1.0
C      1  0.5420600000000  0.5422020000000  0.5282880000000 1.0
C      1  0.4027110000000  0.4662500000000  0.4166170000000 1.0
C      1  0.5804080000000  0.4534100000000  0.4486170000000 1.0
C      1  0.3455720000000  0.4215450000000  0.4245880000000 1.0
C      1  0.3238060000000  0.4082070000000  0.4192980000000 1.0
C      1  0.4475730000000  0.4809310000000  0.6306270000000 1.0
C      1  0.4930230000000  0.4923830000000  0.4176800000000 1.0
C      1  0.5243650000000  0.4612580000000  0.5219950000000 1.0
C      1  0.5137890000000  0.5448560000000  0.5255860000000 1.0
C      1  0.4150050000000  0.5662850000000  0.4276440000000 1.0
C      1  0.5324080000000  0.5317130000000  0.5937360000000 1.0
C      1  0.5010950000000  0.5231090000000  0.5124620000000 1.0
C      1  0.6254860000000  0.4423410000000  0.4999800000000 1.0
C      1  0.4447660000000  0.4960870000000  0.4115000000000 1.0
C      1  0.4770650000000  0.5081400000000  0.4721730000000 1.0
C      1  0.5529740000000  0.5389400000000  0.5762710000000 1.0
C      1  0.4531560000000  0.4582540000000  0.5564010000000 1.0
C      1  0.4630050000000  0.4867040000000  0.4832900000000 1.0
C      1  0.5729440000000  0.5566690000000  0.5843670000000 1.0
C      1  0.5931520000000  0.4663450000000  0.5314330000000 1.0
C      1  0.4286220000000  0.4600160000000  0.5650350000000 1.0
C      1  0.5168400000000  0.4821500000000  0.4235030000000 1.0
C      1  0.4898670000000  0.5089890000000  0.6153580000000 1.0
C      1  0.5002700000000  0.5188160000000  0.4845300000000 1.0
C      1  0.5007330000000  0.5697240000000  0.5233320000000 1.0
C      1  0.4682830000000  0.5036720000000  0.4244520000000 1.0
C      1  0.4825680000000  0.5647570000000  0.4567690000000 1.0
END
