TITL C-2323483-8886-592 0.000458047014658221 125000 -341.775547170007 0 0 60 (C2) n - 1
REM
REM in /home/bkarasulu/CARBON/AIRSS/Generating-Clusters/LCBOP/Higher-Symm/Only-C60/SD-CG/FIRE-HFTN
REM
REM
REM
REM
REM
REM ./C.cell (50c204cfd26239f34c78669fe23a5462)
REM
REM compiler GCC version 9.2.1 20190827 (Red Hat 9.2.1-1)
REM options -cpp -mtune=generic -march=x86-64 -g -O0 -fpre-include=/usr/include/finclude/math-vector-fortran.h
REM seed -1167479210 -942661990 274782959 1163708252 850115989 -1749935016 974866268 -1698831901 156354934 -250823895 -1016463082 -1586351672 -1874097220 24267131 -1875690452 1164653847 2011998439 1754131690 610173797 357876251 1007554328 649377870 -163520725 278591781 698129281 1425677671 -2075840662 371215640 -1649163823 1437372620 -1768395626 313417938 -2089391645
REM
CELL 1.54180   50.00000   50.00000   50.00000   90.00000   90.00000   90.00000
LATT -1
SFAC C  
C      1  0.5255910000000  0.4506670000000  0.5398270000000 1.0
C      1  0.4744100000000  0.5493320000000  0.5398280000000 1.0
C      1  0.5257630000000  0.4506160000000  0.4578190000000 1.0
C      1  0.4742370000000  0.5493850000000  0.4578200000000 1.0
C      1  0.5566470000000  0.5023690000000  0.4420900000000 1.0
C      1  0.4433520000000  0.4976330000000  0.4420900000000 1.0
C      1  0.5567480000000  0.5016190000000  0.5560830000000 1.0
C      1  0.4432520000000  0.4983790000000  0.5560830000000 1.0
C      1  0.5788570000000  0.5547760000000  0.4934620000000 1.0
C      1  0.4211430000000  0.4452240000000  0.4934610000000 1.0
C      1  0.5679430000000  0.5520200000000  0.5187740000000 1.0
C      1  0.4320570000000  0.4479800000000  0.5187720000000 1.0
C      1  0.4546480000000  0.5459830000000  0.5190630000000 1.0
C      1  0.5453520000000  0.4540170000000  0.5190610000000 1.0
C      1  0.4544790000000  0.5459260000000  0.4785770000000 1.0
C      1  0.5455210000000  0.4540740000000  0.4785760000000 1.0
C      1  0.4218740000000  0.4411070000000  0.5428270000000 1.0
C      1  0.5781270000000  0.5588920000000  0.5428280000000 1.0
C      1  0.4052250000000  0.4401360000000  0.4733990000000 1.0
C      1  0.5947750000000  0.5598640000000  0.4734000000000 1.0
C      1  0.5141660000000  0.4763260000000  0.5540440000000 1.0
C      1  0.4858350000000  0.5236730000000  0.5540450000000 1.0
C      1  0.5144360000000  0.4763240000000  0.4435890000000 1.0
C      1  0.4855640000000  0.5236770000000  0.4435900000000 1.0
C      1  0.4699210000000  0.4999730000000  0.5652980000000 1.0
C      1  0.5300800000000  0.5000260000000  0.5652980000000 1.0
C      1  0.4698760000000  0.4997090000000  0.4324730000000 1.0
C      1  0.5301240000000  0.5002930000000  0.4324720000000 1.0
C      1  0.4302820000000  0.5074440000000  0.5342040000000 1.0
C      1  0.5697180000000  0.4925550000000  0.5342030000000 1.0
C      1  0.4304590000000  0.5068640000000  0.4639520000000 1.0
C      1  0.5695410000000  0.4931370000000  0.4639510000000 1.0
C      1  0.4994840000000  0.5613670000000  0.5292740000000 1.0
C      1  0.5005160000000  0.4386320000000  0.5292720000000 1.0
C      1  0.4993940000000  0.5612410000000  0.4685140000000 1.0
C      1  0.5006050000000  0.4387600000000  0.4685130000000 1.0
C      1  0.5636660000000  0.4749130000000  0.4842900000000 1.0
C      1  0.4363340000000  0.5250880000000  0.4842910000000 1.0
C      1  0.5636450000000  0.4747710000000  0.5135570000000 1.0
C      1  0.4363550000000  0.5252280000000  0.5135580000000 1.0
C      1  0.5005050000000  0.5836420000000  0.4853490000000 1.0
C      1  0.4994950000000  0.4163580000000  0.4853470000000 1.0
C      1  0.5004740000000  0.5837240000000  0.5123590000000 1.0
C      1  0.4995260000000  0.4162750000000  0.5123560000000 1.0
C      1  0.5167680000000  0.5382420000000  0.5238300000000 1.0
C      1  0.4832320000000  0.4617570000000  0.5238290000000 1.0
C      1  0.5163150000000  0.5379060000000  0.4740040000000 1.0
C      1  0.4836840000000  0.4620950000000  0.4740030000000 1.0
C      1  0.5416230000000  0.5395110000000  0.4851010000000 1.0
C      1  0.4583770000000  0.4604890000000  0.4851010000000 1.0
C      1  0.5420760000000  0.5410620000000  0.5129610000000 1.0
C      1  0.4579250000000  0.4589380000000  0.5129600000000 1.0
C      1  0.4989070000000  0.4861550000000  0.5281900000000 1.0
C      1  0.5010930000000  0.5138440000000  0.5281900000000 1.0
C      1  0.4993680000000  0.4862510000000  0.4693950000000 1.0
C      1  0.5006320000000  0.5137500000000  0.4693950000000 1.0
C      1  0.5116420000000  0.5222190000000  0.5725240000000 1.0
C      1  0.4883590000000  0.4777790000000  0.5725230000000 1.0
C      1  0.5114590000000  0.5223110000000  0.4251780000000 1.0
C      1  0.4885410000000  0.4776910000000  0.4251770000000 1.0
END
