TITL C-2323487-9546-180 4.38629368816069e-06 125000 -358.147539830846 0 0 60 (S10) n - 1
REM
REM in /home/bkarasulu/CARBON/AIRSS/Generating-Clusters/LCBOP/Higher-Symm/Only-C60/SD-CG/FIRE-HFTN
REM
REM
REM
REM
REM
REM ./C.cell (50c204cfd26239f34c78669fe23a5462)
REM
REM compiler GCC version 9.2.1 20190827 (Red Hat 9.2.1-1)
REM options -cpp -mtune=generic -march=x86-64 -g -O0 -fpre-include=/usr/include/finclude/math-vector-fortran.h
REM seed -608223569 1487460325 -1064820863 -1206312258 894578530 -455036799 1510236779 -363816077 -1474213011 -712099380 -1775931038 2139551273 1852513126 563559283 -970630035 1392552625 -1313488812 -142708195 880244062 888700658 1773983252 -935783183 1874113553 -739503972 -1625392067 -2038651995 899676181 611433370 335477914 1355778930 1169358305 1989165679 -420625599
REM
CELL 1.54180   50.00000   50.00000   50.00000   90.00000   90.00000   90.00000
LATT -1
SFAC C  
C      1  0.5173740000000  0.4814460000000  0.4297710000000 1.0
C      1  0.5249610000000  0.4952020000000  0.5702290000000 1.0
C      1  0.5230150000000  0.5107890000000  0.4297710000000 1.0
C      1  0.5122770000000  0.5222570000000  0.5702290000000 1.0
C      1  0.4968500000000  0.5252220000000  0.4297710000000 1.0
C      1  0.4826260000000  0.5185540000000  0.5702290000000 1.0
C      1  0.4750390000000  0.5047980000000  0.4297710000000 1.0
C      1  0.4769850000000  0.4892110000000  0.5702290000000 1.0
C      1  0.4877230000000  0.4777430000000  0.4297710000000 1.0
C      1  0.5031500000000  0.4747780000000  0.5702290000000 1.0
C      1  0.5252520000000  0.4929260000000  0.4785020000000 1.0
C      1  0.5245880000000  0.5091200000000  0.5214980000000 1.0
C      1  0.5145310000000  0.5218300000000  0.4785020000000 1.0
C      1  0.4989240000000  0.5262030000000  0.5214980000000 1.0
C      1  0.4837290000000  0.5205660000000  0.4785020000000 1.0
C      1  0.4747480000000  0.5070740000000  0.5214980000000 1.0
C      1  0.4754120000000  0.4908800000000  0.4785020000000 1.0
C      1  0.4854690000000  0.4781700000000  0.5214980000000 1.0
C      1  0.5010760000000  0.4737970000000  0.4785020000000 1.0
C      1  0.5162710000000  0.4794340000000  0.5214980000000 1.0
C      1  0.4487210000000  0.4763300000000  0.4870120000000 1.0
C      1  0.4724270000000  0.4507090000000  0.5129880000000 1.0
C      1  0.5066660000000  0.4439160000000  0.4870130000000 1.0
C      1  0.5383580000000  0.4585450000000  0.5129880000000 1.0
C      1  0.5553990000000  0.4890080000000  0.4870130000000 1.0
C      1  0.5512790000000  0.5236700000000  0.5129880000000 1.0
C      1  0.5275730000000  0.5492910000000  0.4870120000000 1.0
C      1  0.4933340000000  0.5560840000000  0.5129870000000 1.0
C      1  0.4616420000000  0.5414550000000  0.4870120000000 1.0
C      1  0.4446010000000  0.5109920000000  0.5129870000000 1.0
C      1  0.4362680000000  0.4731760000000  0.5387740000000 1.0
C      1  0.4642070000000  0.4408370000000  0.4612270000000 1.0
C      1  0.5058170000000  0.4310980000000  0.5387740000000 1.0
C      1  0.5452060000000  0.4476760000000  0.4612270000000 1.0
C      1  0.5673270000000  0.4842410000000  0.5387740000000 1.0
C      1  0.5637320000000  0.5268240000000  0.4612260000000 1.0
C      1  0.5357930000000  0.5591630000000  0.5387730000000 1.0
C      1  0.4941830000000  0.5689020000000  0.4612260000000 1.0
C      1  0.4547940000000  0.5523240000000  0.5387730000000 1.0
C      1  0.4326730000000  0.5157590000000  0.4612260000000 1.0
C      1  0.5643530000000  0.5158310000000  0.4877570000000 1.0
C      1  0.5427570000000  0.5506330000000  0.5122420000000 1.0
C      1  0.5048300000000  0.5660950000000  0.4877570000000 1.0
C      1  0.4650580000000  0.5563110000000  0.5122420000000 1.0
C      1  0.4386320000000  0.5250180000000  0.4877570000000 1.0
C      1  0.4356470000000  0.4841690000000  0.5122430000000 1.0
C      1  0.4572430000000  0.4493670000000  0.4877580000000 1.0
C      1  0.4951700000000  0.4339050000000  0.5122430000000 1.0
C      1  0.5349420000000  0.4436890000000  0.4877580000000 1.0
C      1  0.5613680000000  0.4749820000000  0.5122430000000 1.0
C      1  0.5356840000000  0.4617010000000  0.4396350000000 1.0
C      1  0.5513800000000  0.4899910000000  0.5603660000000 1.0
C      1  0.5474510000000  0.5221020000000  0.4396340000000 1.0
C      1  0.5253970000000  0.5457730000000  0.5603660000000 1.0
C      1  0.4936420000000  0.5519580000000  0.4396340000000 1.0
C      1  0.4643160000000  0.5382990000000  0.5603650000000 1.0
C      1  0.4486200000000  0.5100090000000  0.4396340000000 1.0
C      1  0.4525490000000  0.4778980000000  0.5603660000000 1.0
C      1  0.4746030000000  0.4542270000000  0.4396340000000 1.0
C      1  0.5063580000000  0.4480420000000  0.5603660000000 1.0
END
