TITL C-2323484-8600-516 -0.14967804404673 125000 -364.280504489014 0 0 60 (C1) n - 1
REM
REM in /home/bkarasulu/CARBON/AIRSS/Generating-Clusters/LCBOP/Higher-Symm/Only-C60/SD-CG/FIRE-HFTN
REM
REM
REM
REM
REM
REM ./C.cell (50c204cfd26239f34c78669fe23a5462)
REM
REM compiler GCC version 9.2.1 20190827 (Red Hat 9.2.1-1)
REM options -cpp -mtune=generic -march=x86-64 -g -O0 -fpre-include=/usr/include/finclude/math-vector-fortran.h
REM seed 1181612641 -587608592 -1619619178 -1658799907 -1208373120 88622970 -989427684 174471510 -1009774690 890581662 -1231349809 662094186 1844579634 -1897084126 -603346065 -704180397 -1401792649 1879725797 -1502855091 -884746547 1580662773 -1611279393 -555656949 -471391613 -1962984000 -1153812885 -224409537 -1698324336 -1896290547 1832113997 1496340067 -525086690 -705305987
REM
CELL 1.54180   50.00000   50.00000   50.00000   90.00000   90.00000   90.00000
LATT -1
SFAC C  
C      1  0.5461920000000  0.5317090000000  0.5877570000000 1.0
C      1  0.4665140000000  0.5412760000000  0.4064270000000 1.0
C      1  0.4577710000000  0.6023600000000  0.4972720000000 1.0
C      1  0.4702880000000  0.5998030000000  0.5205580000000 1.0
C      1  0.5151960000000  0.5741860000000  0.5799530000000 1.0
C      1  0.4408760000000  0.5826070000000  0.4245250000000 1.0
C      1  0.4805690000000  0.5154890000000  0.4478880000000 1.0
C      1  0.5470800000000  0.5012950000000  0.5463550000000 1.0
C      1  0.5027970000000  0.4996660000000  0.4895500000000 1.0
C      1  0.5271630000000  0.4929800000000  0.5020960000000 1.0
C      1  0.5127020000000  0.4433660000000  0.4372290000000 1.0
C      1  0.4811990000000  0.4567940000000  0.5638790000000 1.0
C      1  0.5353340000000  0.4654830000000  0.5028880000000 1.0
C      1  0.4790750000000  0.4844690000000  0.4952190000000 1.0
C      1  0.5168530000000  0.5413240000000  0.4603750000000 1.0
C      1  0.5526240000000  0.5369490000000  0.5173120000000 1.0
C      1  0.5007340000000  0.4980320000000  0.6201530000000 1.0
C      1  0.5061590000000  0.4928950000000  0.3833480000000 1.0
C      1  0.4914210000000  0.4610920000000  0.5899100000000 1.0
C      1  0.5024270000000  0.4545710000000  0.4133420000000 1.0
C      1  0.5299390000000  0.4284800000000  0.5341280000000 1.0
C      1  0.4551060000000  0.4490640000000  0.4718280000000 1.0
C      1  0.4778990000000  0.4966950000000  0.3820050000000 1.0
C      1  0.5288120000000  0.4929950000000  0.6185520000000 1.0
C      1  0.4532430000000  0.4946960000000  0.5645730000000 1.0
C      1  0.5537820000000  0.4662440000000  0.4343900000000 1.0
C      1  0.5194650000000  0.4745390000000  0.4002740000000 1.0
C      1  0.4818590000000  0.4854430000000  0.6032140000000 1.0
C      1  0.5455910000000  0.4768630000000  0.4107710000000 1.0
C      1  0.4601970000000  0.4985070000000  0.5905590000000 1.0
C      1  0.4638090000000  0.4755410000000  0.4726180000000 1.0
C      1  0.5388330000000  0.4544480000000  0.5291540000000 1.0
C      1  0.4493640000000  0.5632660000000  0.4082670000000 1.0
C      1  0.5319070000000  0.5558550000000  0.5895380000000 1.0
C      1  0.5620260000000  0.5445920000000  0.5421750000000 1.0
C      1  0.5065020000000  0.5519420000000  0.4370080000000 1.0
C      1  0.5555810000000  0.5244120000000  0.5622200000000 1.0
C      1  0.4835310000000  0.5366930000000  0.4282980000000 1.0
C      1  0.4908560000000  0.4018670000000  0.5140920000000 1.0
C      1  0.4713650000000  0.4071830000000  0.4967550000000 1.0
C      1  0.4665550000000  0.4755600000000  0.5483230000000 1.0
C      1  0.5362560000000  0.4513220000000  0.4511060000000 1.0
C      1  0.4630280000000  0.4939310000000  0.4512740000000 1.0
C      1  0.5461890000000  0.4733090000000  0.5490730000000 1.0
C      1  0.4757940000000  0.4534580000000  0.4038280000000 1.0
C      1  0.5157700000000  0.4505630000000  0.5998930000000 1.0
C      1  0.4473560000000  0.6015650000000  0.4728470000000 1.0
C      1  0.4839830000000  0.5949110000000  0.5427830000000 1.0
C      1  0.5384540000000  0.4516240000000  0.4788560000000 1.0
C      1  0.4704120000000  0.4788350000000  0.5210750000000 1.0
C      1  0.4583200000000  0.4242860000000  0.4810610000000 1.0
C      1  0.5121940000000  0.4095660000000  0.5280350000000 1.0
C      1  0.4669710000000  0.5221690000000  0.3858980000000 1.0
C      1  0.5453200000000  0.5133660000000  0.6089120000000 1.0
C      1  0.4989090000000  0.5869000000000  0.5632440000000 1.0
C      1  0.4409030000000  0.5955080000000  0.4477880000000 1.0
C      1  0.5016230000000  0.5183250000000  0.4685830000000 1.0
C      1  0.5412780000000  0.5106450000000  0.5186880000000 1.0
C      1  0.4638800000000  0.4729340000000  0.3890100000000 1.0
C      1  0.5341630000000  0.4655530000000  0.6132660000000 1.0
END
