TITL C-2323484-8600-213 0.00150075033968306 125000 -361.723833028844 0 0 60 (C1) n - 1
REM
REM in /home/bkarasulu/CARBON/AIRSS/Generating-Clusters/LCBOP/Higher-Symm/Only-C60/SD-CG/FIRE-HFTN
REM
REM
REM
REM
REM
REM ./C.cell (50c204cfd26239f34c78669fe23a5462)
REM
REM compiler GCC version 9.2.1 20190827 (Red Hat 9.2.1-1)
REM options -cpp -mtune=generic -march=x86-64 -g -O0 -fpre-include=/usr/include/finclude/math-vector-fortran.h
REM seed 1562227455 1174943931 -2038992991 -1685609848 1247133929 -928049315 -1199407189 -1125719000 -1479060019 -894088620 1476187563 -1963304396 1153556240 2017470891 -603457808 -2133588189 -456310935 -620980987 1319568674 -526348042 -653898207 -119109 -239954615 2043034831 -564807614 -1597369199 124846003 382126145 -846566178 -1279676119 -605319854 -896155346 -1814674379
REM
CELL 1.54180   50.00000   50.00000   50.00000   90.00000   90.00000   90.00000
LATT -1
SFAC C  
C      1  0.5625670000000  0.4938310000000  0.5341110000000 1.0
C      1  0.5126330000000  0.4375200000000  0.5389610000000 1.0
C      1  0.4387040000000  0.4652900000000  0.5413350000000 1.0
C      1  0.4473190000000  0.5434520000000  0.5458100000000 1.0
C      1  0.5198460000000  0.5618520000000  0.5446520000000 1.0
C      1  0.4436970000000  0.5152560000000  0.5432720000000 1.0
C      1  0.4853680000000  0.4460210000000  0.5400460000000 1.0
C      1  0.5290540000000  0.4608450000000  0.5374460000000 1.0
C      1  0.5551580000000  0.5369750000000  0.5391330000000 1.0
C      1  0.4754440000000  0.5476060000000  0.5456160000000 1.0
C      1  0.4544790000000  0.4733810000000  0.5641430000000 1.0
C      1  0.4745350000000  0.5161690000000  0.5811620000000 1.0
C      1  0.5184180000000  0.5426040000000  0.5677690000000 1.0
C      1  0.5475060000000  0.4976570000000  0.5600860000000 1.0
C      1  0.5040110000000  0.4721240000000  0.5761760000000 1.0
C      1  0.5285770000000  0.4764680000000  0.5620940000000 1.0
C      1  0.5425340000000  0.5259970000000  0.5640880000000 1.0
C      1  0.4899650000000  0.5369220000000  0.5691860000000 1.0
C      1  0.4541900000000  0.5014860000000  0.5670500000000 1.0
C      1  0.4799750000000  0.4607920000000  0.5646450000000 1.0
C      1  0.5263450000000  0.5358390000000  0.4343980000000 1.0
C      1  0.5526560000000  0.4989730000000  0.4164600000000 1.0
C      1  0.5215910000000  0.4642540000000  0.4282330000000 1.0
C      1  0.4741930000000  0.4765490000000  0.4287220000000 1.0
C      1  0.4765280000000  0.5217270000000  0.4509750000000 1.0
C      1  0.4986890000000  0.5316110000000  0.4362040000000 1.0
C      1  0.4646720000000  0.4988550000000  0.4401800000000 1.0
C      1  0.4948540000000  0.4584530000000  0.4347920000000 1.0
C      1  0.5448050000000  0.4791150000000  0.4347030000000 1.0
C      1  0.5421690000000  0.5236790000000  0.4146830000000 1.0
C      1  0.5077660000000  0.4457250000000  0.4790200000000 1.0
C      1  0.4337000000000  0.4651180000000  0.4913430000000 1.0
C      1  0.4710740000000  0.5347710000000  0.4757650000000 1.0
C      1  0.5394700000000  0.5450060000000  0.4580940000000 1.0
C      1  0.5540410000000  0.5016130000000  0.4793580000000 1.0
C      1  0.4898700000000  0.4419580000000  0.4575000000000 1.0
C      1  0.5545980000000  0.4786490000000  0.4618280000000 1.0
C      1  0.5597970000000  0.5282920000000  0.4694910000000 1.0
C      1  0.4779550000000  0.5626880000000  0.4751490000000 1.0
C      1  0.4097140000000  0.4782970000000  0.4858320000000 1.0
C      1  0.5560230000000  0.4526440000000  0.4729580000000 1.0
C      1  0.4637690000000  0.4333340000000  0.4629810000000 1.0
C      1  0.3881930000000  0.4930410000000  0.4812200000000 1.0
C      1  0.5018770000000  0.5751980000000  0.4740510000000 1.0
C      1  0.5860650000000  0.5377670000000  0.4709890000000 1.0
C      1  0.4426330000000  0.4436070000000  0.4756890000000 1.0
C      1  0.5345980000000  0.4370040000000  0.4780760000000 1.0
C      1  0.6104910000000  0.5465590000000  0.4732480000000 1.0
C      1  0.5274320000000  0.5676190000000  0.4699210000000 1.0
C      1  0.3672730000000  0.5079670000000  0.4768470000000 1.0
C      1  0.5443080000000  0.4998990000000  0.5084220000000 1.0
C      1  0.5013710000000  0.4653990000000  0.4988460000000 1.0
C      1  0.4506260000000  0.4740520000000  0.5141420000000 1.0
C      1  0.4707960000000  0.5238630000000  0.5024680000000 1.0
C      1  0.5150800000000  0.5467410000000  0.5195410000000 1.0
C      1  0.4531590000000  0.5049740000000  0.5168750000000 1.0
C      1  0.4781420000000  0.4604920000000  0.5153790000000 1.0
C      1  0.5240480000000  0.4767940000000  0.5128430000000 1.0
C      1  0.5380670000000  0.5298630000000  0.5157020000000 1.0
C      1  0.4875800000000  0.5397620000000  0.5202900000000 1.0
END
