TITL C-2323492-8884-619 -1.81346311934842e-07 125000 -415.942885872526 0 0 60 (Ih) n - 1
REM
REM in /home/bkarasulu/CARBON/AIRSS/Generating-Clusters/LCBOP/Higher-Symm/Only-C60/SD-CG/FIRE-HFTN
REM
REM
REM
REM
REM
REM ./C.cell (50c204cfd26239f34c78669fe23a5462)
REM
REM compiler GCC version 9.2.1 20190827 (Red Hat 9.2.1-1)
REM options -cpp -mtune=generic -march=x86-64 -g -O0 -fpre-include=/usr/include/finclude/math-vector-fortran.h
REM seed -1555465261 -2106870709 -1011630745 682747739 -496990252 -391636491 1011021123 -177847057 -1510386244 304977363 -1022501057 -150605933 670499927 1101744268 -1176764013 1704673196 1535655424 220273758 1925840691 63460532 -137834210 546037991 -901799796 1849791154 1051279804 -1517847664 -1123540730 -1448903627 -1454433449 1926978959 662612443 -1719684429 -992205278
REM
CELL 1.54180   50.00000   50.00000   50.00000   90.00000   90.00000   90.00000
LATT -1
SFAC C  
C      1  0.5235920000000  0.4390060000000  0.4713160000000 1.0
C      1  0.4713150000000  0.5235910000000  0.4390060000000 1.0
C      1  0.4390070000000  0.4713150000000  0.5235920000000 1.0
C      1  0.5235920000000  0.5609940000000  0.5286840000000 1.0
C      1  0.4764080000000  0.5609930000000  0.4713150000000 1.0
C      1  0.4764080000000  0.4390070000000  0.5286850000000 1.0
C      1  0.4713150000000  0.4764090000000  0.5609940000000 1.0
C      1  0.5286850000000  0.4764080000000  0.4390070000000 1.0
C      1  0.5286850000000  0.5235920000000  0.5609930000000 1.0
C      1  0.4390060000000  0.5286850000000  0.4764080000000 1.0
C      1  0.5609930000000  0.5286850000000  0.5235910000000 1.0
C      1  0.5609930000000  0.4713150000000  0.4764080000000 1.0
C      1  0.4764080000000  0.4390060000000  0.4713160000000 1.0
C      1  0.5286850000000  0.5235910000000  0.4390060000000 1.0
C      1  0.5609940000000  0.4713150000000  0.5235920000000 1.0
C      1  0.4764080000000  0.5609940000000  0.5286840000000 1.0
C      1  0.5235920000000  0.5609930000000  0.4713150000000 1.0
C      1  0.5235920000000  0.4390070000000  0.5286850000000 1.0
C      1  0.5286850000000  0.4764090000000  0.5609940000000 1.0
C      1  0.4713150000000  0.4764080000000  0.4390070000000 1.0
C      1  0.4713150000000  0.5235920000000  0.5609930000000 1.0
C      1  0.5609930000000  0.5286850000000  0.4764080000000 1.0
C      1  0.4390070000000  0.5286850000000  0.5235920000000 1.0
C      1  0.4390070000000  0.4713150000000  0.4764090000000 1.0
C      1  0.5522770000000  0.4854200000000  0.5464130000000 1.0
C      1  0.5464130000000  0.5522760000000  0.4854190000000 1.0
C      1  0.4854200000000  0.5464130000000  0.5522760000000 1.0
C      1  0.5522760000000  0.5145800000000  0.4535870000000 1.0
C      1  0.4477240000000  0.5145810000000  0.5464130000000 1.0
C      1  0.4477230000000  0.4854190000000  0.4535870000000 1.0
C      1  0.5464130000000  0.4477240000000  0.5145810000000 1.0
C      1  0.4535870000000  0.4477230000000  0.4854200000000 1.0
C      1  0.4535870000000  0.5522770000000  0.5145800000000 1.0
C      1  0.4854190000000  0.4535870000000  0.4477240000000 1.0
C      1  0.5145810000000  0.4535870000000  0.5522770000000 1.0
C      1  0.5145800000000  0.5464130000000  0.4477230000000 1.0
C      1  0.4477240000000  0.4854200000000  0.5464130000000 1.0
C      1  0.4535870000000  0.5522760000000  0.4854190000000 1.0
C      1  0.5145810000000  0.5464130000000  0.5522760000000 1.0
C      1  0.4477230000000  0.5145800000000  0.4535870000000 1.0
C      1  0.5522770000000  0.5145810000000  0.5464130000000 1.0
C      1  0.5522760000000  0.4854190000000  0.4535870000000 1.0
C      1  0.4535870000000  0.4477240000000  0.5145810000000 1.0
C      1  0.5464130000000  0.4477230000000  0.4854200000000 1.0
C      1  0.5464130000000  0.5522770000000  0.5145800000000 1.0
C      1  0.5145800000000  0.4535870000000  0.4477240000000 1.0
C      1  0.4854200000000  0.4535870000000  0.5522770000000 1.0
C      1  0.4854190000000  0.5464130000000  0.4477230000000 1.0
C      1  0.4299950000000  0.5141040000000  0.5000000000000 1.0
C      1  0.5141040000000  0.5000000000000  0.4299950000000 1.0
C      1  0.4299950000000  0.4858960000000  0.5000000000000 1.0
C      1  0.5700050000000  0.4858960000000  0.5000000000000 1.0
C      1  0.5700050000000  0.5141040000000  0.5000000000000 1.0
C      1  0.5141040000000  0.5000000000000  0.5700050000000 1.0
C      1  0.4858960000000  0.5000000000000  0.5700050000000 1.0
C      1  0.4858960000000  0.5000000000000  0.4299950000000 1.0
C      1  0.5000000000000  0.4299950000000  0.5141050000000 1.0
C      1  0.5000000000000  0.5700050000000  0.4858950000000 1.0
C      1  0.5000000000000  0.5700050000000  0.5141040000000 1.0
C      1  0.5000000000000  0.4299950000000  0.4858960000000 1.0
END
