TITL C-2323490-8774-15 0.000325940154243263 125000 -350.054735410014 0 0 60 (C3) n - 1
REM
REM in /home/bkarasulu/CARBON/AIRSS/Generating-Clusters/LCBOP/Higher-Symm/Only-C60/SD-CG/FIRE-HFTN
REM
REM
REM
REM
REM
REM ./C.cell (50c204cfd26239f34c78669fe23a5462)
REM
REM compiler GCC version 9.2.1 20190827 (Red Hat 9.2.1-1)
REM options -cpp -mtune=generic -march=x86-64 -g -O0 -fpre-include=/usr/include/finclude/math-vector-fortran.h
REM seed 1958047694 1256952910 1474975009 1261058449 -2122710597 -1688139053 721633746 -1128999103 1051563973 1442098082 85509869 -1309943789 -1977560893 -857410598 2093192397 247080462 -860116874 -1007480033 593754826 879041346 1600257991 1223863726 -387386479 -1107457691 -1328200980 446033855 -1638564065 418561315 -488579505 1628919960 -157909354 728493716 -288584973
REM
CELL 1.54180   50.00000   50.00000   50.00000   90.00000   90.00000   90.00000
LATT -1
SFAC C  
C      1  0.5748900000000  0.5374040000000  0.4284440000000 1.0
C      1  0.5751490000000  0.4196680000000  0.5031770000000 1.0
C      1  0.5749690000000  0.5434250000000  0.5687820000000 1.0
C      1  0.5412620000000  0.5195300000000  0.4936350000000 1.0
C      1  0.5414260000000  0.4846150000000  0.4854480000000 1.0
C      1  0.5413200000000  0.4960490000000  0.5207290000000 1.0
C      1  0.4081550000000  0.4953350000000  0.5530560000000 1.0
C      1  0.4081550000000  0.5483770000000  0.4775850000000 1.0
C      1  0.4078920000000  0.4565100000000  0.4694370000000 1.0
C      1  0.4901920000000  0.4669690000000  0.4224920000000 1.0
C      1  0.4903990000000  0.4494380000000  0.5671730000000 1.0
C      1  0.4904750000000  0.5834320000000  0.5102050000000 1.0
C      1  0.5057040000000  0.5573520000000  0.5482530000000 1.0
C      1  0.5055270000000  0.5129090000000  0.4263310000000 1.0
C      1  0.5057600000000  0.4299340000000  0.5254160000000 1.0
C      1  0.5073860000000  0.6004480000000  0.4672900000000 1.0
C      1  0.5070220000000  0.4212270000000  0.4289870000000 1.0
C      1  0.5071310000000  0.4778020000000  0.6036810000000 1.0
C      1  0.5365140000000  0.5437030000000  0.4808770000000 1.0
C      1  0.5365610000000  0.4613750000000  0.4711430000000 1.0
C      1  0.5365200000000  0.4948550000000  0.5480160000000 1.0
C      1  0.4242050000000  0.5229170000000  0.5160780000000 1.0
C      1  0.4240940000000  0.5025310000000  0.4721480000000 1.0
C      1  0.4241450000000  0.4746880000000  0.5117590000000 1.0
C      1  0.5050720000000  0.5312520000000  0.5608030000000 1.0
C      1  0.5049710000000  0.5365880000000  0.4430060000000 1.0
C      1  0.5051490000000  0.4322620000000  0.4965520000000 1.0
C      1  0.5051120000000  0.4897610000000  0.6267470000000 1.0
C      1  0.5054870000000  0.6142820000000  0.4452870000000 1.0
C      1  0.5050220000000  0.3952620000000  0.4280110000000 1.0
C      1  0.4378740000000  0.5429090000000  0.5299520000000 1.0
C      1  0.4377030000000  0.5045040000000  0.4478600000000 1.0
C      1  0.4378460000000  0.4526800000000  0.5220970000000 1.0
C      1  0.5439900000000  0.4815070000000  0.4270390000000 1.0
C      1  0.5441800000000  0.4465730000000  0.5521400000000 1.0
C      1  0.5442160000000  0.5717860000000  0.5204110000000 1.0
C      1  0.5495320000000  0.5299360000000  0.4344650000000 1.0
C      1  0.5497450000000  0.4285080000000  0.5065720000000 1.0
C      1  0.5496620000000  0.5418360000000  0.5591920000000 1.0
C      1  0.4583590000000  0.5585670000000  0.5363090000000 1.0
C      1  0.4581530000000  0.5020660000000  0.4310950000000 1.0
C      1  0.4583670000000  0.4393930000000  0.5324640000000 1.0
C      1  0.4185570000000  0.4770850000000  0.4838820000000 1.0
C      1  0.4186880000000  0.4975690000000  0.5279600000000 1.0
C      1  0.4186730000000  0.5255070000000  0.4881750000000 1.0
C      1  0.5098900000000  0.5844750000000  0.4898700000000 1.0
C      1  0.5096370000000  0.4487560000000  0.4315370000000 1.0
C      1  0.5097610000000  0.4664320000000  0.5784810000000 1.0
C      1  0.4844580000000  0.5681120000000  0.5330590000000 1.0
C      1  0.4842410000000  0.4944280000000  0.4244670000000 1.0
C      1  0.4844660000000  0.4374940000000  0.5423680000000 1.0
C      1  0.5347190000000  0.5623380000000  0.5450370000000 1.0
C      1  0.5345250000000  0.5076480000000  0.4234190000000 1.0
C      1  0.5347590000000  0.4302510000000  0.5313910000000 1.0
C      1  0.5313790000000  0.5192030000000  0.5613140000000 1.0
C      1  0.5313130000000  0.5429300000000  0.4531590000000 1.0
C      1  0.5314530000000  0.4378830000000  0.4858860000000 1.0
C      1  0.5326680000000  0.4612020000000  0.4429860000000 1.0
C      1  0.5327310000000  0.4703850000000  0.5619520000000 1.0
C      1  0.5327880000000  0.5681370000000  0.4949110000000 1.0
END
