TITL C-2323492-8884-84 0.00558965257865773 125000 -357.51464710496 0 0 60 (Cs) n - 1
REM
REM in /home/bkarasulu/CARBON/AIRSS/Generating-Clusters/LCBOP/Higher-Symm/Only-C60/SD-CG/FIRE-HFTN
REM
REM
REM
REM
REM
REM ./C.cell (50c204cfd26239f34c78669fe23a5462)
REM
REM compiler GCC version 9.2.1 20190827 (Red Hat 9.2.1-1)
REM options -cpp -mtune=generic -march=x86-64 -g -O0 -fpre-include=/usr/include/finclude/math-vector-fortran.h
REM seed 217027011 346810349 -82023114 1508952787 581484979 1062858641 135668540 -1409192990 1646326822 -1606484713 -684875303 135442828 -287683208 249070523 1865134717 25598193 433835493 -1369625880 -939506007 1949311447 -283955678 1420104398 -692284206 -419784726 -2119333462 1473735086 -729354850 -1430001842 -1547791199 637361226 -846233023 1296313001 -1070182102
REM
CELL 1.54180   50.00000   50.00000   50.00000   90.00000   90.00000   90.00000
LATT -1
SFAC C  
C      1  0.5285280000000  0.4980290000000  0.4943870000000 1.0
C      1  0.5116210000000  0.5081970000000  0.4695970000000 1.0
C      1  0.4847170000000  0.4983620000000  0.4658490000000 1.0
C      1  0.4443580000000  0.4842730000000  0.5106910000000 1.0
C      1  0.4987190000000  0.4974210000000  0.5373400000000 1.0
C      1  0.5222700000000  0.5074820000000  0.5239710000000 1.0
C      1  0.5248680000000  0.5737290000000  0.4961000000000 1.0
C      1  0.5061460000000  0.5758940000000  0.4747360000000 1.0
C      1  0.4784030000000  0.5718670000000  0.4801120000000 1.0
C      1  0.4694250000000  0.5683900000000  0.5068880000000 1.0
C      1  0.4878570000000  0.5712320000000  0.5283800000000 1.0
C      1  0.5155980000000  0.5752590000000  0.5229950000000 1.0
C      1  0.4319720000000  0.5311210000000  0.5137330000000 1.0
C      1  0.4812180000000  0.5346880000000  0.5635620000000 1.0
C      1  0.5442660000000  0.5436860000000  0.5489170000000 1.0
C      1  0.5603860000000  0.5357040000000  0.4886430000000 1.0
C      1  0.5227620000000  0.5451310000000  0.4391240000000 1.0
C      1  0.4588040000000  0.5361940000000  0.4491180000000 1.0
C      1  0.3733120000000  0.4897240000000  0.5246780000000 1.0
C      1  0.4817410000000  0.4730620000000  0.6030130000000 1.0
C      1  0.5804500000000  0.4795830000000  0.5548500000000 1.0
C      1  0.5950400000000  0.4698730000000  0.4809890000000 1.0
C      1  0.5537170000000  0.4813790000000  0.4183580000000 1.0
C      1  0.4441020000000  0.4755920000000  0.4108360000000 1.0
C      1  0.4845460000000  0.4906760000000  0.5834240000000 1.0
C      1  0.5629420000000  0.4988380000000  0.5498950000000 1.0
C      1  0.5776150000000  0.4894820000000  0.4846600000000 1.0
C      1  0.5394670000000  0.5004160000000  0.4300370000000 1.0
C      1  0.4541760000000  0.4927170000000  0.4283600000000 1.0
C      1  0.3984180000000  0.4966790000000  0.5198520000000 1.0
C      1  0.5036390000000  0.4557100000000  0.4750720000000 1.0
C      1  0.4806620000000  0.4732990000000  0.4786320000000 1.0
C      1  0.4698430000000  0.4741580000000  0.5055660000000 1.0
C      1  0.4900170000000  0.4726700000000  0.5263990000000 1.0
C      1  0.5125530000000  0.4551110000000  0.5205830000000 1.0
C      1  0.5231540000000  0.4670730000000  0.4950320000000 1.0
C      1  0.4879990000000  0.5076370000000  0.5615040000000 1.0
C      1  0.5435970000000  0.5168490000000  0.5408990000000 1.0
C      1  0.5568970000000  0.5076080000000  0.4889560000000 1.0
C      1  0.5250340000000  0.5180970000000  0.4461190000000 1.0
C      1  0.4657260000000  0.5091340000000  0.4477800000000 1.0
C      1  0.4248700000000  0.5040070000000  0.5147670000000 1.0
C      1  0.5974900000000  0.4600860000000  0.5578590000000 1.0
C      1  0.6113850000000  0.4498640000000  0.4775250000000 1.0
C      1  0.5682670000000  0.4620500000000  0.4086510000000 1.0
C      1  0.4343280000000  0.4584810000000  0.3937690000000 1.0
C      1  0.3486090000000  0.4828790000000  0.5294260000000 1.0
C      1  0.4790410000000  0.4554760000000  0.6220660000000 1.0
C      1  0.5119620000000  0.4263880000000  0.5205670000000 1.0
C      1  0.5218340000000  0.4167960000000  0.4946280000000 1.0
C      1  0.5029550000000  0.4269940000000  0.4745810000000 1.0
C      1  0.4774840000000  0.4141470000000  0.4787640000000 1.0
C      1  0.4702220000000  0.4079250000000  0.5046200000000 1.0
C      1  0.4867310000000  0.4135260000000  0.5259760000000 1.0
C      1  0.5490160000000  0.5598100000000  0.4911870000000 1.0
C      1  0.5155820000000  0.5688880000000  0.4491310000000 1.0
C      1  0.4628220000000  0.5602700000000  0.4597900000000 1.0
C      1  0.4458410000000  0.5536880000000  0.5113140000000 1.0
C      1  0.4810340000000  0.5590460000000  0.5527770000000 1.0
C      1  0.5339600000000  0.5676530000000  0.5429630000000 1.0
END
