TITL C-2323485-8600-336 10.3287970136151 125000 -356.962999018313 0 0 60 (C1) n - 1
REM
REM in /home/bkarasulu/CARBON/AIRSS/Generating-Clusters/LCBOP/Higher-Symm/Only-C60/SD-CG/FIRE-HFTN
REM
REM
REM
REM
REM
REM ./C.cell (50c204cfd26239f34c78669fe23a5462)
REM
REM compiler GCC version 9.2.1 20190827 (Red Hat 9.2.1-1)
REM options -cpp -mtune=generic -march=x86-64 -g -O0 -fpre-include=/usr/include/finclude/math-vector-fortran.h
REM seed 1758438109 -547959296 -1023877755 1043533708 -1686029500 -743238168 -545599569 -602892786 -150646315 892710874 858809616 -242957955 -180238243 384738123 -1478197768 -2013098864 1043484316 -1388408442 -1835541949 -349844453 -758601463 -1511834236 1547653401 1930087651 -362982296 -1711215083 670707289 -204980177 269530143 595615079 1889957581 1726510916 -1413552198
REM
CELL 1.54180   50.00000   50.00000   50.00000   90.00000   90.00000   90.00000
LATT -1
SFAC C  
C      1  0.4377360000000  0.5040410000000  0.4886710000000 1.0
C      1  0.5082090000000  0.5662540000000  0.5006550000000 1.0
C      1  0.5742690000000  0.4901900000000  0.4969110000000 1.0
C      1  0.4987420000000  0.4305480000000  0.5023550000000 1.0
C      1  0.4647570000000  0.3984680000000  0.5585480000000 1.0
C      1  0.4124820000000  0.5326880000000  0.4267390000000 1.0
C      1  0.5329500000000  0.5926070000000  0.5644270000000 1.0
C      1  0.5370660000000  0.4682340000000  0.4389460000000 1.0
C      1  0.4612720000000  0.3801130000000  0.5767160000000 1.0
C      1  0.3966670000000  0.5345440000000  0.4061090000000 1.0
C      1  0.5342920000000  0.6088120000000  0.5847930000000 1.0
C      1  0.5104750000000  0.4767320000000  0.4370160000000 1.0
C      1  0.4370490000000  0.5048670000000  0.4597430000000 1.0
C      1  0.5060590000000  0.5706090000000  0.5291740000000 1.0
C      1  0.5750620000000  0.4876310000000  0.4671370000000 1.0
C      1  0.4949930000000  0.4259870000000  0.5305800000000 1.0
C      1  0.4869400000000  0.4694600000000  0.4794300000000 1.0
C      1  0.4493790000000  0.5242040000000  0.5323370000000 1.0
C      1  0.5274530000000  0.5413240000000  0.4649620000000 1.0
C      1  0.5461980000000  0.4772190000000  0.5358350000000 1.0
C      1  0.4957980000000  0.4861110000000  0.5368670000000 1.0
C      1  0.4879810000000  0.5150330000000  0.4655290000000 1.0
C      1  0.4952110000000  0.5141270000000  0.5404460000000 1.0
C      1  0.5292830000000  0.4955350000000  0.4805520000000 1.0
C      1  0.4554190000000  0.4880270000000  0.4453120000000 1.0
C      1  0.4834020000000  0.5599990000000  0.5432160000000 1.0
C      1  0.5660060000000  0.5112390000000  0.4542190000000 1.0
C      1  0.5118490000000  0.4421620000000  0.5467430000000 1.0
C      1  0.4688160000000  0.4181020000000  0.5393200000000 1.0
C      1  0.4294750000000  0.5303540000000  0.4485820000000 1.0
C      1  0.5310200000000  0.5751970000000  0.5428250000000 1.0
C      1  0.5621830000000  0.4640050000000  0.4546440000000 1.0
C      1  0.4407290000000  0.5529270000000  0.4619400000000 1.0
C      1  0.5536170000000  0.5610510000000  0.5327760000000 1.0
C      1  0.5644760000000  0.4409730000000  0.4714390000000 1.0
C      1  0.4472990000000  0.4318670000000  0.5266070000000 1.0
C      1  0.5044900000000  0.5219610000000  0.5139380000000 1.0
C      1  0.5273310000000  0.5092460000000  0.5051440000000 1.0
C      1  0.4784850000000  0.4860080000000  0.5042550000000 1.0
C      1  0.4852500000000  0.5130600000000  0.4945300000000 1.0
C      1  0.4564230000000  0.5517350000000  0.4860570000000 1.0
C      1  0.5560250000000  0.5442460000000  0.5092370000000 1.0
C      1  0.5518820000000  0.4437290000000  0.4969860000000 1.0
C      1  0.4504710000000  0.4497040000000  0.5046820000000 1.0
C      1  0.5169460000000  0.4693960000000  0.4821490000000 1.0
C      1  0.4426940000000  0.4953630000000  0.5346450000000 1.0
C      1  0.4986160000000  0.5414380000000  0.4618250000000 1.0
C      1  0.5584930000000  0.5036720000000  0.5394350000000 1.0
C      1  0.4751240000000  0.4430240000000  0.4887410000000 1.0
C      1  0.4451090000000  0.5304430000000  0.5035820000000 1.0
C      1  0.5345810000000  0.5542830000000  0.4902090000000 1.0
C      1  0.5613050000000  0.4667290000000  0.5121980000000 1.0
C      1  0.4852510000000  0.5588110000000  0.4827320000000 1.0
C      1  0.5688110000000  0.5165010000000  0.5139460000000 1.0
C      1  0.5235000000000  0.4437870000000  0.4942650000000 1.0
C      1  0.4486600000000  0.4806170000000  0.5081080000000 1.0
C      1  0.5185170000000  0.4694780000000  0.5421450000000 1.0
C      1  0.4844970000000  0.4866170000000  0.4530380000000 1.0
C      1  0.4737740000000  0.5330990000000  0.5449240000000 1.0
C      1  0.5391500000000  0.5158110000000  0.4611290000000 1.0
END
