TITL C-2323487-9546-65 0.00150611540333716 125000 -343.115952473403 0 0 60 (Cs) n - 1
REM
REM in /home/bkarasulu/CARBON/AIRSS/Generating-Clusters/LCBOP/Higher-Symm/Only-C60/SD-CG/FIRE-HFTN
REM
REM
REM
REM
REM
REM ./C.cell (50c204cfd26239f34c78669fe23a5462)
REM
REM compiler GCC version 9.2.1 20190827 (Red Hat 9.2.1-1)
REM options -cpp -mtune=generic -march=x86-64 -g -O0 -fpre-include=/usr/include/finclude/math-vector-fortran.h
REM seed 582064569 555509983 1409472366 -522000948 1601851455 -1478377662 -1317449094 -279780826 1783630374 427784535 543805374 252010669 -15512394 -610172067 1084037071 -2113450627 810818413 857634198 -981574911 1392086122 -2071487514 -1605992793 2124064003 586329013 -569518771 -2121136925 1671849141 -1988207633 -283459652 167202202 98566014 1892443158 -1172458936
REM
CELL 1.54180   50.00000   50.00000   50.00000   90.00000   90.00000   90.00000
LATT -1
SFAC C  
C      1  0.4726450000000  0.4508620000000  0.4460050000000 1.0
C      1  0.4727260000000  0.4455250000000  0.5486510000000 1.0
C      1  0.4727740000000  0.5508600000000  0.5558250000000 1.0
C      1  0.4726900000000  0.5563730000000  0.4497930000000 1.0
C      1  0.5400290000000  0.5117130000000  0.5494070000000 1.0
C      1  0.5392740000000  0.5493420000000  0.4883410000000 1.0
C      1  0.5407740000000  0.4881220000000  0.4500040000000 1.0
C      1  0.5383640000000  0.4510980000000  0.5116750000000 1.0
C      1  0.5353860000000  0.5349380000000  0.5659590000000 1.0
C      1  0.5351030000000  0.5659680000000  0.4652070000000 1.0
C      1  0.5355420000000  0.4652050000000  0.4333920000000 1.0
C      1  0.5350610000000  0.4339840000000  0.5347190000000 1.0
C      1  0.5113530000000  0.4230300000000  0.4576210000000 1.0
C      1  0.5111450000000  0.4586110000000  0.5762600000000 1.0
C      1  0.5115380000000  0.5770430000000  0.5417860000000 1.0
C      1  0.5113340000000  0.5419610000000  0.4234400000000 1.0
C      1  0.5351630000000  0.5620080000000  0.5413910000000 1.0
C      1  0.5352850000000  0.5415930000000  0.4379640000000 1.0
C      1  0.5350010000000  0.4379430000000  0.4585670000000 1.0
C      1  0.5356440000000  0.4584890000000  0.5625850000000 1.0
C      1  0.4801780000000  0.5692710000000  0.5036170000000 1.0
C      1  0.4800840000000  0.5041530000000  0.4320360000000 1.0
C      1  0.4804590000000  0.4289540000000  0.4963220000000 1.0
C      1  0.4801910000000  0.4970820000000  0.5680600000000 1.0
C      1  0.5013400000000  0.5155890000000  0.4852690000000 1.0
C      1  0.5014870000000  0.4863870000000  0.4773740000000 1.0
C      1  0.5015220000000  0.4841150000000  0.5210900000000 1.0
C      1  0.5013650000000  0.5139770000000  0.5162660000000 1.0
C      1  0.4487730000000  0.5106670000000  0.5152090000000 1.0
C      1  0.4487500000000  0.5121830000000  0.4860590000000 1.0
C      1  0.4517860000000  0.4859910000000  0.4745680000000 1.0
C      1  0.4518250000000  0.4834250000000  0.5239180000000 1.0
C      1  0.4856470000000  0.5339980000000  0.4340240000000 1.0
C      1  0.4858320000000  0.4330490000000  0.4666990000000 1.0
C      1  0.4858140000000  0.4672920000000  0.5651920000000 1.0
C      1  0.4857430000000  0.5668600000000  0.5335850000000 1.0
C      1  0.4858790000000  0.4299560000000  0.5262010000000 1.0
C      1  0.4857530000000  0.5269720000000  0.5691680000000 1.0
C      1  0.4856950000000  0.5699810000000  0.4735520000000 1.0
C      1  0.4857090000000  0.4742280000000  0.4317900000000 1.0
C      1  0.5114580000000  0.5337960000000  0.5804810000000 1.0
C      1  0.5114780000000  0.5809620000000  0.4664100000000 1.0
C      1  0.5110220000000  0.4667430000000  0.4198420000000 1.0
C      1  0.5114140000000  0.4190510000000  0.5341500000000 1.0
C      1  0.5383410000000  0.4525760000000  0.4832560000000 1.0
C      1  0.5408520000000  0.4830050000000  0.5484300000000 1.0
C      1  0.5392960000000  0.5478700000000  0.5166510000000 1.0
C      1  0.5399520000000  0.5167760000000  0.4520110000000 1.0
C      1  0.4762230000000  0.4741380000000  0.4841350000000 1.0
C      1  0.4762460000000  0.4726300000000  0.5131350000000 1.0
C      1  0.4736730000000  0.5229590000000  0.5234640000000 1.0
C      1  0.4736380000000  0.5252660000000  0.4790850000000 1.0
C      1  0.5284140000000  0.4781470000000  0.4746070000000 1.0
C      1  0.5284520000000  0.4756340000000  0.5229450000000 1.0
C      1  0.5290500000000  0.5219290000000  0.5244590000000 1.0
C      1  0.5290130000000  0.5243500000000  0.4779010000000 1.0
C      1  0.4479480000000  0.5655600000000  0.4414640000000 1.0
C      1  0.4473640000000  0.4434340000000  0.4374000000000 1.0
C      1  0.4474580000000  0.4372430000000  0.5564790000000 1.0
C      1  0.4480460000000  0.5591320000000  0.5651010000000 1.0
END
