TITL C-2323484-8600-252 -0.000857480981714311 125000 -367.991890022298 0 0 60 (C1) n - 1
REM
REM in /home/bkarasulu/CARBON/AIRSS/Generating-Clusters/LCBOP/Higher-Symm/Only-C60/SD-CG/FIRE-HFTN
REM
REM
REM
REM
REM
REM ./C.cell (50c204cfd26239f34c78669fe23a5462)
REM
REM compiler GCC version 9.2.1 20190827 (Red Hat 9.2.1-1)
REM options -cpp -mtune=generic -march=x86-64 -g -O0 -fpre-include=/usr/include/finclude/math-vector-fortran.h
REM seed 1618815699 -299044932 643331810 -17550964 637609992 487481487 -30159197 1210262887 -65754907 -70965727 -312056661 2129845401 780064512 -262432890 -2056363948 1712899293 -152465038 -2076819190 1854358018 -1751215402 1791231808 -150764359 -901900361 1939585900 -905691200 1966585877 -757647934 1149106899 1260535721 -1438888488 1232266333 -290998647 -339812293
REM
CELL 1.54180   50.00000   50.00000   50.00000   90.00000   90.00000   90.00000
LATT -1
SFAC C  
C      1  0.5628300000000  0.4729750000000  0.4028500000000 1.0
C      1  0.5623510000000  0.4212600000000  0.5469510000000 1.0
C      1  0.5753370000000  0.4228760000000  0.4408440000000 1.0
C      1  0.5407840000000  0.4709510000000  0.5823870000000 1.0
C      1  0.4564320000000  0.5383440000000  0.5377590000000 1.0
C      1  0.4139290000000  0.4923730000000  0.4750930000000 1.0
C      1  0.4016700000000  0.4937120000000  0.5311930000000 1.0
C      1  0.4627390000000  0.5425900000000  0.4826100000000 1.0
C      1  0.4648660000000  0.5162560000000  0.5529960000000 1.0
C      1  0.4364920000000  0.4795940000000  0.4641830000000 1.0
C      1  0.4176690000000  0.4792780000000  0.5493740000000 1.0
C      1  0.4743810000000  0.5257820000000  0.4634720000000 1.0
C      1  0.5546620000000  0.5864620000000  0.4605950000000 1.0
C      1  0.5549690000000  0.5529950000000  0.5354850000000 1.0
C      1  0.5460670000000  0.5612450000000  0.4599020000000 1.0
C      1  0.5641580000000  0.5778540000000  0.5382930000000 1.0
C      1  0.4674990000000  0.4886210000000  0.5493540000000 1.0
C      1  0.4644880000000  0.4783920000000  0.4671320000000 1.0
C      1  0.4441850000000  0.4707280000000  0.5479790000000 1.0
C      1  0.4805970000000  0.4993290000000  0.4562420000000 1.0
C      1  0.5312530000000  0.4855590000000  0.4434740000000 1.0
C      1  0.5453610000000  0.4499520000000  0.5060940000000 1.0
C      1  0.5499730000000  0.4514790000000  0.4775530000000 1.0
C      1  0.5165170000000  0.4792890000000  0.5365580000000 1.0
C      1  0.3844830000000  0.4800570000000  0.5136520000000 1.0
C      1  0.4777600000000  0.5602320000000  0.4986780000000 1.0
C      1  0.4745190000000  0.5578810000000  0.5285130000000 1.0
C      1  0.3915680000000  0.4783340000000  0.4845910000000 1.0
C      1  0.3599440000000  0.4649140000000  0.5164850000000 1.0
C      1  0.4951890000000  0.5830070000000  0.4947300000000 1.0
C      1  0.4904410000000  0.5793130000000  0.5396620000000 1.0
C      1  0.3708200000000  0.4620560000000  0.4725890000000 1.0
C      1  0.5772220000000  0.4505910000000  0.4000220000000 1.0
C      1  0.5638270000000  0.4283120000000  0.5727120000000 1.0
C      1  0.5821530000000  0.4295200000000  0.4158450000000 1.0
C      1  0.5553670000000  0.4490660000000  0.5874170000000 1.0
C      1  0.5407380000000  0.5384080000000  0.4724720000000 1.0
C      1  0.5700830000000  0.6006330000000  0.5257030000000 1.0
C      1  0.5638680000000  0.6061500000000  0.4760880000000 1.0
C      1  0.5461020000000  0.5333510000000  0.5198840000000 1.0
C      1  0.4753580000000  0.4615470000000  0.4869200000000 1.0
C      1  0.4887100000000  0.4771000000000  0.5328800000000 1.0
C      1  0.5043180000000  0.4933070000000  0.4428190000000 1.0
C      1  0.4521360000000  0.4501990000000  0.5291750000000 1.0
C      1  0.4372490000000  0.5357450000000  0.4926620000000 1.0
C      1  0.4108600000000  0.5189100000000  0.5239130000000 1.0
C      1  0.4174680000000  0.5185190000000  0.4839610000000 1.0
C      1  0.4332560000000  0.5350010000000  0.5218070000000 1.0
C      1  0.5542030000000  0.4298490000000  0.5230760000000 1.0
C      1  0.5465780000000  0.4851280000000  0.4201240000000 1.0
C      1  0.5270580000000  0.4820860000000  0.5623920000000 1.0
C      1  0.5625100000000  0.4319500000000  0.4623470000000 1.0
C      1  0.5023270000000  0.5939380000000  0.5192500000000 1.0
C      1  0.3523450000000  0.4544370000000  0.4918960000000 1.0
C      1  0.5417480000000  0.4779370000000  0.4685810000000 1.0
C      1  0.5337440000000  0.4752860000000  0.5145960000000 1.0
C      1  0.5699890000000  0.6118700000000  0.5014600000000 1.0
C      1  0.5405520000000  0.5216390000000  0.4949720000000 1.0
C      1  0.4758850000000  0.4579890000000  0.5145760000000 1.0
C      1  0.5370330000000  0.4939200000000  0.4925840000000 1.0
END
