TITL C-2323481-8605-361 1.51322858873037e-07 125000 -370.542149676221 0 0 60 (C2h) n - 1
REM
REM in /home/bkarasulu/CARBON/AIRSS/Generating-Clusters/LCBOP/Higher-Symm/Only-C60/SD-CG/FIRE-HFTN
REM
REM
REM
REM
REM
REM ./C.cell (50c204cfd26239f34c78669fe23a5462)
REM
REM compiler GCC version 9.2.1 20190827 (Red Hat 9.2.1-1)
REM options -cpp -mtune=generic -march=x86-64 -g -O0 -fpre-include=/usr/include/finclude/math-vector-fortran.h
REM seed -1529253945 977807398 -126345104 -1383780572 782740598 422020355 -837709388 -1705658181 1927734233 -35032754 764090391 1994913485 -444836323 -2081016487 564956577 -965815023 -421608193 224603159 667640314 653183854 1901611716 -461050898 -195749884 -1177995060 -351150413 1163279861 -2053054266 -593721486 1125469676 -557443193 1486278200 1154474999 1388704954
REM
CELL 1.54180   50.00000   50.00000   50.00000   90.00000   90.00000   90.00000
LATT -1
SFAC C  
C      1  0.4830680000000  0.4446250000000  0.5306160000000 1.0
C      1  0.5169350000000  0.5553720000000  0.5306210000000 1.0
C      1  0.4830650000000  0.4446280000000  0.4693790000000 1.0
C      1  0.5169320000000  0.5553750000000  0.4693840000000 1.0
C      1  0.4772830000000  0.5320590000000  0.4768000000000 1.0
C      1  0.5227150000000  0.4679440000000  0.4767940000000 1.0
C      1  0.4772850000000  0.5320560000000  0.5232060000000 1.0
C      1  0.5227170000000  0.4679410000000  0.5232000000000 1.0
C      1  0.5050090000000  0.4485710000000  0.5137020000000 1.0
C      1  0.4949930000000  0.5514270000000  0.5137080000000 1.0
C      1  0.5050070000000  0.4485730000000  0.4862920000000 1.0
C      1  0.4949910000000  0.5514290000000  0.4862980000000 1.0
C      1  0.5256250000000  0.4897380000000  0.4382440000000 1.0
C      1  0.4743700000000  0.5102690000000  0.4382480000000 1.0
C      1  0.5256300000000  0.4897310000000  0.5617520000000 1.0
C      1  0.4743750000000  0.5102620000000  0.5617560000000 1.0
C      1  0.5097710000000  0.4669250000000  0.5723810000000 1.0
C      1  0.4902350000000  0.5330670000000  0.5723860000000 1.0
C      1  0.5097650000000  0.4669330000000  0.4276140000000 1.0
C      1  0.4902290000000  0.5330750000000  0.4276190000000 1.0
C      1  0.5092570000000  0.5488340000000  0.5585100000000 1.0
C      1  0.4907490000000  0.4511590000000  0.5585050000000 1.0
C      1  0.5092510000000  0.5488410000000  0.4414950000000 1.0
C      1  0.4907430000000  0.4511660000000  0.4414900000000 1.0
C      1  0.4879570000000  0.5078210000000  0.5350350000000 1.0
C      1  0.5120460000000  0.4921750000000  0.5350330000000 1.0
C      1  0.4879540000000  0.5078250000000  0.4649670000000 1.0
C      1  0.5120430000000  0.4921790000000  0.4649650000000 1.0
C      1  0.4463030000000  0.5017670000000  0.4446280000000 1.0
C      1  0.5536920000000  0.4982390000000  0.4446230000000 1.0
C      1  0.4463080000000  0.5017610000000  0.5553770000000 1.0
C      1  0.5536970000000  0.4982330000000  0.5553720000000 1.0
C      1  0.4335930000000  0.5185230000000  0.4648710000000 1.0
C      1  0.5664040000000  0.4814810000000  0.4648630000000 1.0
C      1  0.4335960000000  0.5185190000000  0.5351370000000 1.0
C      1  0.5664070000000  0.4814770000000  0.5351290000000 1.0
C      1  0.4501680000000  0.5401850000000  0.4724080000000 1.0
C      1  0.5498300000000  0.4598180000000  0.4723990000000 1.0
C      1  0.4501700000000  0.5401820000000  0.5276010000000 1.0
C      1  0.5498320000000  0.4598150000000  0.5275920000000 1.0
C      1  0.5617780000000  0.5253120000000  0.5527990000000 1.0
C      1  0.4382260000000  0.4746820000000  0.5528020000000 1.0
C      1  0.5617740000000  0.5253180000000  0.4471980000000 1.0
C      1  0.4382220000000  0.4746880000000  0.4472010000000 1.0
C      1  0.4172860000000  0.5090510000000  0.4863990000000 1.0
C      1  0.5827130000000  0.4909510000000  0.4863900000000 1.0
C      1  0.4172870000000  0.5090490000000  0.5136100000000 1.0
C      1  0.5827140000000  0.4909490000000  0.5136010000000 1.0
C      1  0.5624700000000  0.5429370000000  0.4678440000000 1.0
C      1  0.4375270000000  0.4570670000000  0.4678450000000 1.0
C      1  0.5624730000000  0.5429330000000  0.5321550000000 1.0
C      1  0.4375300000000  0.4570630000000  0.5321560000000 1.0
C      1  0.4580450000000  0.4468910000000  0.4846620000000 1.0
C      1  0.5419540000000  0.5531100000000  0.4846640000000 1.0
C      1  0.4580460000000  0.4468900000000  0.5153360000000 1.0
C      1  0.5419550000000  0.5531090000000  0.5153380000000 1.0
C      1  0.5600330000000  0.4375790000000  0.4864390000000 1.0
C      1  0.4399660000000  0.5624230000000  0.4864510000000 1.0
C      1  0.5600340000000  0.4375770000000  0.5135490000000 1.0
C      1  0.4399670000000  0.5624210000000  0.5135610000000 1.0
END
