TITL C-2323489-8765-560 1.25471961135086e-06 125000 -361.871598250214 0 0 60 (C1) n - 1
REM
REM in /home/bkarasulu/CARBON/AIRSS/Generating-Clusters/LCBOP/Higher-Symm/Only-C60/SD-CG/FIRE-HFTN
REM
REM
REM
REM
REM
REM ./C.cell (50c204cfd26239f34c78669fe23a5462)
REM
REM compiler GCC version 9.2.1 20190827 (Red Hat 9.2.1-1)
REM options -cpp -mtune=generic -march=x86-64 -g -O0 -fpre-include=/usr/include/finclude/math-vector-fortran.h
REM seed -1513234896 487832389 -1362048307 1106398014 -695760890 1316955904 604820292 1846587375 -645040896 319202686 -886316613 371741134 1174059314 740725406 1081978361 -1714028007 1419130045 -469685977 189364402 -350304366 -247498738 1995143051 -1171745059 2112237623 -948677857 44001462 1126872957 -1135006192 -1440968849 343170477 -955472953 -2136652171 1444976026
REM
CELL 1.54180   50.00000   50.00000   50.00000   90.00000   90.00000   90.00000
LATT -1
SFAC C  
C      1  0.4481430000000  0.5301540000000  0.5151400000000 1.0
C      1  0.4946620000000  0.4527520000000  0.5377970000000 1.0
C      1  0.5334840000000  0.5123890000000  0.4314830000000 1.0
C      1  0.5559640000000  0.5393570000000  0.5076110000000 1.0
C      1  0.4488850000000  0.4687850000000  0.4854890000000 1.0
C      1  0.5578440000000  0.4653590000000  0.5105700000000 1.0
C      1  0.4906200000000  0.4383990000000  0.4650340000000 1.0
C      1  0.4980720000000  0.5452340000000  0.4606610000000 1.0
C      1  0.4872780000000  0.5639230000000  0.5379290000000 1.0
C      1  0.4657770000000  0.5003050000000  0.5533480000000 1.0
C      1  0.5337530000000  0.4802800000000  0.5566140000000 1.0
C      1  0.4655610000000  0.4972540000000  0.4477280000000 1.0
C      1  0.5102670000000  0.5327090000000  0.4356220000000 1.0
C      1  0.5341760000000  0.4515890000000  0.5030550000000 1.0
C      1  0.4424340000000  0.5085560000000  0.5375910000000 1.0
C      1  0.5022490000000  0.5421470000000  0.5498830000000 1.0
C      1  0.5059300000000  0.4594040000000  0.4519080000000 1.0
C      1  0.5097980000000  0.4624450000000  0.5607730000000 1.0
C      1  0.4655590000000  0.4424400000000  0.4812430000000 1.0
C      1  0.4648830000000  0.5575160000000  0.5185320000000 1.0
C      1  0.5493270000000  0.5665800000000  0.5118670000000 1.0
C      1  0.5526020000000  0.5041170000000  0.4527350000000 1.0
C      1  0.5559530000000  0.4795580000000  0.5363530000000 1.0
C      1  0.4422300000000  0.4897880000000  0.4634690000000 1.0
C      1  0.4841520000000  0.5686990000000  0.4701220000000 1.0
C      1  0.4697320000000  0.4864780000000  0.5778940000000 1.0
C      1  0.5741170000000  0.4743350000000  0.4877130000000 1.0
C      1  0.5051290000000  0.5850480000000  0.5303840000000 1.0
C      1  0.4797120000000  0.4302190000000  0.5293110000000 1.0
C      1  0.5088390000000  0.4189170000000  0.4762130000000 1.0
C      1  0.5255150000000  0.4889310000000  0.4162350000000 1.0
C      1  0.4674520000000  0.5107370000000  0.4228720000000 1.0
C      1  0.5310120000000  0.5062580000000  0.5703210000000 1.0
C      1  0.4265950000000  0.4688180000000  0.5066960000000 1.0
C      1  0.5740790000000  0.5256630000000  0.5242310000000 1.0
C      1  0.4252110000000  0.5295580000000  0.4944670000000 1.0
C      1  0.4689260000000  0.5711080000000  0.4927870000000 1.0
C      1  0.5742860000000  0.4875270000000  0.4630690000000 1.0
C      1  0.4915860000000  0.4702450000000  0.5819480000000 1.0
C      1  0.5301500000000  0.5835640000000  0.5201410000000 1.0
C      1  0.5294060000000  0.4256020000000  0.4929250000000 1.0
C      1  0.4662050000000  0.4267520000000  0.5058680000000 1.0
C      1  0.4255580000000  0.4865830000000  0.5279190000000 1.0
C      1  0.4250800000000  0.5115910000000  0.4731700000000 1.0
C      1  0.5733860000000  0.5021760000000  0.5373320000000 1.0
C      1  0.5144970000000  0.4657230000000  0.4255480000000 1.0
C      1  0.5189320000000  0.5310210000000  0.5704930000000 1.0
C      1  0.4883230000000  0.5274560000000  0.4169800000000 1.0
C      1  0.4898580000000  0.5239090000000  0.4815820000000 1.0
C      1  0.5126210000000  0.4697930000000  0.4986410000000 1.0
C      1  0.5349930000000  0.5029060000000  0.4750140000000 1.0
C      1  0.4899080000000  0.4989830000000  0.5372800000000 1.0
C      1  0.4690030000000  0.4851480000000  0.5010410000000 1.0
C      1  0.5363820000000  0.5232890000000  0.4945430000000 1.0
C      1  0.4678470000000  0.5139820000000  0.4986780000000 1.0
C      1  0.5102630000000  0.5274650000000  0.5032630000000 1.0
C      1  0.4911970000000  0.4759140000000  0.5184150000000 1.0
C      1  0.5119450000000  0.4821650000000  0.4714230000000 1.0
C      1  0.4897670000000  0.5001760000000  0.4634090000000 1.0
C      1  0.5028870000000  0.5222230000000  0.5296360000000 1.0
END
