TITL C-2323479-8056-446 -0.00261050900697182 125000 -364.948393946021 0 0 60 (C1) n - 1
REM
REM in /home/bkarasulu/CARBON/AIRSS/Generating-Clusters/LCBOP/Higher-Symm/Only-C60/SD-CG/FIRE-HFTN
REM
REM
REM
REM
REM
REM ./C.cell (50c204cfd26239f34c78669fe23a5462)
REM
REM compiler GCC version 9.2.1 20190827 (Red Hat 9.2.1-1)
REM options -cpp -mtune=generic -march=x86-64 -g -O0 -fpre-include=/usr/include/finclude/math-vector-fortran.h
REM seed -561740967 1729655989 1705285513 619285052 -659783196 -1561948548 -1495836555 686254290 1089743971 -1818548420 -416323623 -348473814 -1922219503 -122137453 -453732350 -1658561392 -1803640923 -1922377985 58778778 871018606 1243292634 2011700281 1357236677 -1214369968 1143498730 1193036016 -1282348640 200065354 2085573481 -1770991094 -922999985 -163448479 -336980520
REM
CELL 1.54180   50.00000   50.00000   50.00000   90.00000   90.00000   90.00000
LATT -1
SFAC C  
C      1  0.5156610000000  0.5514730000000  0.4524580000000 1.0
C      1  0.4665510000000  0.5354750000000  0.5547210000000 1.0
C      1  0.5511800000000  0.4544650000000  0.5214130000000 1.0
C      1  0.4845980000000  0.5770880000000  0.5291350000000 1.0
C      1  0.5145790000000  0.4479720000000  0.5517290000000 1.0
C      1  0.4700490000000  0.4240610000000  0.4767190000000 1.0
C      1  0.5477950000000  0.5654530000000  0.4193000000000 1.0
C      1  0.4527310000000  0.4689980000000  0.4559580000000 1.0
C      1  0.5520240000000  0.4716360000000  0.5674150000000 1.0
C      1  0.4227660000000  0.4341520000000  0.4693540000000 1.0
C      1  0.5623050000000  0.5661400000000  0.4643430000000 1.0
C      1  0.4464390000000  0.5506770000000  0.5139710000000 1.0
C      1  0.4591630000000  0.5765450000000  0.5155530000000 1.0
C      1  0.5672100000000  0.5690350000000  0.4378070000000 1.0
C      1  0.5297900000000  0.4555330000000  0.5747820000000 1.0
C      1  0.5356510000000  0.5595570000000  0.4753580000000 1.0
C      1  0.5302250000000  0.4335640000000  0.5319520000000 1.0
C      1  0.4422450000000  0.4175120000000  0.4784900000000 1.0
C      1  0.4421450000000  0.5418100000000  0.5408810000000 1.0
C      1  0.4257840000000  0.4596930000000  0.4571250000000 1.0
C      1  0.5594720000000  0.4784610000000  0.5389850000000 1.0
C      1  0.4733280000000  0.4482620000000  0.4588060000000 1.0
C      1  0.4888080000000  0.5527630000000  0.5460550000000 1.0
C      1  0.5210870000000  0.5580480000000  0.4251570000000 1.0
C      1  0.4525790000000  0.4922400000000  0.5387360000000 1.0
C      1  0.5236870000000  0.4413120000000  0.4895870000000 1.0
C      1  0.4901910000000  0.5069590000000  0.4556240000000 1.0
C      1  0.5370310000000  0.4868940000000  0.4809100000000 1.0
C      1  0.4560740000000  0.5036240000000  0.4911490000000 1.0
C      1  0.5420540000000  0.5015460000000  0.5281520000000 1.0
C      1  0.4855090000000  0.4680880000000  0.5139190000000 1.0
C      1  0.5340260000000  0.5348810000000  0.4934940000000 1.0
C      1  0.4863290000000  0.5396690000000  0.4886830000000 1.0
C      1  0.5092390000000  0.5368310000000  0.5343210000000 1.0
C      1  0.4978870000000  0.4947500000000  0.5524070000000 1.0
C      1  0.4965860000000  0.4635590000000  0.4640310000000 1.0
C      1  0.5121980000000  0.4879260000000  0.4613270000000 1.0
C      1  0.4975150000000  0.4681720000000  0.5406390000000 1.0
C      1  0.4598650000000  0.5318410000000  0.4965510000000 1.0
C      1  0.4714780000000  0.5068290000000  0.5550080000000 1.0
C      1  0.4630840000000  0.4954510000000  0.4638940000000 1.0
C      1  0.5191440000000  0.5117650000000  0.5432500000000 1.0
C      1  0.5001190000000  0.4582960000000  0.4916710000000 1.0
C      1  0.5084590000000  0.5386430000000  0.5063550000000 1.0
C      1  0.4943250000000  0.5345470000000  0.4616030000000 1.0
C      1  0.5430550000000  0.5086600000000  0.4992660000000 1.0
C      1  0.5447300000000  0.4602840000000  0.4929990000000 1.0
C      1  0.4614350000000  0.4847680000000  0.5125090000000 1.0
C      1  0.5165000000000  0.4211060000000  0.5086100000000 1.0
C      1  0.5013520000000  0.5573700000000  0.4055750000000 1.0
C      1  0.3845860000000  0.4886280000000  0.4381030000000 1.0
C      1  0.4899100000000  0.4130450000000  0.4969150000000 1.0
C      1  0.5236730000000  0.5820770000000  0.4931830000000 1.0
C      1  0.5066890000000  0.5874120000000  0.5137890000000 1.0
C      1  0.5173530000000  0.4413080000000  0.6251010000000 1.0
C      1  0.5235840000000  0.4481320000000  0.6007340000000 1.0
C      1  0.4822080000000  0.5559480000000  0.3879500000000 1.0
C      1  0.6133920000000  0.4903060000000  0.5329150000000 1.0
C      1  0.4043320000000  0.4742470000000  0.4471820000000 1.0
C      1  0.5882370000000  0.4845130000000  0.5363880000000 1.0
END
