TITL C-2323480-5884-435 1247.89512380626 125000 -353.419602496834 0 0 60 (C1) n - 1
REM
REM in /home/bkarasulu/CARBON/AIRSS/Generating-Clusters/LCBOP/Higher-Symm/Only-C60/SD-CG/FIRE-HFTN
REM
REM
REM
REM
REM
REM ./C.cell (50c204cfd26239f34c78669fe23a5462)
REM
REM compiler GCC version 9.2.1 20190827 (Red Hat 9.2.1-1)
REM options -cpp -mtune=generic -march=x86-64 -g -O0 -fpre-include=/usr/include/finclude/math-vector-fortran.h
REM seed -417512194 -899033058 117064321 -563542077 -1506831722 2114740117 -113799036 475528183 1835189846 265404883 -557149168 -1160402941 -392295751 -505715144 130905040 2136036381 -790826595 -2090065854 1121458329 -1428186495 -1572876818 866622761 472610947 -14984722 -1634673760 -261914664 -1512485837 -2080267064 1924336727 -2032079144 876915148 2097369092 1822623939
REM
CELL 1.54180   50.00000   50.00000   50.00000   90.00000   90.00000   90.00000
LATT -1
SFAC C  
C      1  0.5134000000000  0.4791580000000  0.4699420000000 1.0
C      1  0.4860070000000  0.5281140000000  0.4693790000000 1.0
C      1  0.5140100000000  0.5277540000000  0.4692800000000 1.0
C      1  0.4859640000000  0.4796510000000  0.4697910000000 1.0
C      1  0.5137670000000  0.5266930000000  0.5187590000000 1.0
C      1  0.4855160000000  0.4794180000000  0.5192130000000 1.0
C      1  0.5140430000000  0.4792840000000  0.5193210000000 1.0
C      1  0.4864220000000  0.5268120000000  0.5188350000000 1.0
C      1  0.4815590000000  0.4312100000000  0.4804460000000 1.0
C      1  0.5325190000000  0.5731930000000  0.4815380000000 1.0
C      1  0.4675810000000  0.5737540000000  0.4819450000000 1.0
C      1  0.5172010000000  0.4318370000000  0.4850170000000 1.0
C      1  0.4615680000000  0.5613790000000  0.5276620000000 1.0
C      1  0.5380760000000  0.4418710000000  0.5298970000000 1.0
C      1  0.4627960000000  0.4413190000000  0.5295940000000 1.0
C      1  0.5387470000000  0.5612230000000  0.5273820000000 1.0
C      1  0.5241230000000  0.4892820000000  0.4944770000000 1.0
C      1  0.4759090000000  0.5175020000000  0.4946120000000 1.0
C      1  0.5240390000000  0.5171250000000  0.4945280000000 1.0
C      1  0.4754500000000  0.4896450000000  0.4944480000000 1.0
C      1  0.5640620000000  0.4802480000000  0.5380300000000 1.0
C      1  0.4113300000000  0.4858270000000  0.5447360000000 1.0
C      1  0.5881330000000  0.4879860000000  0.5444310000000 1.0
C      1  0.4356030000000  0.4787540000000  0.5383420000000 1.0
C      1  0.4638760000000  0.5349110000000  0.4526320000000 1.0
C      1  0.5325650000000  0.4667660000000  0.4534420000000 1.0
C      1  0.4667600000000  0.4680630000000  0.4526720000000 1.0
C      1  0.5362810000000  0.5339940000000  0.4524980000000 1.0
C      1  0.5408320000000  0.4454060000000  0.4713120000000 1.0
C      1  0.4496440000000  0.5532140000000  0.4700840000000 1.0
C      1  0.5505130000000  0.5525810000000  0.4697280000000 1.0
C      1  0.4584730000000  0.4459440000000  0.4693990000000 1.0
C      1  0.4356350000000  0.5546610000000  0.5153390000000 1.0
C      1  0.5625470000000  0.4405000000000  0.5139360000000 1.0
C      1  0.4387640000000  0.4400160000000  0.5128910000000 1.0
C      1  0.5646140000000  0.5543920000000  0.5150060000000 1.0
C      1  0.4269590000000  0.4829630000000  0.4869910000000 1.0
C      1  0.5745820000000  0.5105910000000  0.4883030000000 1.0
C      1  0.4256200000000  0.5108670000000  0.4884930000000 1.0
C      1  0.5731930000000  0.4827350000000  0.4868930000000 1.0
C      1  0.4694750000000  0.5186280000000  0.5616350000000 1.0
C      1  0.5269810000000  0.4914010000000  0.5627910000000 1.0
C      1  0.4726180000000  0.4912020000000  0.5626410000000 1.0
C      1  0.5303340000000  0.5188300000000  0.5617590000000 1.0
C      1  0.4858880000000  0.4302520000000  0.5172540000000 1.0
C      1  0.5178430000000  0.5734260000000  0.5075570000000 1.0
C      1  0.4824630000000  0.5735930000000  0.5078090000000 1.0
C      1  0.5152110000000  0.4307020000000  0.5157300000000 1.0
C      1  0.4324830000000  0.5398010000000  0.4904170000000 1.0
C      1  0.5630760000000  0.4545710000000  0.4887950000000 1.0
C      1  0.4372260000000  0.4547080000000  0.4881450000000 1.0
C      1  0.5677060000000  0.5394530000000  0.4901490000000 1.0
C      1  0.4720610000000  0.5375230000000  0.5405590000000 1.0
C      1  0.5346460000000  0.4714200000000  0.5401130000000 1.0
C      1  0.4652630000000  0.4709530000000  0.5400150000000 1.0
C      1  0.5281580000000  0.5374970000000  0.5404270000000 1.0
C      1  0.5454720000000  0.5127310000000  0.4361000000000 1.0
C      1  0.4549980000000  0.4869980000000  0.4352740000000 1.0
C      1  0.5448500000000  0.4854120000000  0.4359470000000 1.0
C      1  0.4545660000000  0.5142570000000  0.4356580000000 1.0
END
