TITL C-2323488-8613-245 1.22105122490062e-05 125000 -371.994800062204 0 0 60 (D3h) n - 1
REM
REM in /home/bkarasulu/CARBON/AIRSS/Generating-Clusters/LCBOP/Higher-Symm/Only-C60/SD-CG/FIRE-HFTN
REM
REM
REM
REM
REM
REM ./C.cell (50c204cfd26239f34c78669fe23a5462)
REM
REM compiler GCC version 9.2.1 20190827 (Red Hat 9.2.1-1)
REM options -cpp -mtune=generic -march=x86-64 -g -O0 -fpre-include=/usr/include/finclude/math-vector-fortran.h
REM seed -33076074 970627924 -2022811954 -1148409915 -1514350866 -1109928568 177080284 -1549251503 1065619022 -168020796 1336505434 -569752198 -1814081003 -456075630 -1723578821 -2022740691 408888511 1842710421 -144559809 1753682585 1213607732 1296413656 498309236 1689809442 -2082736933 -972520012 1614015090 515861668 1923631275 -138492557 1532044284 -964247018 1591050658
REM
CELL 1.54180   50.00000   50.00000   50.00000   90.00000   90.00000   90.00000
LATT -1
SFAC C  
C      1  0.5276210000000  0.5755070000000  0.5088840000000 1.0
C      1  0.5060800000000  0.5744290000000  0.5281970000000 1.0
C      1  0.4784910000000  0.5755040000000  0.5194860000000 1.0
C      1  0.4725360000000  0.5744280000000  0.4911740000000 1.0
C      1  0.4938750000000  0.5755060000000  0.4716370000000 1.0
C      1  0.5213710000000  0.5744310000000  0.4806360000000 1.0
C      1  0.5276300000000  0.4244960000000  0.5088800000000 1.0
C      1  0.5060890000000  0.4255700000000  0.5281930000000 1.0
C      1  0.4785000000000  0.4244930000000  0.5194810000000 1.0
C      1  0.4725450000000  0.4255690000000  0.4911690000000 1.0
C      1  0.4938840000000  0.4244950000000  0.4716320000000 1.0
C      1  0.5213800000000  0.4255720000000  0.4806310000000 1.0
C      1  0.5111700000000  0.5586890000000  0.5517830000000 1.0
C      1  0.4596060000000  0.5617760000000  0.5365960000000 1.0
C      1  0.4495660000000  0.5586870000000  0.4837880000000 1.0
C      1  0.4885000000000  0.5617800000000  0.4467260000000 1.0
C      1  0.5392530000000  0.5586930000000  0.4644350000000 1.0
C      1  0.5518820000000  0.5617820000000  0.5166840000000 1.0
C      1  0.5111770000000  0.4413090000000  0.5517790000000 1.0
C      1  0.4596140000000  0.4382170000000  0.5365920000000 1.0
C      1  0.4495730000000  0.4413080000000  0.4837840000000 1.0
C      1  0.4885080000000  0.4382220000000  0.4467220000000 1.0
C      1  0.5392610000000  0.4413140000000  0.4644310000000 1.0
C      1  0.5518900000000  0.4382230000000  0.5166800000000 1.0
C      1  0.4883210000000  0.4665990000000  0.4458670000000 1.0
C      1  0.5417120000000  0.4695660000000  0.4622090000000 1.0
C      1  0.5527220000000  0.4666000000000  0.5169490000000 1.0
C      1  0.5118740000000  0.4695610000000  0.5550160000000 1.0
C      1  0.4589630000000  0.4665940000000  0.5371810000000 1.0
C      1  0.4464200000000  0.4695590000000  0.4827720000000 1.0
C      1  0.4883170000000  0.5334030000000  0.4458690000000 1.0
C      1  0.5417080000000  0.5304420000000  0.4622110000000 1.0
C      1  0.5527180000000  0.5334050000000  0.5169510000000 1.0
C      1  0.5118700000000  0.5304370000000  0.5550180000000 1.0
C      1  0.4589590000000  0.5333990000000  0.5371830000000 1.0
C      1  0.4464160000000  0.5304350000000  0.4827740000000 1.0
C      1  0.4714760000000  0.4842570000000  0.4908280000000 1.0
C      1  0.4939260000000  0.4773300000000  0.4718430000000 1.0
C      1  0.5222060000000  0.4842610000000  0.4798820000000 1.0
C      1  0.5274230000000  0.4773310000000  0.5088160000000 1.0
C      1  0.5063210000000  0.4842580000000  0.5292880000000 1.0
C      1  0.4786550000000  0.4773280000000  0.5193390000000 1.0
C      1  0.4714740000000  0.5157400000000  0.4908290000000 1.0
C      1  0.4939230000000  0.5226710000000  0.4718440000000 1.0
C      1  0.5222040000000  0.5157430000000  0.4798830000000 1.0
C      1  0.5274210000000  0.5226720000000  0.5088170000000 1.0
C      1  0.5063190000000  0.5157410000000  0.5292890000000 1.0
C      1  0.4786520000000  0.5226690000000  0.5193410000000 1.0
C      1  0.5584220000000  0.4864630000000  0.4470690000000 1.0
C      1  0.5718880000000  0.4864190000000  0.5231120000000 1.0
C      1  0.5166290000000  0.4864560000000  0.5770590000000 1.0
C      1  0.4440410000000  0.4864100000000  0.5506990000000 1.0
C      1  0.4249510000000  0.4864540000000  0.4758700000000 1.0
C      1  0.4840730000000  0.4864170000000  0.4261870000000 1.0
C      1  0.5584210000000  0.5135470000000  0.4470700000000 1.0
C      1  0.5718860000000  0.5135880000000  0.5231130000000 1.0
C      1  0.5166270000000  0.5135410000000  0.5770600000000 1.0
C      1  0.4440390000000  0.5135800000000  0.5507000000000 1.0
C      1  0.4249490000000  0.5135380000000  0.4758710000000 1.0
C      1  0.4840720000000  0.5135860000000  0.4261880000000 1.0
END
