TITL C-2323485-8600-491 -0.138329277256159 125000 -352.590152820396 0 0 60 (C1) n - 1
REM
REM in /home/bkarasulu/CARBON/AIRSS/Generating-Clusters/LCBOP/Higher-Symm/Only-C60/SD-CG/FIRE-HFTN
REM
REM
REM
REM
REM
REM ./C.cell (50c204cfd26239f34c78669fe23a5462)
REM
REM compiler GCC version 9.2.1 20190827 (Red Hat 9.2.1-1)
REM options -cpp -mtune=generic -march=x86-64 -g -O0 -fpre-include=/usr/include/finclude/math-vector-fortran.h
REM seed 1801243440 -1125707407 1256537272 1134024139 1720472720 -2019752065 -1530077817 638891965 -1497731431 603676848 601842752 1602228357 1684468850 264938716 -1090572753 -1019697282 -1368405232 1612095127 -13922924 -992785838 -799273619 -393266873 36081475 1176884115 -977618803 1605618982 -528964716 -404527001 -812482916 685153496 236590428 1719134396 -1559087009
REM
CELL 1.54180   50.00000   50.00000   50.00000   90.00000   90.00000   90.00000
LATT -1
SFAC C  
C      1  0.5254880000000  0.4630720000000  0.5098060000000 1.0
C      1  0.5607920000000  0.5628200000000  0.4943060000000 1.0
C      1  0.4551840000000  0.6030180000000  0.4265180000000 1.0
C      1  0.4707400000000  0.3934460000000  0.5993750000000 1.0
C      1  0.5378930000000  0.5702370000000  0.4404600000000 1.0
C      1  0.5413340000000  0.4273930000000  0.5550410000000 1.0
C      1  0.4897990000000  0.5646110000000  0.4421290000000 1.0
C      1  0.4943000000000  0.4296120000000  0.5670320000000 1.0
C      1  0.5277240000000  0.5455230000000  0.5511530000000 1.0
C      1  0.5254230000000  0.4478270000000  0.4499330000000 1.0
C      1  0.5162000000000  0.5755390000000  0.4833910000000 1.0
C      1  0.5089720000000  0.4199230000000  0.5205560000000 1.0
C      1  0.4569780000000  0.3969090000000  0.4156820000000 1.0
C      1  0.4583380000000  0.6099920000000  0.5369900000000 1.0
C      1  0.5058360000000  0.4776780000000  0.5727440000000 1.0
C      1  0.5036610000000  0.5172670000000  0.4332260000000 1.0
C      1  0.5303090000000  0.5265010000000  0.5716480000000 1.0
C      1  0.5287350000000  0.4684970000000  0.4310320000000 1.0
C      1  0.5607310000000  0.4596430000000  0.3883720000000 1.0
C      1  0.5609600000000  0.5383440000000  0.6145620000000 1.0
C      1  0.4648160000000  0.5850570000000  0.5330070000000 1.0
C      1  0.4618720000000  0.4175440000000  0.4308430000000 1.0
C      1  0.4839990000000  0.5371590000000  0.4369140000000 1.0
C      1  0.4870700000000  0.4571890000000  0.5682990000000 1.0
C      1  0.5643670000000  0.5452160000000  0.4723180000000 1.0
C      1  0.5500800000000  0.4661140000000  0.5255050000000 1.0
C      1  0.4673480000000  0.4384430000000  0.4461940000000 1.0
C      1  0.4722750000000  0.5600270000000  0.5285000000000 1.0
C      1  0.4755520000000  0.5085490000000  0.5154790000000 1.0
C      1  0.4719160000000  0.4829740000000  0.4755550000000 1.0
C      1  0.5553590000000  0.5191380000000  0.4770900000000 1.0
C      1  0.5604890000000  0.4909750000000  0.5163220000000 1.0
C      1  0.4611780000000  0.4652000000000  0.5611170000000 1.0
C      1  0.4572000000000  0.5288030000000  0.4386410000000 1.0
C      1  0.5137530000000  0.5720310000000  0.4552470000000 1.0
C      1  0.5143420000000  0.4217450000000  0.5484600000000 1.0
C      1  0.5564580000000  0.4473840000000  0.5450830000000 1.0
C      1  0.5605100000000  0.5570010000000  0.4469870000000 1.0
C      1  0.4459640000000  0.4957880000000  0.4747250000000 1.0
C      1  0.4499820000000  0.4967020000000  0.5218250000000 1.0
C      1  0.4413290000000  0.5131310000000  0.4533400000000 1.0
C      1  0.4474570000000  0.4810230000000  0.5446840000000 1.0
C      1  0.4719630000000  0.5844810000000  0.4338650000000 1.0
C      1  0.4822180000000  0.4108690000000  0.5837600000000 1.0
C      1  0.5453100000000  0.4638590000000  0.4089550000000 1.0
C      1  0.5461280000000  0.5326970000000  0.5938890000000 1.0
C      1  0.5348970000000  0.5695320000000  0.5039700000000 1.0
C      1  0.5169310000000  0.4378580000000  0.5002680000000 1.0
C      1  0.5203270000000  0.4344550000000  0.4726060000000 1.0
C      1  0.5288040000000  0.5619850000000  0.5302140000000 1.0
C      1  0.5176580000000  0.5014520000000  0.5705910000000 1.0
C      1  0.5161460000000  0.4936390000000  0.4333470000000 1.0
C      1  0.4793630000000  0.5351400000000  0.5226450000000 1.0
C      1  0.4740980000000  0.4593270000000  0.4610880000000 1.0
C      1  0.4901140000000  0.4943600000000  0.4949730000000 1.0
C      1  0.5177330000000  0.4885030000000  0.4974150000000 1.0
C      1  0.4045070000000  0.4955730000000  0.5019340000000 1.0
C      1  0.3785470000000  0.4952090000000  0.5041860000000 1.0
C      1  0.4321400000000  0.4959810000000  0.4995960000000 1.0
C      1  0.5433870000000  0.5029490000000  0.4961830000000 1.0
END
