TITL C-2323491-8878-64 3.9829691605762 125000 -353.243733726318 0 0 60 (C1) n - 1
REM
REM in /home/bkarasulu/CARBON/AIRSS/Generating-Clusters/LCBOP/Higher-Symm/Only-C60/SD-CG/FIRE-HFTN
REM
REM
REM
REM
REM
REM ./C.cell (50c204cfd26239f34c78669fe23a5462)
REM
REM compiler GCC version 9.2.1 20190827 (Red Hat 9.2.1-1)
REM options -cpp -mtune=generic -march=x86-64 -g -O0 -fpre-include=/usr/include/finclude/math-vector-fortran.h
REM seed -1693611031 1219791282 1243166834 -1445744940 1873577831 -2083811083 1818562721 -393959838 -1124787013 -1266751084 871178209 -1297024224 602335045 -1326960104 -2010362023 1977385716 -1996644720 873443002 1425029036 747016101 649558918 -976938106 -695939593 -344275611 733896748 -589790545 -2120414488 906378946 361474989 1538995521 -1715321253 -1508933764 1773072399
REM
CELL 1.54180   50.00000   50.00000   50.00000   90.00000   90.00000   90.00000
LATT -1
SFAC C  
C      1  0.4981530000000  0.6028890000000  0.4557230000000 1.0
C      1  0.5041650000000  0.4629930000000  0.5041160000000 1.0
C      1  0.4172600000000  0.4584050000000  0.5045820000000 1.0
C      1  0.4229950000000  0.4378190000000  0.5203550000000 1.0
C      1  0.5131870000000  0.5832220000000  0.5135000000000 1.0
C      1  0.4867670000000  0.5410780000000  0.5069690000000 1.0
C      1  0.5287280000000  0.4050240000000  0.5529930000000 1.0
C      1  0.4322450000000  0.4606310000000  0.4592740000000 1.0
C      1  0.5447290000000  0.4694470000000  0.4465570000000 1.0
C      1  0.4848530000000  0.3920330000000  0.4924010000000 1.0
C      1  0.5142620000000  0.5755800000000  0.5621900000000 1.0
C      1  0.5019350000000  0.4889450000000  0.5091080000000 1.0
C      1  0.5017600000000  0.4445620000000  0.5746210000000 1.0
C      1  0.4688700000000  0.4254610000000  0.4602560000000 1.0
C      1  0.5760080000000  0.5721950000000  0.4426100000000 1.0
C      1  0.5278140000000  0.5787710000000  0.5380670000000 1.0
C      1  0.5409690000000  0.5473920000000  0.4660960000000 1.0
C      1  0.4601100000000  0.5479500000000  0.5144110000000 1.0
C      1  0.4337740000000  0.5745960000000  0.4833360000000 1.0
C      1  0.4466220000000  0.3622570000000  0.4921590000000 1.0
C      1  0.5158960000000  0.4250420000000  0.5646830000000 1.0
C      1  0.4281130000000  0.6226800000000  0.4628960000000 1.0
C      1  0.4905160000000  0.5693080000000  0.5726400000000 1.0
C      1  0.4304810000000  0.5987630000000  0.4729940000000 1.0
C      1  0.5439270000000  0.4945420000000  0.4535750000000 1.0
C      1  0.4194110000000  0.5016120000000  0.4823340000000 1.0
C      1  0.4853560000000  0.4182850000000  0.4817450000000 1.0
C      1  0.5258650000000  0.3772680000000  0.5137780000000 1.0
C      1  0.5179190000000  0.3440650000000  0.4497290000000 1.0
C      1  0.4352700000000  0.4156810000000  0.5283050000000 1.0
C      1  0.5083150000000  0.3760570000000  0.4921060000000 1.0
C      1  0.5206540000000  0.6074440000000  0.4991900000000 1.0
C      1  0.4953920000000  0.5146200000000  0.5096860000000 1.0
C      1  0.5646340000000  0.5890330000000  0.5086890000000 1.0
C      1  0.5036280000000  0.5766530000000  0.4519740000000 1.0
C      1  0.5426150000000  0.5200790000000  0.4605020000000 1.0
C      1  0.4665870000000  0.5608680000000  0.5642520000000 1.0
C      1  0.5649340000000  0.5631280000000  0.4665840000000 1.0
C      1  0.5155950000000  0.5593380000000  0.4709420000000 1.0
C      1  0.5746460000000  0.5603450000000  0.5463820000000 1.0
C      1  0.5389280000000  0.3840660000000  0.5375330000000 1.0
C      1  0.4549700000000  0.5532400000000  0.5414610000000 1.0
C      1  0.4521030000000  0.3933250000000  0.5289380000000 1.0
C      1  0.5048920000000  0.6168900000000  0.4778740000000 1.0
C      1  0.4396950000000  0.5498650000000  0.4948450000000 1.0
C      1  0.5772000000000  0.5698160000000  0.4913200000000 1.0
C      1  0.5489110000000  0.6106960000000  0.4993890000000 1.0
C      1  0.4610100000000  0.3821120000000  0.5043290000000 1.0
C      1  0.5560650000000  0.5781010000000  0.5344760000000 1.0
C      1  0.5937740000000  0.5479500000000  0.5314490000000 1.0
C      1  0.4215550000000  0.4738480000000  0.4815890000000 1.0
C      1  0.4259180000000  0.5268730000000  0.4869910000000 1.0
C      1  0.5954840000000  0.5525150000000  0.5046340000000 1.0
C      1  0.5047720000000  0.5608360000000  0.4976130000000 1.0
C      1  0.5136870000000  0.3594530000000  0.4703310000000 1.0
C      1  0.4995260000000  0.4386080000000  0.4947650000000 1.0
C      1  0.4496490000000  0.4418660000000  0.4518470000000 1.0
C      1  0.5612650000000  0.3704750000000  0.5455130000000 1.0
C      1  0.4599970000000  0.3824010000000  0.5527400000000 1.0
C      1  0.5856350000000  0.5810030000000  0.4200530000000 1.0
END
