TITL C-2323483-8886-439 -5.29307812721471e-06 125000 -371.602613327295 0 0 60 (C1) n - 1
REM
REM in /home/bkarasulu/CARBON/AIRSS/Generating-Clusters/LCBOP/Higher-Symm/Only-C60/SD-CG/FIRE-HFTN
REM
REM
REM
REM
REM
REM ./C.cell (50c204cfd26239f34c78669fe23a5462)
REM
REM compiler GCC version 9.2.1 20190827 (Red Hat 9.2.1-1)
REM options -cpp -mtune=generic -march=x86-64 -g -O0 -fpre-include=/usr/include/finclude/math-vector-fortran.h
REM seed -148245221 1181709255 -1820337906 -532764090 1243279447 489905759 -358308315 -1401513158 -1832195642 1652945691 773522786 878899614 1559464999 3476057 1609724654 -864024610 -938380988 -2118634302 1835934260 -442363193 -1056612166 -1156289552 -1451093566 2038523724 -386851356 -490769435 -818212304 -1601612006 -1382829211 359486473 598980032 1624470860 -958185931
REM
CELL 1.54180   50.00000   50.00000   50.00000   90.00000   90.00000   90.00000
LATT -1
SFAC C  
C      1  0.5713930000000  0.5298560000000  0.5092560000000 1.0
C      1  0.5349530000000  0.5224730000000  0.5611090000000 1.0
C      1  0.5157450000000  0.5600520000000  0.5298190000000 1.0
C      1  0.4510240000000  0.4659170000000  0.5090790000000 1.0
C      1  0.5453040000000  0.4655590000000  0.4854930000000 1.0
C      1  0.4364030000000  0.5357290000000  0.4834500000000 1.0
C      1  0.4698150000000  0.4889110000000  0.5484880000000 1.0
C      1  0.5291190000000  0.4856880000000  0.4431940000000 1.0
C      1  0.4601520000000  0.5106540000000  0.4496730000000 1.0
C      1  0.4922550000000  0.4492600000000  0.5306450000000 1.0
C      1  0.5074710000000  0.4460460000000  0.4599210000000 1.0
C      1  0.4898070000000  0.5500460000000  0.4666200000000 1.0
C      1  0.5545820000000  0.5348490000000  0.4873640000000 1.0
C      1  0.5260380000000  0.5130620000000  0.4376650000000 1.0
C      1  0.5177750000000  0.5561600000000  0.4651490000000 1.0
C      1  0.4362240000000  0.4690330000000  0.4850960000000 1.0
C      1  0.5537940000000  0.4709810000000  0.5117180000000 1.0
C      1  0.4466120000000  0.5336200000000  0.5102540000000 1.0
C      1  0.4649720000000  0.4849830000000  0.4384440000000 1.0
C      1  0.5366900000000  0.4952870000000  0.5515650000000 1.0
C      1  0.4700740000000  0.5133700000000  0.5623820000000 1.0
C      1  0.4819220000000  0.4357290000000  0.4664790000000 1.0
C      1  0.5163540000000  0.4353160000000  0.5257220000000 1.0
C      1  0.4902610000000  0.5485330000000  0.5354580000000 1.0
C      1  0.5564770000000  0.4900540000000  0.5320380000000 1.0
C      1  0.4884700000000  0.5345500000000  0.5603830000000 1.0
C      1  0.5367200000000  0.5569130000000  0.4862560000000 1.0
C      1  0.4345790000000  0.5111820000000  0.5238880000000 1.0
C      1  0.5508580000000  0.5137950000000  0.4693200000000 1.0
C      1  0.4213760000000  0.4912180000000  0.4753460000000 1.0
C      1  0.5158260000000  0.4786890000000  0.5635060000000 1.0
C      1  0.4864760000000  0.4736520000000  0.4237810000000 1.0
C      1  0.5021920000000  0.5243640000000  0.4274980000000 1.0
C      1  0.4729350000000  0.4252760000000  0.4913290000000 1.0
C      1  0.5247630000000  0.4235880000000  0.5011810000000 1.0
C      1  0.4707180000000  0.5484890000000  0.5137250000000 1.0
C      1  0.5465440000000  0.4864370000000  0.4666780000000 1.0
C      1  0.4815130000000  0.5303600000000  0.4474130000000 1.0
C      1  0.5276700000000  0.5734980000000  0.5080120000000 1.0
C      1  0.4369160000000  0.5137070000000  0.4656520000000 1.0
C      1  0.5768310000000  0.5099910000000  0.5284090000000 1.0
C      1  0.4503970000000  0.4874480000000  0.5280620000000 1.0
C      1  0.5092700000000  0.4658900000000  0.4396040000000 1.0
C      1  0.4924280000000  0.4712480000000  0.5485400000000 1.0
C      1  0.5120250000000  0.5300560000000  0.5764840000000 1.0
C      1  0.4701590000000  0.4450200000000  0.5122260000000 1.0
C      1  0.5284870000000  0.4429000000000  0.4799460000000 1.0
C      1  0.4778020000000  0.5634010000000  0.4893990000000 1.0
C      1  0.6224510000000  0.5086630000000  0.5570370000000 1.0
C      1  0.5114940000000  0.4849590000000  0.5914040000000 1.0
C      1  0.4860230000000  0.5907020000000  0.4926880000000 1.0
C      1  0.3998370000000  0.4983300000000  0.4929520000000 1.0
C      1  0.6005360000000  0.5094120000000  0.5429550000000 1.0
C      1  0.4068190000000  0.5070530000000  0.5179730000000 1.0
C      1  0.5086890000000  0.5114920000000  0.5982990000000 1.0
C      1  0.4952550000000  0.5145850000000  0.4015750000000 1.0
C      1  0.4908860000000  0.4876410000000  0.3992370000000 1.0
C      1  0.5116940000000  0.3986200000000  0.4966030000000 1.0
C      1  0.4842820000000  0.3995720000000  0.4965030000000 1.0
C      1  0.5118600000000  0.5961330000000  0.5000590000000 1.0
END
