TITL C-2323485-8600-75 101.685768290014 125000 -366.414473301621 0 0 60 (C1) n - 1
REM
REM in /home/bkarasulu/CARBON/AIRSS/Generating-Clusters/LCBOP/Higher-Symm/Only-C60/SD-CG/FIRE-HFTN
REM
REM
REM
REM
REM
REM ./C.cell (50c204cfd26239f34c78669fe23a5462)
REM
REM compiler GCC version 9.2.1 20190827 (Red Hat 9.2.1-1)
REM options -cpp -mtune=generic -march=x86-64 -g -O0 -fpre-include=/usr/include/finclude/math-vector-fortran.h
REM seed 1845756323 648523319 501807177 -872392413 1941357740 -695035353 -518589536 409880017 510742968 1768438035 -1843978733 -785454819 1211767969 1331637725 -1181795430 -483224535 1501288239 837677139 189201227 -689762397 10298392 1001404833 -1429262973 -1440647242 808127718 -1322100935 -1977092529 -1198128146 1278639493 1390754040 -1952597382 -1121765606 132882818
REM
CELL 1.54180   50.00000   50.00000   50.00000   90.00000   90.00000   90.00000
LATT -1
SFAC C  
C      1  0.4455780000000  0.5576470000000  0.4551780000000 1.0
C      1  0.3132980000000  0.4519300000000  0.4585620000000 1.0
C      1  0.5919730000000  0.5095570000000  0.5669910000000 1.0
C      1  0.4395130000000  0.4567800000000  0.4931820000000 1.0
C      1  0.4676620000000  0.4839520000000  0.5229500000000 1.0
C      1  0.5455320000000  0.4228010000000  0.4302430000000 1.0
C      1  0.5637990000000  0.5516130000000  0.5568050000000 1.0
C      1  0.4750590000000  0.5807210000000  0.4961840000000 1.0
C      1  0.6158140000000  0.4713180000000  0.5772270000000 1.0
C      1  0.5375670000000  0.4583470000000  0.4958170000000 1.0
C      1  0.5104400000000  0.5511920000000  0.4572980000000 1.0
C      1  0.3391160000000  0.4523490000000  0.4673090000000 1.0
C      1  0.5339290000000  0.6069740000000  0.5312800000000 1.0
C      1  0.5408660000000  0.5117950000000  0.5374740000000 1.0
C      1  0.5505510000000  0.4404870000000  0.4785840000000 1.0
C      1  0.5282050000000  0.4252130000000  0.4101650000000 1.0
C      1  0.5095220000000  0.4911540000000  0.4721150000000 1.0
C      1  0.5157460000000  0.5730500000000  0.4722150000000 1.0
C      1  0.3456480000000  0.4516400000000  0.4946000000000 1.0
C      1  0.4815590000000  0.4365100000000  0.4684930000000 1.0
C      1  0.4617280000000  0.4472110000000  0.4510810000000 1.0
C      1  0.6159020000000  0.4995860000000  0.5812830000000 1.0
C      1  0.5877780000000  0.4370560000000  0.5541860000000 1.0
C      1  0.6265950000000  0.5454000000000  0.5937590000000 1.0
C      1  0.3655460000000  0.4517500000000  0.5122840000000 1.0
C      1  0.5497210000000  0.4683340000000  0.5188360000000 1.0
C      1  0.5027570000000  0.5871280000000  0.4931630000000 1.0
C      1  0.5861610000000  0.5370860000000  0.5679620000000 1.0
C      1  0.5434560000000  0.5374990000000  0.5442480000000 1.0
C      1  0.4409610000000  0.5837530000000  0.4619990000000 1.0
C      1  0.4171380000000  0.4542280000000  0.5097330000000 1.0
C      1  0.5935520000000  0.4626450000000  0.5610550000000 1.0
C      1  0.4883640000000  0.4526410000000  0.4908820000000 1.0
C      1  0.5532780000000  0.4282780000000  0.4551070000000 1.0
C      1  0.4691830000000  0.5523710000000  0.4964350000000 1.0
C      1  0.5051000000000  0.4350410000000  0.4012190000000 1.0
C      1  0.3916800000000  0.4526590000000  0.5170880000000 1.0
C      1  0.5121000000000  0.4680930000000  0.4880600000000 1.0
C      1  0.5922360000000  0.5820930000000  0.5762650000000 1.0
C      1  0.6318860000000  0.5188150000000  0.5938990000000 1.0
C      1  0.4652170000000  0.5425220000000  0.4692990000000 1.0
C      1  0.4687230000000  0.5101490000000  0.5274690000000 1.0
C      1  0.3608630000000  0.4535170000000  0.4496020000000 1.0
C      1  0.4932080000000  0.5048570000000  0.4536150000000 1.0
C      1  0.4372420000000  0.4528390000000  0.4646140000000 1.0
C      1  0.4790130000000  0.4892680000000  0.4349470000000 1.0
C      1  0.5520840000000  0.5994350000000  0.5491500000000 1.0
C      1  0.3870530000000  0.4542070000000  0.4451090000000 1.0
C      1  0.4716670000000  0.4625990000000  0.4292030000000 1.0
C      1  0.6042280000000  0.5564650000000  0.5810740000000 1.0
C      1  0.4129090000000  0.4541880000000  0.4511070000000 1.0
C      1  0.4890750000000  0.5325080000000  0.4571740000000 1.0
C      1  0.5678330000000  0.5800130000000  0.5609350000000 1.0
C      1  0.4653130000000  0.4630930000000  0.5044880000000 1.0
C      1  0.5788050000000  0.4868580000000  0.5541780000000 1.0
C      1  0.4549470000000  0.5956110000000  0.4823360000000 1.0
C      1  0.4833760000000  0.4491960000000  0.4075600000000 1.0
C      1  0.5167340000000  0.6026580000000  0.5115130000000 1.0
C      1  0.5562130000000  0.4882560000000  0.5372600000000 1.0
C      1  0.4690000000000  0.5350630000000  0.5181550000000 1.0
END
