TITL C-2323487-9546-110 2.99792659037691e-05 125000 -362.261359548431 0 0 60 (C1) n - 1
REM
REM in /home/bkarasulu/CARBON/AIRSS/Generating-Clusters/LCBOP/Higher-Symm/Only-C60/SD-CG/FIRE-HFTN
REM
REM
REM
REM
REM
REM ./C.cell (50c204cfd26239f34c78669fe23a5462)
REM
REM compiler GCC version 9.2.1 20190827 (Red Hat 9.2.1-1)
REM options -cpp -mtune=generic -march=x86-64 -g -O0 -fpre-include=/usr/include/finclude/math-vector-fortran.h
REM seed 1365557691 -256904340 100941924 1691018723 1825249815 -1732874961 1955201973 -1386890350 -377984961 -992876980 369696794 -1319429883 371670136 -821482155 968527649 -678790222 -1062559526 1482805760 164220713 843074818 726876147 -1477943315 913049530 -571923166 1239925075 41966611 -414620196 85324215 -1791910081 -613364340 -872614774 -1248586714 -2114823885
REM
CELL 1.54180   50.00000   50.00000   50.00000   90.00000   90.00000   90.00000
LATT -1
SFAC C  
C      1  0.4516970000000  0.4526870000000  0.5673330000000 1.0
C      1  0.5952600000000  0.4583310000000  0.5060280000000 1.0
C      1  0.4588310000000  0.4528680000000  0.4288840000000 1.0
C      1  0.4712270000000  0.4755450000000  0.4953210000000 1.0
C      1  0.5073640000000  0.4852840000000  0.5220650000000 1.0
C      1  0.5190530000000  0.4750520000000  0.4794630000000 1.0
C      1  0.5005550000000  0.4829670000000  0.4221960000000 1.0
C      1  0.4246070000000  0.4861120000000  0.5390460000000 1.0
C      1  0.5733800000000  0.4866020000000  0.5426570000000 1.0
C      1  0.4958990000000  0.5467970000000  0.5506980000000 1.0
C      1  0.5500230000000  0.5498010000000  0.4740470000000 1.0
C      1  0.4573160000000  0.5518610000000  0.4732990000000 1.0
C      1  0.5735280000000  0.4884080000000  0.4453090000000 1.0
C      1  0.4162070000000  0.4939990000000  0.4644820000000 1.0
C      1  0.5109830000000  0.4861590000000  0.5865800000000 1.0
C      1  0.5059100000000  0.5623580000000  0.4553600000000 1.0
C      1  0.4560860000000  0.5643480000000  0.5206860000000 1.0
C      1  0.5357660000000  0.5608450000000  0.5245470000000 1.0
C      1  0.5357680000000  0.4531120000000  0.4756980000000 1.0
C      1  0.4514790000000  0.4556350000000  0.4951580000000 1.0
C      1  0.5101160000000  0.4602380000000  0.5341580000000 1.0
C      1  0.5353900000000  0.5193350000000  0.5511140000000 1.0
C      1  0.5293270000000  0.5197640000000  0.4425980000000 1.0
C      1  0.4331180000000  0.5239130000000  0.5050970000000 1.0
C      1  0.4861970000000  0.5541060000000  0.4739240000000 1.0
C      1  0.4774760000000  0.5483420000000  0.5293060000000 1.0
C      1  0.5365790000000  0.5493700000000  0.4991950000000 1.0
C      1  0.4934110000000  0.4660500000000  0.5907730000000 1.0
C      1  0.5896000000000  0.4708010000000  0.4580150000000 1.0
C      1  0.4183080000000  0.4729160000000  0.4478830000000 1.0
C      1  0.5028280000000  0.5077870000000  0.4360330000000 1.0
C      1  0.4378720000000  0.5108730000000  0.5329220000000 1.0
C      1  0.5583000000000  0.5091950000000  0.5336490000000 1.0
C      1  0.5888910000000  0.4686140000000  0.5299820000000 1.0
C      1  0.4818770000000  0.4636060000000  0.4202220000000 1.0
C      1  0.4318620000000  0.4648550000000  0.5539810000000 1.0
C      1  0.5305660000000  0.5482490000000  0.4519020000000 1.0
C      1  0.4423810000000  0.5521990000000  0.4989290000000 1.0
C      1  0.5244080000000  0.5465340000000  0.5459680000000 1.0
C      1  0.5235860000000  0.4954520000000  0.4997680000000 1.0
C      1  0.4912770000000  0.4714970000000  0.4752210000000 1.0
C      1  0.4803010000000  0.4948690000000  0.5151500000000 1.0
C      1  0.5213390000000  0.5241660000000  0.4961770000000 1.0
C      1  0.4951380000000  0.5328520000000  0.4909700000000 1.0
C      1  0.4794050000000  0.5237980000000  0.5126420000000 1.0
C      1  0.4762820000000  0.5168460000000  0.4448960000000 1.0
C      1  0.4593660000000  0.5154190000000  0.5541070000000 1.0
C      1  0.5671110000000  0.5163560000000  0.5055530000000 1.0
C      1  0.5556550000000  0.5085860000000  0.4532230000000 1.0
C      1  0.4333760000000  0.5119650000000  0.4773760000000 1.0
C      1  0.5126950000000  0.5071910000000  0.5679820000000 1.0
C      1  0.4869120000000  0.5216630000000  0.5633550000000 1.0
C      1  0.5649280000000  0.5241760000000  0.4767890000000 1.0
C      1  0.4533550000000  0.5254800000000  0.4601950000000 1.0
C      1  0.5848030000000  0.4540480000000  0.4802800000000 1.0
C      1  0.4378800000000  0.4525150000000  0.4477930000000 1.0
C      1  0.4794280000000  0.4505890000000  0.5716100000000 1.0
C      1  0.5595790000000  0.4415240000000  0.4789780000000 1.0
C      1  0.4422760000000  0.4418830000000  0.4737370000000 1.0
C      1  0.4958660000000  0.4436090000000  0.5496890000000 1.0
END
