TITL C-2323492-8884-493 3.43524845624082 125000 -353.267181960177 0 0 60 (C1) n - 1
REM
REM in /home/bkarasulu/CARBON/AIRSS/Generating-Clusters/LCBOP/Higher-Symm/Only-C60/SD-CG/FIRE-HFTN
REM
REM
REM
REM
REM
REM ./C.cell (50c204cfd26239f34c78669fe23a5462)
REM
REM compiler GCC version 9.2.1 20190827 (Red Hat 9.2.1-1)
REM options -cpp -mtune=generic -march=x86-64 -g -O0 -fpre-include=/usr/include/finclude/math-vector-fortran.h
REM seed 278877891 1460165854 1927526363 1137816155 -1749065174 -1367207544 877897775 -380615953 696613756 534902596 162670408 -667777991 -79350582 -5599597 528192879 1722577825 1727710895 -1529437126 -1914354009 -616565786 812082301 421385943 761064607 -1894013091 -178248849 1726645822 299502481 457824223 -769805653 -882400493 -1905972086 -1013621845 -1931917549
REM
CELL 1.54180   50.00000   50.00000   50.00000   90.00000   90.00000   90.00000
LATT -1
SFAC C  
C      1  0.4175420000000  0.4971860000000  0.6881540000000 1.0
C      1  0.5103400000000  0.6089630000000  0.5846250000000 1.0
C      1  0.5230750000000  0.5806560000000  0.5474940000000 1.0
C      1  0.4283240000000  0.5531470000000  0.5410850000000 1.0
C      1  0.4128420000000  0.5543280000000  0.5192990000000 1.0
C      1  0.4317150000000  0.5309060000000  0.4800470000000 1.0
C      1  0.5772900000000  0.4555680000000  0.5362490000000 1.0
C      1  0.5007560000000  0.5201840000000  0.5017810000000 1.0
C      1  0.4637770000000  0.5509610000000  0.5751110000000 1.0
C      1  0.5908730000000  0.5391460000000  0.5592910000000 1.0
C      1  0.4920100000000  0.4420460000000  0.5102430000000 1.0
C      1  0.5642740000000  0.4750020000000  0.4565760000000 1.0
C      1  0.4733480000000  0.5270860000000  0.5077990000000 1.0
C      1  0.4796060000000  0.4486610000000  0.4858830000000 1.0
C      1  0.5705910000000  0.4481950000000  0.4616200000000 1.0
C      1  0.4781070000000  0.4233750000000  0.2911180000000 1.0
C      1  0.5589130000000  0.5186120000000  0.4361990000000 1.0
C      1  0.5775160000000  0.5583830000000  0.4073000000000 1.0
C      1  0.4543760000000  0.5406330000000  0.5992790000000 1.0
C      1  0.5408260000000  0.4866600000000  0.5549150000000 1.0
C      1  0.4930070000000  0.4815560000000  0.5441660000000 1.0
C      1  0.4139100000000  0.5451490000000  0.4941350000000 1.0
C      1  0.4451700000000  0.5298250000000  0.6216380000000 1.0
C      1  0.4712260000000  0.4957560000000  0.4712240000000 1.0
C      1  0.4524140000000  0.5423080000000  0.5506610000000 1.0
C      1  0.5174180000000  0.4965950000000  0.5434010000000 1.0
C      1  0.4566730000000  0.5195410000000  0.4846950000000 1.0
C      1  0.5488910000000  0.4220510000000  0.4212980000000 1.0
C      1  0.5834630000000  0.4444520000000  0.5128910000000 1.0
C      1  0.4359120000000  0.5188890000000  0.6439300000000 1.0
C      1  0.4619200000000  0.4713110000000  0.4877700000000 1.0
C      1  0.4709380000000  0.4848250000000  0.4431880000000 1.0
C      1  0.4845380000000  0.5696040000000  0.5748220000000 1.0
C      1  0.4983610000000  0.4327980000000  0.3669610000000 1.0
C      1  0.5185270000000  0.5161180000000  0.5230060000000 1.0
C      1  0.5682990000000  0.5386510000000  0.4216280000000 1.0
C      1  0.4266510000000  0.5079480000000  0.6662260000000 1.0
C      1  0.5054890000000  0.4361290000000  0.3936980000000 1.0
C      1  0.5006560000000  0.5041480000000  0.4778020000000 1.0
C      1  0.4425020000000  0.4718510000000  0.5081580000000 1.0
C      1  0.4812670000000  0.4589260000000  0.4365490000000 1.0
C      1  0.5636610000000  0.4293500000000  0.4421620000000 1.0
C      1  0.5487810000000  0.4976850000000  0.4516330000000 1.0
C      1  0.5809050000000  0.4412090000000  0.4866270000000 1.0
C      1  0.4947230000000  0.4551430000000  0.5336790000000 1.0
C      1  0.4652910000000  0.5225830000000  0.5349180000000 1.0
C      1  0.5066200000000  0.5917020000000  0.4973160000000 1.0
C      1  0.5475150000000  0.5679630000000  0.5521010000000 1.0
C      1  0.5059380000000  0.5867060000000  0.5693500000000 1.0
C      1  0.4856420000000  0.4420590000000  0.4591960000000 1.0
C      1  0.5695840000000  0.5538130000000  0.5559290000000 1.0
C      1  0.4673300000000  0.4949680000000  0.5430530000000 1.0
C      1  0.4454730000000  0.4792670000000  0.5339720000000 1.0
C      1  0.4892670000000  0.4507790000000  0.4112160000000 1.0
C      1  0.4847850000000  0.4264820000000  0.3161260000000 1.0
C      1  0.5230090000000  0.4992120000000  0.4622750000000 1.0
C      1  0.5290840000000  0.4249230000000  0.4038290000000 1.0
C      1  0.5622710000000  0.4712210000000  0.5516530000000 1.0
C      1  0.4915750000000  0.4296410000000  0.3415530000000 1.0
C      1  0.5152120000000  0.5871670000000  0.5214980000000 1.0
END
