TITL C-2323479-8056-193 0.0756767453325616 125000 -353.812961784252 0 0 60 (C1) n - 1
REM
REM in /home/bkarasulu/CARBON/AIRSS/Generating-Clusters/LCBOP/Higher-Symm/Only-C60/SD-CG/FIRE-HFTN
REM
REM
REM
REM
REM
REM ./C.cell (50c204cfd26239f34c78669fe23a5462)
REM
REM compiler GCC version 9.2.1 20190827 (Red Hat 9.2.1-1)
REM options -cpp -mtune=generic -march=x86-64 -g -O0 -fpre-include=/usr/include/finclude/math-vector-fortran.h
REM seed -1715977476 -1788395942 1331959954 -480787150 -276037848 -102348288 -607587453 1721816806 950322893 -832442324 -2139303958 -1186128146 -1402019699 -1154053954 431945934 1117210907 308086568 457877555 -7466011 893184073 -1974022810 -1956397987 -822396668 -1843154880 1850323421 -1317059167 -218024624 -750363550 -1570125114 -1927379519 1003328831 -1981450124 63054252
REM
CELL 1.54180   50.00000   50.00000   50.00000   90.00000   90.00000   90.00000
LATT -1
SFAC C  
C      1  0.4771580000000  0.5669000000000  0.5402580000000 1.0
C      1  0.4304030000000  0.4568930000000  0.5359450000000 1.0
C      1  0.4309850000000  0.4820770000000  0.5277010000000 1.0
C      1  0.4493580000000  0.5220580000000  0.5838940000000 1.0
C      1  0.4445030000000  0.5864860000000  0.4497660000000 1.0
C      1  0.4383690000000  0.5068070000000  0.5217260000000 1.0
C      1  0.4978640000000  0.5579310000000  0.5228090000000 1.0
C      1  0.5267300000000  0.4759470000000  0.5096890000000 1.0
C      1  0.4220200000000  0.5603500000000  0.5741330000000 1.0
C      1  0.5090300000000  0.5529390000000  0.4346420000000 1.0
C      1  0.4511600000000  0.5324960000000  0.4697610000000 1.0
C      1  0.4535330000000  0.6148840000000  0.4936160000000 1.0
C      1  0.6439690000000  0.4045630000000  0.5509380000000 1.0
C      1  0.4412000000000  0.3886200000000  0.5630840000000 1.0
C      1  0.4520590000000  0.5310400000000  0.5196680000000 1.0
C      1  0.5034060000000  0.4163200000000  0.5337360000000 1.0
C      1  0.5771340000000  0.5547860000000  0.3925200000000 1.0
C      1  0.4484810000000  0.6070710000000  0.4685750000000 1.0
C      1  0.4921390000000  0.5295490000000  0.4400200000000 1.0
C      1  0.5378040000000  0.5229620000000  0.5183740000000 1.0
C      1  0.6005200000000  0.4007930000000  0.5309010000000 1.0
C      1  0.4612280000000  0.4755220000000  0.6051360000000 1.0
C      1  0.4565800000000  0.5471770000000  0.5431220000000 1.0
C      1  0.5177090000000  0.5081550000000  0.4753050000000 1.0
C      1  0.5508840000000  0.4180500000000  0.5242130000000 1.0
C      1  0.6501100000000  0.3258830000000  0.4938780000000 1.0
C      1  0.4085780000000  0.5522870000000  0.4556650000000 1.0
C      1  0.6349800000000  0.3687350000000  0.5202940000000 1.0
C      1  0.5206130000000  0.4494860000000  0.5026490000000 1.0
C      1  0.6426170000000  0.3471370000000  0.5069840000000 1.0
C      1  0.4796360000000  0.4099350000000  0.5435230000000 1.0
C      1  0.5900720000000  0.5217650000000  0.5318120000000 1.0
C      1  0.4424020000000  0.5434490000000  0.5672750000000 1.0
C      1  0.4697260000000  0.5939980000000  0.5379680000000 1.0
C      1  0.4373260000000  0.4326400000000  0.5440750000000 1.0
C      1  0.4638090000000  0.5392130000000  0.4945670000000 1.0
C      1  0.4872270000000  0.4780000000000  0.3863480000000 1.0
C      1  0.5032570000000  0.5060740000000  0.4511160000000 1.0
C      1  0.4985820000000  0.5736090000000  0.4767870000000 1.0
C      1  0.4229910000000  0.5323410000000  0.4669740000000 1.0
C      1  0.5548850000000  0.5547330000000  0.4061080000000 1.0
C      1  0.4994050000000  0.4806630000000  0.4388380000000 1.0
C      1  0.5322910000000  0.5545080000000  0.4199390000000 1.0
C      1  0.4662850000000  0.5695880000000  0.4427350000000 1.0
C      1  0.4183650000000  0.5758830000000  0.4467670000000 1.0
C      1  0.4931380000000  0.4787390000000  0.4117180000000 1.0
C      1  0.6266850000000  0.3915110000000  0.5342330000000 1.0
C      1  0.5250310000000  0.4278440000000  0.5203260000000 1.0
C      1  0.4555300000000  0.4991230000000  0.5956400000000 1.0
C      1  0.4608000000000  0.6106900000000  0.5189840000000 1.0
C      1  0.4655510000000  0.5399540000000  0.4462650000000 1.0
C      1  0.5209710000000  0.5433140000000  0.5279840000000 1.0
C      1  0.5648280000000  0.5226820000000  0.5254050000000 1.0
C      1  0.5756910000000  0.4094030000000  0.5275870000000 1.0
C      1  0.4946740000000  0.5742560000000  0.4487560000000 1.0
C      1  0.4525250000000  0.4100310000000  0.5504380000000 1.0
C      1  0.4875540000000  0.5562120000000  0.4962010000000 1.0
C      1  0.5023460000000  0.4575590000000  0.4544290000000 1.0
C      1  0.5274430000000  0.5027020000000  0.5011700000000 1.0
C      1  0.5098500000000  0.4456760000000  0.4770290000000 1.0
END
