TITL C-2323481-8605-271 -0.00723066064425862 125000 -367.79134847327 0 0 60 (C1) n - 1
REM
REM in /home/bkarasulu/CARBON/AIRSS/Generating-Clusters/LCBOP/Higher-Symm/Only-C60/SD-CG/FIRE-HFTN
REM
REM
REM
REM
REM
REM ./C.cell (50c204cfd26239f34c78669fe23a5462)
REM
REM compiler GCC version 9.2.1 20190827 (Red Hat 9.2.1-1)
REM options -cpp -mtune=generic -march=x86-64 -g -O0 -fpre-include=/usr/include/finclude/math-vector-fortran.h
REM seed -302588664 -57152757 -58791546 1141369767 813056493 -540343771 1599424837 -2142600836 -833271272 244600219 1976624119 1971062966 181032128 1265807227 -1114232547 2066609603 1519305858 -781432853 -677072623 598967514 -1761968844 -1075040148 -662140273 1041968095 308329199 -2077521457 -1828182015 114995847 -3352928 -1943667079 -1509190829 -1923171265 -916070226
REM
CELL 1.54180   50.00000   50.00000   50.00000   90.00000   90.00000   90.00000
LATT -1
SFAC C  
C      1  0.5682240000000  0.4917560000000  0.4281750000000 1.0
C      1  0.5524110000000  0.4677280000000  0.5407860000000 1.0
C      1  0.5272000000000  0.5600850000000  0.5481700000000 1.0
C      1  0.4120880000000  0.5572010000000  0.5446390000000 1.0
C      1  0.5800340000000  0.4398070000000  0.4750320000000 1.0
C      1  0.5395980000000  0.4398750000000  0.4497930000000 1.0
C      1  0.5685200000000  0.5346490000000  0.5466980000000 1.0
C      1  0.4761200000000  0.5226420000000  0.4460080000000 1.0
C      1  0.4325150000000  0.5399040000000  0.5384730000000 1.0
C      1  0.4847040000000  0.3923080000000  0.5265180000000 1.0
C      1  0.4957240000000  0.5126060000000  0.5205250000000 1.0
C      1  0.4645100000000  0.4985020000000  0.4542470000000 1.0
C      1  0.5018200000000  0.5635750000000  0.5557250000000 1.0
C      1  0.4819820000000  0.5653490000000  0.4690530000000 1.0
C      1  0.4672800000000  0.3921860000000  0.5063740000000 1.0
C      1  0.5244830000000  0.4740300000000  0.5385320000000 1.0
C      1  0.4471430000000  0.4330830000000  0.4816970000000 1.0
C      1  0.4530250000000  0.4072000000000  0.4896170000000 1.0
C      1  0.5478560000000  0.5197150000000  0.4904960000000 1.0
C      1  0.4646070000000  0.5461910000000  0.4573320000000 1.0
C      1  0.5261390000000  0.4769570000000  0.4763890000000 1.0
C      1  0.4590220000000  0.5141040000000  0.5699440000000 1.0
C      1  0.4879350000000  0.5347580000000  0.5074280000000 1.0
C      1  0.5591660000000  0.5214290000000  0.4647850000000 1.0
C      1  0.5686360000000  0.4852470000000  0.5555100000000 1.0
C      1  0.4990480000000  0.4070710000000  0.5433920000000 1.0
C      1  0.4856850000000  0.6162950000000  0.4506660000000 1.0
C      1  0.4824270000000  0.4716120000000  0.5634440000000 1.0
C      1  0.4551250000000  0.5384060000000  0.5561010000000 1.0
C      1  0.5757650000000  0.4666310000000  0.4338070000000 1.0
C      1  0.4876640000000  0.6407450000000  0.4418390000000 1.0
C      1  0.5434710000000  0.5439360000000  0.5052890000000 1.0
C      1  0.5646680000000  0.4490200000000  0.5238280000000 1.0
C      1  0.4266360000000  0.5363140000000  0.4900500000000 1.0
C      1  0.5323540000000  0.4961230000000  0.4958640000000 1.0
C      1  0.5186110000000  0.4539580000000  0.4620440000000 1.0
C      1  0.5245880000000  0.5614420000000  0.4934330000000 1.0
C      1  0.4274120000000  0.4505220000000  0.4936080000000 1.0
C      1  0.5672540000000  0.4458370000000  0.4507450000000 1.0
C      1  0.5049890000000  0.4589310000000  0.5526830000000 1.0
C      1  0.4971270000000  0.5558860000000  0.4909440000000 1.0
C      1  0.4758810000000  0.5573120000000  0.5571710000000 1.0
C      1  0.4302300000000  0.5235020000000  0.5148290000000 1.0
C      1  0.5062040000000  0.4309590000000  0.5526030000000 1.0
C      1  0.5270110000000  0.5191850000000  0.4291420000000 1.0
C      1  0.5757040000000  0.5109350000000  0.5565060000000 1.0
C      1  0.5767220000000  0.4407770000000  0.5015300000000 1.0
C      1  0.4837090000000  0.5914510000000  0.4596510000000 1.0
C      1  0.4655390000000  0.4510780000000  0.4682510000000 1.0
C      1  0.4384860000000  0.5448890000000  0.4677010000000 1.0
C      1  0.4599620000000  0.4878020000000  0.5601470000000 1.0
C      1  0.4352250000000  0.4786200000000  0.4920370000000 1.0
C      1  0.5526750000000  0.5126460000000  0.4387600000000 1.0
C      1  0.5170550000000  0.4943150000000  0.5198850000000 1.0
C      1  0.4417580000000  0.4829090000000  0.5393190000000 1.0
C      1  0.4918800000000  0.4461650000000  0.4609540000000 1.0
C      1  0.4557450000000  0.4783300000000  0.4711130000000 1.0
C      1  0.5477690000000  0.5476670000000  0.5332860000000 1.0
C      1  0.5007230000000  0.5227530000000  0.4324150000000 1.0
C      1  0.4341550000000  0.4950860000000  0.5150170000000 1.0
END
