TITL C-2323488-8613-582 -86.6922549837421 125000 -334.630852682099 0 0 60 (C2) n - 1
REM
REM in /home/bkarasulu/CARBON/AIRSS/Generating-Clusters/LCBOP/Higher-Symm/Only-C60/SD-CG/FIRE-HFTN
REM
REM
REM
REM
REM
REM ./C.cell (50c204cfd26239f34c78669fe23a5462)
REM
REM compiler GCC version 9.2.1 20190827 (Red Hat 9.2.1-1)
REM options -cpp -mtune=generic -march=x86-64 -g -O0 -fpre-include=/usr/include/finclude/math-vector-fortran.h
REM seed 254789024 -1501671369 -61721036 994005055 -1361317379 1378009366 1534097183 -1118078559 -444614022 -1368964306 -2102819080 1100438962 633636652 -985342130 -462799493 1300076497 1243986445 1551823161 1517352753 -2120904938 590885207 1525275599 350454044 854363417 -1804276514 -929073944 2042248710 1819729916 1628592156 340073654 -1167546927 1926993874 -483040490
REM
CELL 1.54180   50.00000   50.00000   50.00000   90.00000   90.00000   90.00000
LATT -1
SFAC C  
C      1  0.5517280000000  0.5085200000000  0.5275190000000 1.0
C      1  0.4482710000000  0.5085150000000  0.4724810000000 1.0
C      1  0.5505720000000  0.4918840000000  0.4719840000000 1.0
C      1  0.4494290000000  0.4918790000000  0.5280150000000 1.0
C      1  0.5415930000000  0.5429100000000  0.4498880000000 1.0
C      1  0.4584030000000  0.5429040000000  0.5501130000000 1.0
C      1  0.5406380000000  0.4573750000000  0.5487830000000 1.0
C      1  0.4593660000000  0.4573720000000  0.4512160000000 1.0
C      1  0.4610920000000  0.4440020000000  0.5272430000000 1.0
C      1  0.5389140000000  0.4440060000000  0.4727560000000 1.0
C      1  0.4616700000000  0.5557930000000  0.4740460000000 1.0
C      1  0.5383240000000  0.5557960000000  0.5259550000000 1.0
C      1  0.5226420000000  0.4978760000000  0.4729940000000 1.0
C      1  0.4773580000000  0.4978740000000  0.5270060000000 1.0
C      1  0.5244050000000  0.5018740000000  0.5268770000000 1.0
C      1  0.4755950000000  0.5018720000000  0.4731230000000 1.0
C      1  0.4706120000000  0.4486380000000  0.5538160000000 1.0
C      1  0.5293930000000  0.4486420000000  0.4461830000000 1.0
C      1  0.4719880000000  0.5508990000000  0.4478630000000 1.0
C      1  0.5280070000000  0.5509010000000  0.5521380000000 1.0
C      1  0.4695270000000  0.4708010000000  0.5700780000000 1.0
C      1  0.5304760000000  0.4708060000000  0.4299210000000 1.0
C      1  0.4711770000000  0.5290110000000  0.4312590000000 1.0
C      1  0.5288200000000  0.5290130000000  0.5687420000000 1.0
C      1  0.5707890000000  0.4925220000000  0.5125100000000 1.0
C      1  0.4292110000000  0.4925150000000  0.4874900000000 1.0
C      1  0.5703020000000  0.5077920000000  0.4863430000000 1.0
C      1  0.4296970000000  0.5077850000000  0.5136570000000 1.0
C      1  0.4674360000000  0.4341630000000  0.4999100000000 1.0
C      1  0.5325700000000  0.4341660000000  0.5000880000000 1.0
C      1  0.4676960000000  0.5657120000000  0.5014190000000 1.0
C      1  0.5322970000000  0.5657150000000  0.4985830000000 1.0
C      1  0.4609090000000  0.4609070000000  0.4034340000000 1.0
C      1  0.5390950000000  0.4609090000000  0.5965650000000 1.0
C      1  0.4593930000000  0.5387650000000  0.5978440000000 1.0
C      1  0.5406030000000  0.5387710000000  0.4021560000000 1.0
C      1  0.5344780000000  0.4974830000000  0.4257140000000 1.0
C      1  0.4655230000000  0.4974780000000  0.5742860000000 1.0
C      1  0.5329090000000  0.5024270000000  0.5733970000000 1.0
C      1  0.4670910000000  0.5024260000000  0.4266030000000 1.0
C      1  0.4533690000000  0.4486210000000  0.4776770000000 1.0
C      1  0.5466360000000  0.4486250000000  0.5223220000000 1.0
C      1  0.4530280000000  0.5516980000000  0.5235110000000 1.0
C      1  0.5469670000000  0.5517030000000  0.4764900000000 1.0
C      1  0.5658460000000  0.5354420000000  0.4914610000000 1.0
C      1  0.4341510000000  0.5354350000000  0.5085400000000 1.0
C      1  0.5657290000000  0.4649230000000  0.5075760000000 1.0
C      1  0.4342750000000  0.4649170000000  0.4924240000000 1.0
C      1  0.5388870000000  0.5260410000000  0.4265790000000 1.0
C      1  0.4611110000000  0.5260360000000  0.5734220000000 1.0
C      1  0.5375490000000  0.4739130000000  0.5722810000000 1.0
C      1  0.4624540000000  0.4739100000000  0.4277190000000 1.0
C      1  0.4417040000000  0.5358510000000  0.4799900000000 1.0
C      1  0.5582930000000  0.5358560000000  0.5200100000000 1.0
C      1  0.4419880000000  0.4646070000000  0.5209270000000 1.0
C      1  0.5580160000000  0.4646130000000  0.4790720000000 1.0
C      1  0.5050600000000  0.5213060000000  0.4737750000000 1.0
C      1  0.4949380000000  0.5213050000000  0.5262250000000 1.0
C      1  0.5009050000000  0.4782470000000  0.5265690000000 1.0
C      1  0.4990970000000  0.4782470000000  0.4734310000000 1.0
END
