TITL C-2323485-8600-242 1.33917968236741 125000 -338.329507182136 0 0 60 (C1) n - 1
REM
REM in /home/bkarasulu/CARBON/AIRSS/Generating-Clusters/LCBOP/Higher-Symm/Only-C60/SD-CG/FIRE-HFTN
REM
REM
REM
REM
REM
REM ./C.cell (50c204cfd26239f34c78669fe23a5462)
REM
REM compiler GCC version 9.2.1 20190827 (Red Hat 9.2.1-1)
REM options -cpp -mtune=generic -march=x86-64 -g -O0 -fpre-include=/usr/include/finclude/math-vector-fortran.h
REM seed -1492060925 -1949757509 -1063991413 1823133021 503753030 -192990305 -174168298 -1100123835 -1943714746 -2096132852 -1309784070 -1630430226 1791292183 1043403260 -1688660337 1990385723 1856574917 -100878309 793601281 -716340075 1879706839 -1070285617 -988432380 1540581021 1552925638 2112421224 -973677962 -383530578 470370435 1181937122 1995003378 -1498649157 764059429
REM
CELL 1.54180   50.00000   50.00000   50.00000   90.00000   90.00000   90.00000
LATT -1
SFAC C  
C      1  0.5424160000000  0.4454400000000  0.5460390000000 1.0
C      1  0.4898660000000  0.4432840000000  0.5471030000000 1.0
C      1  0.4725690000000  0.3933150000000  0.5082470000000 1.0
C      1  0.4537270000000  0.4555800000000  0.4839210000000 1.0
C      1  0.4862880000000  0.4500040000000  0.4377690000000 1.0
C      1  0.5412730000000  0.4547180000000  0.4475550000000 1.0
C      1  0.5727310000000  0.4451680000000  0.4963330000000 1.0
C      1  0.5302010000000  0.4322280000000  0.5221230000000 1.0
C      1  0.5013370000000  0.4287990000000  0.5252690000000 1.0
C      1  0.4830350000000  0.4184790000000  0.5056810000000 1.0
C      1  0.4759210000000  0.4350130000000  0.4830760000000 1.0
C      1  0.4966120000000  0.4356990000000  0.4615500000000 1.0
C      1  0.5275660000000  0.4366940000000  0.4673690000000 1.0
C      1  0.5437300000000  0.4338890000000  0.4948510000000 1.0
C      1  0.4843270000000  0.4682170000000  0.5555300000000 1.0
C      1  0.4403210000000  0.5227240000000  0.5507290000000 1.0
C      1  0.4422640000000  0.4824910000000  0.4885830000000 1.0
C      1  0.4792000000000  0.4778750000000  0.4395200000000 1.0
C      1  0.5414720000000  0.4838080000000  0.4486240000000 1.0
C      1  0.5768380000000  0.4740390000000  0.5020150000000 1.0
C      1  0.5423100000000  0.4740410000000  0.5519790000000 1.0
C      1  0.5333120000000  0.5260300000000  0.5062510000000 1.0
C      1  0.5226100000000  0.5072410000000  0.5258370000000 1.0
C      1  0.4973950000000  0.5132020000000  0.5353140000000 1.0
C      1  0.4885970000000  0.5318290000000  0.5147480000000 1.0
C      1  0.4752010000000  0.5158420000000  0.4964180000000 1.0
C      1  0.4933330000000  0.5135880000000  0.4746210000000 1.0
C      1  0.5226240000000  0.5176740000000  0.4810630000000 1.0
C      1  0.4912380000000  0.5627690000000  0.5446110000000 1.0
C      1  0.4623030000000  0.5660900000000  0.5157800000000 1.0
C      1  0.4559700000000  0.5514610000000  0.4806260000000 1.0
C      1  0.4725770000000  0.5446730000000  0.4498170000000 1.0
C      1  0.5002810000000  0.5462630000000  0.4417220000000 1.0
C      1  0.5517570000000  0.5394390000000  0.5224050000000 1.0
C      1  0.5259730000000  0.5479780000000  0.5493520000000 1.0
C      1  0.4792760000000  0.4945770000000  0.5473280000000 1.0
C      1  0.4528530000000  0.5008020000000  0.5370300000000 1.0
C      1  0.4559410000000  0.4979340000000  0.5083820000000 1.0
C      1  0.4910190000000  0.4879840000000  0.4627780000000 1.0
C      1  0.5343200000000  0.4893240000000  0.4773270000000 1.0
C      1  0.5496660000000  0.4818080000000  0.5009590000000 1.0
C      1  0.5379620000000  0.4849610000000  0.5260210000000 1.0
C      1  0.4632510000000  0.4978860000000  0.4270440000000 1.0
C      1  0.5347820000000  0.5064770000000  0.4322340000000 1.0
C      1  0.5883450000000  0.4992440000000  0.5135390000000 1.0
C      1  0.5389780000000  0.4980660000000  0.5696340000000 1.0
C      1  0.4566950000000  0.5359280000000  0.5703300000000 1.0
C      1  0.4250810000000  0.5419370000000  0.5365070000000 1.0
C      1  0.4281100000000  0.5044760000000  0.4749380000000 1.0
C      1  0.4339040000000  0.5317690000000  0.4786540000000 1.0
C      1  0.4592920000000  0.5241830000000  0.4338800000000 1.0
C      1  0.5202880000000  0.5298000000000  0.4324360000000 1.0
C      1  0.5772030000000  0.5241880000000  0.5221280000000 1.0
C      1  0.5317590000000  0.5254880000000  0.5676460000000 1.0
C      1  0.4750200000000  0.5552400000000  0.5650320000000 1.0
C      1  0.4375110000000  0.5638700000000  0.5263930000000 1.0
C      1  0.5019730000000  0.5549100000000  0.5034240000000 1.0
C      1  0.5082140000000  0.4732950000000  0.4805200000000 1.0
C      1  0.4993520000000  0.4662100000000  0.5049080000000 1.0
C      1  0.5119610000000  0.5767890000000  0.4931040000000 1.0
END
