TITL C-2323478-8180-410 0.0245831623604777 125000 -358.681315540112 0 0 60 (C1) n - 1
REM
REM in /home/bkarasulu/CARBON/AIRSS/Generating-Clusters/LCBOP/Higher-Symm/Only-C60/SD-CG/FIRE-HFTN
REM
REM
REM
REM
REM
REM ./C.cell (50c204cfd26239f34c78669fe23a5462)
REM
REM compiler GCC version 9.2.1 20190827 (Red Hat 9.2.1-1)
REM options -cpp -mtune=generic -march=x86-64 -g -O0 -fpre-include=/usr/include/finclude/math-vector-fortran.h
REM seed -380154976 1034547330 1692603938 1695734788 1548617990 -218900859 856326418 -1172618380 1948262891 1064525042 1856072571 -1987573402 1386593700 -1794074347 636226703 4560411 -1664506541 756718711 -463417140 1796522719 -79584093 -1992256240 -966671108 1207432784 -1657372619 484160332 -1288297167 -1564254596 -815226609 2069512070 -1410594664 -347817647 -507637084
REM
CELL 1.54180   50.00000   50.00000   50.00000   90.00000   90.00000   90.00000
LATT -1
SFAC C  
C      1  0.4804130000000  0.5398170000000  0.4862110000000 1.0
C      1  0.4934400000000  0.4776730000000  0.4636110000000 1.0
C      1  0.4826150000000  0.4938810000000  0.5443650000000 1.0
C      1  0.4691800000000  0.4899810000000  0.5890450000000 1.0
C      1  0.4488670000000  0.5684270000000  0.4651520000000 1.0
C      1  0.4579460000000  0.4517100000000  0.4465730000000 1.0
C      1  0.5090290000000  0.5309560000000  0.4361170000000 1.0
C      1  0.4961790000000  0.4441530000000  0.5147330000000 1.0
C      1  0.4723400000000  0.5596840000000  0.5287710000000 1.0
C      1  0.5916050000000  0.4063280000000  0.5763360000000 1.0
C      1  0.5179810000000  0.5578350000000  0.4348290000000 1.0
C      1  0.5124640000000  0.4265440000000  0.4988750000000 1.0
C      1  0.4718970000000  0.5679690000000  0.4819000000000 1.0
C      1  0.4862690000000  0.4530430000000  0.4501910000000 1.0
C      1  0.4914130000000  0.4866340000000  0.5715160000000 1.0
C      1  0.5871560000000  0.4828810000000  0.5065890000000 1.0
C      1  0.5653910000000  0.5181490000000  0.5301920000000 1.0
C      1  0.5750580000000  0.5225920000000  0.4840180000000 1.0
C      1  0.5346580000000  0.4333290000000  0.4842820000000 1.0
C      1  0.5806040000000  0.4272960000000  0.5654280000000 1.0
C      1  0.5307710000000  0.5712490000000  0.4547930000000 1.0
C      1  0.5782020000000  0.4939180000000  0.4821030000000 1.0
C      1  0.5723470000000  0.4904070000000  0.5297630000000 1.0
C      1  0.5625420000000  0.5346640000000  0.5068970000000 1.0
C      1  0.4634530000000  0.4735160000000  0.5364890000000 1.0
C      1  0.4549730000000  0.5281070000000  0.4977920000000 1.0
C      1  0.4764650000000  0.4985100000000  0.4517620000000 1.0
C      1  0.4398720000000  0.5208620000000  0.4738690000000 1.0
C      1  0.4488400000000  0.4964270000000  0.4615010000000 1.0
C      1  0.4412760000000  0.4732470000000  0.5546180000000 1.0
C      1  0.4506030000000  0.5399600000000  0.5241240000000 1.0
C      1  0.4838360000000  0.5181430000000  0.4313950000000 1.0
C      1  0.4687160000000  0.4507410000000  0.5198080000000 1.0
C      1  0.4364740000000  0.5440890000000  0.4557610000000 1.0
C      1  0.4405770000000  0.4687550000000  0.4621100000000 1.0
C      1  0.4432360000000  0.4922550000000  0.5761790000000 1.0
C      1  0.5569120000000  0.4701010000000  0.5416290000000 1.0
C      1  0.5427960000000  0.5552900000000  0.5047470000000 1.0
C      1  0.5574490000000  0.4799280000000  0.4681830000000 1.0
C      1  0.4316720000000  0.4559230000000  0.4855230000000 1.0
C      1  0.4330240000000  0.5176150000000  0.5687270000000 1.0
C      1  0.4395350000000  0.5390990000000  0.4279820000000 1.0
C      1  0.4349320000000  0.5321040000000  0.5460450000000 1.0
C      1  0.4623340000000  0.5293690000000  0.4169850000000 1.0
C      1  0.4465740000000  0.4433130000000  0.5041480000000 1.0
C      1  0.4727870000000  0.5796780000000  0.5080870000000 1.0
C      1  0.5034580000000  0.4355280000000  0.4384870000000 1.0
C      1  0.5159430000000  0.4737310000000  0.5662710000000 1.0
C      1  0.5285710000000  0.4713490000000  0.5403670000000 1.0
C      1  0.5222390000000  0.5562230000000  0.5244460000000 1.0
C      1  0.5389430000000  0.4976120000000  0.4564030000000 1.0
C      1  0.5693420000000  0.4485120000000  0.5542570000000 1.0
C      1  0.5396950000000  0.5695000000000  0.4802330000000 1.0
C      1  0.5503200000000  0.4528020000000  0.4736700000000 1.0
C      1  0.5051290000000  0.5271630000000  0.4817910000000 1.0
C      1  0.5066660000000  0.4802490000000  0.4895110000000 1.0
C      1  0.4940890000000  0.5179840000000  0.5360040000000 1.0
C      1  0.4974440000000  0.5460230000000  0.5336080000000 1.0
C      1  0.5206150000000  0.5184520000000  0.4594510000000 1.0
C      1  0.5128470000000  0.4687170000000  0.5157490000000 1.0
END
