TITL C-2323484-8600-111 4.77998166122438e-06 125000 -354.865745833265 0 0 60 (D2d) n - 1
REM
REM in /home/bkarasulu/CARBON/AIRSS/Generating-Clusters/LCBOP/Higher-Symm/Only-C60/SD-CG/FIRE-HFTN
REM
REM
REM
REM
REM
REM ./C.cell (50c204cfd26239f34c78669fe23a5462)
REM
REM compiler GCC version 9.2.1 20190827 (Red Hat 9.2.1-1)
REM options -cpp -mtune=generic -march=x86-64 -g -O0 -fpre-include=/usr/include/finclude/math-vector-fortran.h
REM seed -170086852 -1962812719 -1894277250 -1380271949 -2086818394 46212211 1958242270 779036238 -635887538 1475708780 -1709802965 -1367844121 632490524 -1731162053 -534406531 148649132 -845602757 -2041938456 877114699 -1380921936 1795140954 2030191928 1408147148 -139129577 -787106993 421119363 1426820634 839324387 524286266 -1502079569 -333436304 822120480 2132643020
REM
CELL 1.54180   50.00000   50.00000   50.00000   90.00000   90.00000   90.00000
LATT -1
SFAC C  
C      1  0.5395380000000  0.4179850000000  0.4967390000000 1.0
C      1  0.5395390000000  0.5820150000000  0.5032610000000 1.0
C      1  0.4604620000000  0.5820150000000  0.4967390000000 1.0
C      1  0.4604610000000  0.4179850000000  0.5032610000000 1.0
C      1  0.5395380000000  0.4967390000000  0.4179850000000 1.0
C      1  0.5395390000000  0.5032610000000  0.5820150000000 1.0
C      1  0.4604620000000  0.4967390000000  0.5820150000000 1.0
C      1  0.4604610000000  0.5032610000000  0.4179850000000 1.0
C      1  0.5268510000000  0.4715650000000  0.5086550000000 1.0
C      1  0.5268510000000  0.5284350000000  0.4913450000000 1.0
C      1  0.4731490000000  0.5284350000000  0.5086550000000 1.0
C      1  0.4731490000000  0.4715650000000  0.4913450000000 1.0
C      1  0.5268510000000  0.5086550000000  0.4715650000000 1.0
C      1  0.5268510000000  0.4913450000000  0.5284350000000 1.0
C      1  0.4731490000000  0.5086550000000  0.5284350000000 1.0
C      1  0.4731490000000  0.4913450000000  0.4715650000000 1.0
C      1  0.5260130000000  0.4267620000000  0.4749020000000 1.0
C      1  0.5260140000000  0.5732380000000  0.5250980000000 1.0
C      1  0.4739870000000  0.5732380000000  0.4749020000000 1.0
C      1  0.4739860000000  0.4267620000000  0.5250980000000 1.0
C      1  0.5260130000000  0.4749020000000  0.4267620000000 1.0
C      1  0.5260140000000  0.5250980000000  0.5732380000000 1.0
C      1  0.4739870000000  0.4749020000000  0.5732380000000 1.0
C      1  0.4739860000000  0.5250980000000  0.4267620000000 1.0
C      1  0.4904400000000  0.5502360000000  0.4711440000000 1.0
C      1  0.4904390000000  0.4497640000000  0.5288560000000 1.0
C      1  0.5095600000000  0.4497640000000  0.4711440000000 1.0
C      1  0.5095610000000  0.5502360000000  0.5288560000000 1.0
C      1  0.4904390000000  0.4711440000000  0.5502360000000 1.0
C      1  0.4904390000000  0.5288560000000  0.4497640000000 1.0
C      1  0.5095600000000  0.4711440000000  0.4497640000000 1.0
C      1  0.5095610000000  0.5288560000000  0.5502360000000 1.0
C      1  0.4509270000000  0.5283110000000  0.4908530000000 1.0
C      1  0.4509260000000  0.4716890000000  0.5091470000000 1.0
C      1  0.5490730000000  0.4716890000000  0.4908520000000 1.0
C      1  0.5490740000000  0.5283110000000  0.5091470000000 1.0
C      1  0.4509270000000  0.4908530000000  0.5283110000000 1.0
C      1  0.4509270000000  0.5091480000000  0.4716890000000 1.0
C      1  0.5490730000000  0.4908520000000  0.4716890000000 1.0
C      1  0.5490740000000  0.5091470000000  0.5283110000000 1.0
C      1  0.5515010000000  0.4360250000000  0.5449620000000 1.0
C      1  0.5515010000000  0.5639750000000  0.4550380000000 1.0
C      1  0.4485000000000  0.5639750000000  0.5449620000000 1.0
C      1  0.4484990000000  0.4360250000000  0.4550380000000 1.0
C      1  0.5515010000000  0.5449620000000  0.4360250000000 1.0
C      1  0.5515010000000  0.4550370000000  0.5639750000000 1.0
C      1  0.4485000000000  0.5449620000000  0.5639750000000 1.0
C      1  0.4484990000000  0.4550380000000  0.4360250000000 1.0
C      1  0.4522030000000  0.5775060000000  0.5220030000000 1.0
C      1  0.4522030000000  0.4224950000000  0.4779980000000 1.0
C      1  0.5477970000000  0.4224940000000  0.5220020000000 1.0
C      1  0.5477970000000  0.5775050000000  0.4779970000000 1.0
C      1  0.4522030000000  0.5220030000000  0.5775060000000 1.0
C      1  0.4522030000000  0.4779980000000  0.4224940000000 1.0
C      1  0.5477970000000  0.5220020000000  0.4224940000000 1.0
C      1  0.5477970000000  0.4779970000000  0.5775060000000 1.0
C      1  0.5000000000000  0.4600430000000  0.5000000000000 1.0
C      1  0.5000000000000  0.5399570000000  0.5000000000000 1.0
C      1  0.5000000000000  0.5000000000000  0.4600430000000 1.0
C      1  0.5000000000000  0.5000000000000  0.5399570000000 1.0
END
