TITL C-2323484-8600-61 0.170082878819244 125000 -358.858972028226 0 0 60 (C1) n - 1
REM
REM in /home/bkarasulu/CARBON/AIRSS/Generating-Clusters/LCBOP/Higher-Symm/Only-C60/SD-CG/FIRE-HFTN
REM
REM
REM
REM
REM
REM ./C.cell (50c204cfd26239f34c78669fe23a5462)
REM
REM compiler GCC version 9.2.1 20190827 (Red Hat 9.2.1-1)
REM options -cpp -mtune=generic -march=x86-64 -g -O0 -fpre-include=/usr/include/finclude/math-vector-fortran.h
REM seed -1223343839 1680827961 -418287804 -1780453255 -899447278 1633587990 780161439 -520598451 -1556769414 -1385122615 867902565 -151675942 -133859102 -762343622 19712233 1081928531 1143819582 -1246074154 1420294636 -1967735652 -1206863231 15017819 -1110548229 -679878640 532210364 243306764 -1024894302 2129969504 1150537728 -272954754 -1784474960 2069082267 732477578
REM
CELL 1.54180   50.00000   50.00000   50.00000   90.00000   90.00000   90.00000
LATT -1
SFAC C  
C      1  0.5545070000000  0.5302540000000  0.5383100000000 1.0
C      1  0.5419950000000  0.4787790000000  0.4428130000000 1.0
C      1  0.4618190000000  0.5329960000000  0.5242660000000 1.0
C      1  0.4580920000000  0.4687290000000  0.4642410000000 1.0
C      1  0.4728950000000  0.4887240000000  0.5105120000000 1.0
C      1  0.4837220000000  0.5110790000000  0.4565310000000 1.0
C      1  0.4344300000000  0.5245990000000  0.5276880000000 1.0
C      1  0.4323210000000  0.4768390000000  0.4750890000000 1.0
C      1  0.5787030000000  0.4968540000000  0.5059540000000 1.0
C      1  0.5708340000000  0.4806950000000  0.4832390000000 1.0
C      1  0.5154380000000  0.4000200000000  0.4843210000000 1.0
C      1  0.5087310000000  0.5996620000000  0.5231810000000 1.0
C      1  0.5206510000000  0.4615870000000  0.4494750000000 1.0
C      1  0.5286590000000  0.5342720000000  0.5514320000000 1.0
C      1  0.4242480000000  0.4842070000000  0.5026460000000 1.0
C      1  0.4217280000000  0.5149250000000  0.5025360000000 1.0
C      1  0.5226940000000  0.5214840000000  0.5755040000000 1.0
C      1  0.5596550000000  0.4837820000000  0.3921330000000 1.0
C      1  0.4443320000000  0.5671130000000  0.4655640000000 1.0
C      1  0.4482020000000  0.4342880000000  0.5454950000000 1.0
C      1  0.5403950000000  0.5164730000000  0.4737070000000 1.0
C      1  0.5406640000000  0.4855090000000  0.5301550000000 1.0
C      1  0.4198130000000  0.4991510000000  0.4597690000000 1.0
C      1  0.4286920000000  0.5021110000000  0.5455530000000 1.0
C      1  0.5510440000000  0.4812220000000  0.4165960000000 1.0
C      1  0.5162170000000  0.5077480000000  0.5966800000000 1.0
C      1  0.4957290000000  0.4745970000000  0.5173650000000 1.0
C      1  0.4920710000000  0.5238260000000  0.4824510000000 1.0
C      1  0.4927910000000  0.4500300000000  0.5302520000000 1.0
C      1  0.4908200000000  0.5531680000000  0.4778170000000 1.0
C      1  0.5463630000000  0.5698470000000  0.5115080000000 1.0
C      1  0.5460410000000  0.4361550000000  0.4967750000000 1.0
C      1  0.4284430000000  0.4517850000000  0.5411730000000 1.0
C      1  0.4243130000000  0.5493990000000  0.4667390000000 1.0
C      1  0.5540260000000  0.4937170000000  0.4639630000000 1.0
C      1  0.5615180000000  0.5045910000000  0.5276470000000 1.0
C      1  0.5225130000000  0.4270190000000  0.4828530000000 1.0
C      1  0.5212030000000  0.5748160000000  0.5245020000000 1.0
C      1  0.5459630000000  0.4368280000000  0.5251470000000 1.0
C      1  0.5482500000000  0.5659660000000  0.4837030000000 1.0
C      1  0.4949320000000  0.6220580000000  0.5200530000000 1.0
C      1  0.5074820000000  0.3749120000000  0.4871690000000 1.0
C      1  0.5062130000000  0.4449930000000  0.4673010000000 1.0
C      1  0.5096920000000  0.5527500000000  0.5393050000000 1.0
C      1  0.4746070000000  0.4337480000000  0.5411200000000 1.0
C      1  0.4706010000000  0.5692890000000  0.4703720000000 1.0
C      1  0.5184260000000  0.5107280000000  0.4912620000000 1.0
C      1  0.5189670000000  0.4900550000000  0.5123270000000 1.0
C      1  0.5450550000000  0.4594560000000  0.5399400000000 1.0
C      1  0.5476600000000  0.5431960000000  0.4694100000000 1.0
C      1  0.5661850000000  0.4527190000000  0.4853830000000 1.0
C      1  0.5643830000000  0.5541500000000  0.5269360000000 1.0
C      1  0.4696630000000  0.4897290000000  0.4487290000000 1.0
C      1  0.4733730000000  0.5160880000000  0.5044260000000 1.0
C      1  0.4994620000000  0.3502910000000  0.4901820000000 1.0
C      1  0.4808890000000  0.6437360000000  0.5165190000000 1.0
C      1  0.4246050000000  0.4773030000000  0.5308910000000 1.0
C      1  0.4181200000000  0.5236610000000  0.4752470000000 1.0
C      1  0.4776730000000  0.4485120000000  0.4697700000000 1.0
C      1  0.4814890000000  0.5477820000000  0.5383700000000 1.0
END
