TITL C-2323489-8765-413 0.000335484311117638 125000 -359.754169420191 0 0 60 (C2) n - 1
REM
REM in /home/bkarasulu/CARBON/AIRSS/Generating-Clusters/LCBOP/Higher-Symm/Only-C60/SD-CG/FIRE-HFTN
REM
REM
REM
REM
REM
REM ./C.cell (50c204cfd26239f34c78669fe23a5462)
REM
REM compiler GCC version 9.2.1 20190827 (Red Hat 9.2.1-1)
REM options -cpp -mtune=generic -march=x86-64 -g -O0 -fpre-include=/usr/include/finclude/math-vector-fortran.h
REM seed -802598601 233000649 495006365 -516336043 1079925621 1134241739 1061460830 415995056 -1822103293 2026444289 290951948 2001666773 -1258667044 1171735379 -1706701191 -1461034075 -11134592 335700517 1364644269 -938608994 1075282759 -1159408908 -112830277 1769471515 -447236792 733739119 -575286308 -63427426 520355122 -1239407915 -1743231763 -1829184022 336919635
REM
CELL 1.54180   50.00000   50.00000   50.00000   90.00000   90.00000   90.00000
LATT -1
SFAC C  
C      1  0.4808620000000  0.4713000000000  0.5432970000000 1.0
C      1  0.4696990000000  0.5170520000000  0.5433230000000 1.0
C      1  0.5191140000000  0.5287210000000  0.5433020000000 1.0
C      1  0.5302780000000  0.4829700000000  0.5433130000000 1.0
C      1  0.4694880000000  0.4774150000000  0.5168960000000 1.0
C      1  0.4619320000000  0.5066030000000  0.5168460000000 1.0
C      1  0.5304890000000  0.5226150000000  0.5169000000000 1.0
C      1  0.5380590000000  0.4934190000000  0.5168400000000 1.0
C      1  0.4339520000000  0.5579300000000  0.4892250000000 1.0
C      1  0.5624470000000  0.5641440000000  0.4880160000000 1.0
C      1  0.5660160000000  0.4420280000000  0.4892770000000 1.0
C      1  0.4375410000000  0.4358720000000  0.4880570000000 1.0
C      1  0.4855830000000  0.5806950000000  0.5282610000000 1.0
C      1  0.5844280000000  0.5158160000000  0.5328180000000 1.0
C      1  0.5143880000000  0.4193060000000  0.5283300000000 1.0
C      1  0.4155480000000  0.4842020000000  0.5328330000000 1.0
C      1  0.5776500000000  0.4625530000000  0.5313090000000 1.0
C      1  0.4607250000000  0.4236810000000  0.5284390000000 1.0
C      1  0.4223190000000  0.5374620000000  0.5312820000000 1.0
C      1  0.5392500000000  0.5763330000000  0.5283920000000 1.0
C      1  0.4469350000000  0.5380500000000  0.4743310000000 1.0
C      1  0.5429810000000  0.5497960000000  0.4736900000000 1.0
C      1  0.5530820000000  0.4619110000000  0.4743470000000 1.0
C      1  0.4570030000000  0.4502160000000  0.4737240000000 1.0
C      1  0.4907420000000  0.4803540000000  0.4760500000000 1.0
C      1  0.4810540000000  0.5103800000000  0.4754320000000 1.0
C      1  0.5093590000000  0.5195260000000  0.4759990000000 1.0
C      1  0.5191170000000  0.4897770000000  0.4753160000000 1.0
C      1  0.4533000000000  0.4814760000000  0.4354160000000 1.0
C      1  0.4813070000000  0.5472080000000  0.4385150000000 1.0
C      1  0.5467250000000  0.5184780000000  0.4354060000000 1.0
C      1  0.5187010000000  0.4527410000000  0.4385420000000 1.0
C      1  0.4377860000000  0.4367260000000  0.5168710000000 1.0
C      1  0.4365790000000  0.5585910000000  0.5178040000000 1.0
C      1  0.5621970000000  0.5632920000000  0.5168310000000 1.0
C      1  0.5633860000000  0.4414080000000  0.5178550000000 1.0
C      1  0.5768960000000  0.5416480000000  0.5288580000000 1.0
C      1  0.5403330000000  0.4272590000000  0.5274170000000 1.0
C      1  0.4230840000000  0.4583690000000  0.5288910000000 1.0
C      1  0.4596360000000  0.5727470000000  0.5273500000000 1.0
C      1  0.4564860000000  0.5344710000000  0.4466070000000 1.0
C      1  0.5355190000000  0.5428750000000  0.4460210000000 1.0
C      1  0.5435310000000  0.4654730000000  0.4466140000000 1.0
C      1  0.4644890000000  0.4570900000000  0.4460530000000 1.0
C      1  0.5493640000000  0.4914280000000  0.4350880000000 1.0
C      1  0.4915300000000  0.4500720000000  0.4377070000000 1.0
C      1  0.4506610000000  0.5085190000000  0.4350990000000 1.0
C      1  0.5084770000000  0.5498750000000  0.4376640000000 1.0
C      1  0.4602380000000  0.5188460000000  0.4913680000000 1.0
C      1  0.5263010000000  0.5346020000000  0.4914400000000 1.0
C      1  0.5398460000000  0.4812010000000  0.4913500000000 1.0
C      1  0.4736900000000  0.4654160000000  0.4914500000000 1.0
C      1  0.4872930000000  0.4180140000000  0.5292790000000 1.0
C      1  0.4149070000000  0.5113740000000  0.5339680000000 1.0
C      1  0.5126780000000  0.5819920000000  0.5292190000000 1.0
C      1  0.5850660000000  0.4886430000000  0.5339730000000 1.0
C      1  0.5082970000000  0.4656100000000  0.5460410000000 1.0
C      1  0.4709270000000  0.4930840000000  0.5597030000000 1.0
C      1  0.4916790000000  0.5344130000000  0.5460560000000 1.0
C      1  0.5290510000000  0.5069320000000  0.5597000000000 1.0
END
