TITL C-2323478-8180-330 -3.25600880850075e-05 125000 -356.367711372051 0 0 60 (C1) n - 1
REM
REM in /home/bkarasulu/CARBON/AIRSS/Generating-Clusters/LCBOP/Higher-Symm/Only-C60/SD-CG/FIRE-HFTN
REM
REM
REM
REM
REM
REM ./C.cell (50c204cfd26239f34c78669fe23a5462)
REM
REM compiler GCC version 9.2.1 20190827 (Red Hat 9.2.1-1)
REM options -cpp -mtune=generic -march=x86-64 -g -O0 -fpre-include=/usr/include/finclude/math-vector-fortran.h
REM seed 1506499483 1412051048 634620654 1466755568 1632070567 888409214 -232146816 -190462224 -975581288 1395194327 -54112670 -1026855443 -1034732322 1059351073 -1123562916 819861093 -337407151 -68231423 736559945 -789132761 1738320535 438809145 71484652 1917475788 1920970734 1249554033 859251679 1255698205 -754932506 -827482134 -140648941 -24498868 -804229219
REM
CELL 1.54180   50.00000   50.00000   50.00000   90.00000   90.00000   90.00000
LATT -1
SFAC C  
C      1  0.5377110000000  0.4900690000000  0.4427690000000 1.0
C      1  0.5353250000000  0.5104020000000  0.5530200000000 1.0
C      1  0.5348510000000  0.4842990000000  0.5507750000000 1.0
C      1  0.5405300000000  0.5162120000000  0.4450530000000 1.0
C      1  0.4771970000000  0.4872300000000  0.4714440000000 1.0
C      1  0.4817320000000  0.5158850000000  0.5239980000000 1.0
C      1  0.4813040000000  0.4870710000000  0.5256240000000 1.0
C      1  0.4679680000000  0.5122180000000  0.4610680000000 1.0
C      1  0.5049510000000  0.4572380000000  0.4410260000000 1.0
C      1  0.5085430000000  0.5475320000000  0.5601450000000 1.0
C      1  0.5064580000000  0.4480850000000  0.5552840000000 1.0
C      1  0.5079470000000  0.5488700000000  0.4502380000000 1.0
C      1  0.5833380000000  0.4832010000000  0.5275900000000 1.0
C      1  0.5869510000000  0.5133380000000  0.4757430000000 1.0
C      1  0.5847880000000  0.4865570000000  0.4736670000000 1.0
C      1  0.5843360000000  0.5100980000000  0.5295040000000 1.0
C      1  0.4596120000000  0.3963870000000  0.5206100000000 1.0
C      1  0.4538870000000  0.6026800000000  0.4775300000000 1.0
C      1  0.4621040000000  0.3952830000000  0.4934800000000 1.0
C      1  0.4602700000000  0.6042840000000  0.5039850000000 1.0
C      1  0.5281900000000  0.5340010000000  0.4664450000000 1.0
C      1  0.5229870000000  0.4616940000000  0.5341250000000 1.0
C      1  0.5253830000000  0.5352480000000  0.5385160000000 1.0
C      1  0.5233150000000  0.4703050000000  0.4610330000000 1.0
C      1  0.4501910000000  0.5539320000000  0.4802910000000 1.0
C      1  0.4574780000000  0.4452480000000  0.5194170000000 1.0
C      1  0.4568140000000  0.5556960000000  0.5088250000000 1.0
C      1  0.4589370000000  0.4439880000000  0.4902390000000 1.0
C      1  0.4291000000000  0.5110210000000  0.4874140000000 1.0
C      1  0.4341020000000  0.4871500000000  0.5248980000000 1.0
C      1  0.4340960000000  0.5140100000000  0.5166240000000 1.0
C      1  0.4312020000000  0.4829610000000  0.4846630000000 1.0
C      1  0.5742210000000  0.5347800000000  0.4892120000000 1.0
C      1  0.5700650000000  0.4626970000000  0.5131670000000 1.0
C      1  0.5730920000000  0.5333620000000  0.5177590000000 1.0
C      1  0.5698180000000  0.4652490000000  0.4847310000000 1.0
C      1  0.4883710000000  0.5201750000000  0.4125520000000 1.0
C      1  0.4866330000000  0.4833630000000  0.5869950000000 1.0
C      1  0.4867180000000  0.5101740000000  0.5879270000000 1.0
C      1  0.4869960000000  0.4934830000000  0.4099800000000 1.0
C      1  0.4553590000000  0.4692780000000  0.4782020000000 1.0
C      1  0.4571550000000  0.5304530000000  0.5218560000000 1.0
C      1  0.4571830000000  0.4720150000000  0.5288990000000 1.0
C      1  0.4462380000000  0.5273670000000  0.4712350000000 1.0
C      1  0.5513410000000  0.5471530000000  0.5299590000000 1.0
C      1  0.5465450000000  0.4552380000000  0.4719700000000 1.0
C      1  0.5524060000000  0.5480780000000  0.4767900000000 1.0
C      1  0.5477460000000  0.4488420000000  0.5240120000000 1.0
C      1  0.4950440000000  0.5414270000000  0.4276120000000 1.0
C      1  0.4933060000000  0.4598000000000  0.5759240000000 1.0
C      1  0.4940130000000  0.5344240000000  0.5789370000000 1.0
C      1  0.4921020000000  0.4692100000000  0.4203610000000 1.0
C      1  0.4489520000000  0.5784160000000  0.4661760000000 1.0
C      1  0.4571560000000  0.4204950000000  0.5330590000000 1.0
C      1  0.4616580000000  0.5816210000000  0.5190350000000 1.0
C      1  0.4619000000000  0.4182800000000  0.4788710000000 1.0
C      1  0.5066680000000  0.4853650000000  0.4829780000000 1.0
C      1  0.5074960000000  0.5262090000000  0.5152550000000 1.0
C      1  0.5046740000000  0.4743820000000  0.5128150000000 1.0
C      1  0.5155430000000  0.5164710000000  0.4886890000000 1.0
END
