TITL C-2323487-9546-325 0.000658732462309675 125000 -362.123691273978 0 0 60 (C1) n - 1
REM
REM in /home/bkarasulu/CARBON/AIRSS/Generating-Clusters/LCBOP/Higher-Symm/Only-C60/SD-CG/FIRE-HFTN
REM
REM
REM
REM
REM
REM ./C.cell (50c204cfd26239f34c78669fe23a5462)
REM
REM compiler GCC version 9.2.1 20190827 (Red Hat 9.2.1-1)
REM options -cpp -mtune=generic -march=x86-64 -g -O0 -fpre-include=/usr/include/finclude/math-vector-fortran.h
REM seed 269470332 192625028 1770033471 1661778049 -691175050 -1167916032 -333435754 -7157957 -964957509 -440291895 -1740160915 8180105 244947906 -2059189897 965637119 1611719104 -651732761 -2135776542 101194936 -410308158 1322891012 716652391 -1231127829 519172530 681402534 -912109472 -119284674 -487164771 1607300019 -106513361 721949519 -90159411 1963461103
REM
CELL 1.54180   50.00000   50.00000   50.00000   90.00000   90.00000   90.00000
LATT -1
SFAC C  
C      1  0.5634920000000  0.5376740000000  0.4876160000000 1.0
C      1  0.5628150000000  0.4623150000000  0.5124370000000 1.0
C      1  0.4370550000000  0.5371060000000  0.4872520000000 1.0
C      1  0.4378000000000  0.4625050000000  0.5129470000000 1.0
C      1  0.5713140000000  0.4745450000000  0.4879380000000 1.0
C      1  0.5721700000000  0.5251300000000  0.5120670000000 1.0
C      1  0.4299000000000  0.4748750000000  0.4881940000000 1.0
C      1  0.4283590000000  0.5245080000000  0.5117020000000 1.0
C      1  0.4697560000000  0.5231160000000  0.5355440000000 1.0
C      1  0.4695590000000  0.4759430000000  0.4608760000000 1.0
C      1  0.5305760000000  0.5239510000000  0.5356280000000 1.0
C      1  0.5290800000000  0.4770720000000  0.4652450000000 1.0
C      1  0.4699040000000  0.4735920000000  0.5459390000000 1.0
C      1  0.4709660000000  0.5262730000000  0.4568890000000 1.0
C      1  0.5283590000000  0.4743530000000  0.5412530000000 1.0
C      1  0.5296370000000  0.5269760000000  0.4570480000000 1.0
C      1  0.4539810000000  0.5757600000000  0.5152710000000 1.0
C      1  0.4537490000000  0.4231550000000  0.4856970000000 1.0
C      1  0.5466240000000  0.5764930000000  0.5154160000000 1.0
C      1  0.5455910000000  0.4237490000000  0.4849040000000 1.0
C      1  0.4524330000000  0.4363710000000  0.5109830000000 1.0
C      1  0.4521520000000  0.5631630000000  0.4896580000000 1.0
C      1  0.5478090000000  0.4364560000000  0.5103700000000 1.0
C      1  0.5485170000000  0.5638060000000  0.4898500000000 1.0
C      1  0.4438770000000  0.5104520000000  0.5311310000000 1.0
C      1  0.4443390000000  0.4889150000000  0.4679670000000 1.0
C      1  0.5562020000000  0.5107880000000  0.5308760000000 1.0
C      1  0.5551230000000  0.4894030000000  0.4699440000000 1.0
C      1  0.4444180000000  0.4814260000000  0.5349130000000 1.0
C      1  0.4449450000000  0.5180740000000  0.4658340000000 1.0
C      1  0.5545880000000  0.4817220000000  0.5330250000000 1.0
C      1  0.5553310000000  0.5184310000000  0.4665560000000 1.0
C      1  0.4866860000000  0.5298220000000  0.4337270000000 1.0
C      1  0.4866210000000  0.4715280000000  0.5687050000000 1.0
C      1  0.5140390000000  0.5300010000000  0.4337440000000 1.0
C      1  0.5139860000000  0.4715920000000  0.5657190000000 1.0
C      1  0.4866940000000  0.4753090000000  0.4379110000000 1.0
C      1  0.4864000000000  0.5262270000000  0.5585180000000 1.0
C      1  0.5141590000000  0.4749880000000  0.4407250000000 1.0
C      1  0.5138590000000  0.5264640000000  0.5586190000000 1.0
C      1  0.4734060000000  0.4133580000000  0.4701090000000 1.0
C      1  0.4740330000000  0.5853090000000  0.5305350000000 1.0
C      1  0.5256610000000  0.4140210000000  0.4696510000000 1.0
C      1  0.5264180000000  0.5858030000000  0.5306320000000 1.0
C      1  0.4735710000000  0.5727590000000  0.4724190000000 1.0
C      1  0.4736310000000  0.4269140000000  0.5283690000000 1.0
C      1  0.5270890000000  0.5732910000000  0.4725360000000 1.0
C      1  0.5269130000000  0.4271140000000  0.5281430000000 1.0
C      1  0.4837850000000  0.5278400000000  0.5117960000000 1.0
C      1  0.4849240000000  0.4688360000000  0.4831380000000 1.0
C      1  0.5165070000000  0.5292130000000  0.5119940000000 1.0
C      1  0.5128130000000  0.4719260000000  0.4882150000000 1.0
C      1  0.4854080000000  0.4722670000000  0.5225740000000 1.0
C      1  0.4855800000000  0.5267430000000  0.4811390000000 1.0
C      1  0.5123230000000  0.4734930000000  0.5176530000000 1.0
C      1  0.5147550000000  0.5280130000000  0.4811500000000 1.0
C      1  0.5003060000000  0.4226440000000  0.5318790000000 1.0
C      1  0.5002910000000  0.5773450000000  0.4691290000000 1.0
C      1  0.5001860000000  0.5887410000000  0.5353040000000 1.0
C      1  0.4995360000000  0.4103420000000  0.4649940000000 1.0
END
