TITL C-2323491-8878-192 0.0470554389698169 125000 -354.948262380837 0 0 60 (C1) n - 1
REM
REM in /home/bkarasulu/CARBON/AIRSS/Generating-Clusters/LCBOP/Higher-Symm/Only-C60/SD-CG/FIRE-HFTN
REM
REM
REM
REM
REM
REM ./C.cell (50c204cfd26239f34c78669fe23a5462)
REM
REM compiler GCC version 9.2.1 20190827 (Red Hat 9.2.1-1)
REM options -cpp -mtune=generic -march=x86-64 -g -O0 -fpre-include=/usr/include/finclude/math-vector-fortran.h
REM seed 48152382 2062834898 -837981362 -481232834 9891377 -946088612 673941619 1930335848 -1654254279 -647551193 -923985803 1258799284 -621457454 2083407120 -1672549060 -1859795936 -536531794 1619990978 -1471367235 -2075581619 463342899 1063250291 663988378 -998327050 -119431945 -1634368610 1968451136 -266387910 1098800014 -1426169808 97454795 506465887 -230380059
REM
CELL 1.54180   50.00000   50.00000   50.00000   90.00000   90.00000   90.00000
LATT -1
SFAC C  
C      1  0.3942280000000  0.4501470000000  0.4417790000000 1.0
C      1  0.6129140000000  0.5433720000000  0.5176760000000 1.0
C      1  0.4998500000000  0.5569960000000  0.5537950000000 1.0
C      1  0.5126140000000  0.4400340000000  0.4591980000000 1.0
C      1  0.4974060000000  0.5630780000000  0.5063720000000 1.0
C      1  0.4921040000000  0.4420700000000  0.5029860000000 1.0
C      1  0.5599410000000  0.5327500000000  0.5124640000000 1.0
C      1  0.4403710000000  0.4668990000000  0.4650150000000 1.0
C      1  0.5064680000000  0.4420440000000  0.5255530000000 1.0
C      1  0.4734930000000  0.5676620000000  0.4955540000000 1.0
C      1  0.6646500000000  0.5518780000000  0.5215930000000 1.0
C      1  0.3488010000000  0.4348790000000  0.4201580000000 1.0
C      1  0.5403320000000  0.4094070000000  0.5341110000000 1.0
C      1  0.4432640000000  0.5953820000000  0.5192550000000 1.0
C      1  0.4275800000000  0.4893000000000  0.5469660000000 1.0
C      1  0.5621660000000  0.4946600000000  0.4434240000000 1.0
C      1  0.5322070000000  0.4365010000000  0.5357100000000 1.0
C      1  0.4466650000000  0.5742480000000  0.5009850000000 1.0
C      1  0.5238010000000  0.5112470000000  0.4901100000000 1.0
C      1  0.4671510000000  0.5031410000000  0.4812730000000 1.0
C      1  0.4907650000000  0.5733940000000  0.5958150000000 1.0
C      1  0.5587550000000  0.4478430000000  0.4579270000000 1.0
C      1  0.4125250000000  0.4743260000000  0.5642150000000 1.0
C      1  0.5828960000000  0.5111640000000  0.4367060000000 1.0
C      1  0.4905040000000  0.5343530000000  0.5703940000000 1.0
C      1  0.5202780000000  0.4505590000000  0.4325050000000 1.0
C      1  0.5435590000000  0.4086090000000  0.4860590000000 1.0
C      1  0.4773590000000  0.6018990000000  0.5564220000000 1.0
C      1  0.5383380000000  0.4321800000000  0.4721310000000 1.0
C      1  0.4929270000000  0.5820340000000  0.5682520000000 1.0
C      1  0.4893370000000  0.5457870000000  0.5970860000000 1.0
C      1  0.5492270000000  0.4437240000000  0.4302840000000 1.0
C      1  0.5129950000000  0.5562970000000  0.5287750000000 1.0
C      1  0.4891420000000  0.4436050000000  0.4748720000000 1.0
C      1  0.4799400000000  0.4982850000000  0.5061030000000 1.0
C      1  0.5102950000000  0.5202040000000  0.4668810000000 1.0
C      1  0.5663490000000  0.4695300000000  0.5145040000000 1.0
C      1  0.4166930000000  0.5319040000000  0.4908310000000 1.0
C      1  0.4170290000000  0.4579470000000  0.4527700000000 1.0
C      1  0.5868950000000  0.5388910000000  0.5155700000000 1.0
C      1  0.5512860000000  0.5110920000000  0.4960400000000 1.0
C      1  0.4414630000000  0.4921310000000  0.4781820000000 1.0
C      1  0.5373390000000  0.4954390000000  0.4295040000000 1.0
C      1  0.4522000000000  0.5000210000000  0.5553650000000 1.0
C      1  0.4640180000000  0.4513000000000  0.4647540000000 1.0
C      1  0.5396580000000  0.5478820000000  0.5252620000000 1.0
C      1  0.4837820000000  0.5160160000000  0.4623590000000 1.0
C      1  0.5064270000000  0.5008960000000  0.5099800000000 1.0
C      1  0.4185350000000  0.4940040000000  0.5207740000000 1.0
C      1  0.5647520000000  0.4752630000000  0.4649130000000 1.0
C      1  0.5452730000000  0.3974720000000  0.5103930000000 1.0
C      1  0.4570020000000  0.6061000000000  0.5396070000000 1.0
C      1  0.5524830000000  0.4557850000000  0.5327800000000 1.0
C      1  0.4261920000000  0.5567490000000  0.4933420000000 1.0
C      1  0.5170580000000  0.4777980000000  0.4253540000000 1.0
C      1  0.4742270000000  0.5133710000000  0.5621290000000 1.0
C      1  0.6389960000000  0.5476610000000  0.5196520000000 1.0
C      1  0.3713270000000  0.4424490000000  0.4308790000000 1.0
C      1  0.4219740000000  0.5045360000000  0.4949520000000 1.0
C      1  0.5641950000000  0.4858030000000  0.4917010000000 1.0
END
