TITL C-2323483-8886-576 -0.0351946802462653 125000 -359.31086103404 0 0 60 (C1) n - 1
REM
REM in /home/bkarasulu/CARBON/AIRSS/Generating-Clusters/LCBOP/Higher-Symm/Only-C60/SD-CG/FIRE-HFTN
REM
REM
REM
REM
REM
REM ./C.cell (50c204cfd26239f34c78669fe23a5462)
REM
REM compiler GCC version 9.2.1 20190827 (Red Hat 9.2.1-1)
REM options -cpp -mtune=generic -march=x86-64 -g -O0 -fpre-include=/usr/include/finclude/math-vector-fortran.h
REM seed 36018654 347991613 -1939701420 964676712 -1737429591 739592212 471984376 -2122254126 -1492863189 697718717 2036962320 1996381492 245395892 -1464327337 -25160016 718531030 -2052728153 1410353618 1415530237 41870722 -1530811311 1309383820 -1207021371 -579346687 -1677417635 62099452 -889070921 2052334198 -476197673 -1756498615 348162884 892924691 446118600
REM
CELL 1.54180   50.00000   50.00000   50.00000   90.00000   90.00000   90.00000
LATT -1
SFAC C  
C      1  0.5051090000000  0.3988520000000  0.5683280000000 1.0
C      1  0.5592950000000  0.4871030000000  0.5097210000000 1.0
C      1  0.4507850000000  0.4359200000000  0.5303380000000 1.0
C      1  0.5037760000000  0.5247710000000  0.4954320000000 1.0
C      1  0.5161850000000  0.4969790000000  0.6209470000000 1.0
C      1  0.5621480000000  0.5059570000000  0.4891060000000 1.0
C      1  0.5638930000000  0.4956600000000  0.5365710000000 1.0
C      1  0.4899980000000  0.5096500000000  0.5820110000000 1.0
C      1  0.5108640000000  0.4497410000000  0.4688260000000 1.0
C      1  0.4654460000000  0.5279120000000  0.4388270000000 1.0
C      1  0.5052860000000  0.4888010000000  0.5272710000000 1.0
C      1  0.5403180000000  0.4661410000000  0.5045720000000 1.0
C      1  0.4688540000000  0.5128190000000  0.5660080000000 1.0
C      1  0.4991540000000  0.3775830000000  0.5821770000000 1.0
C      1  0.4229970000000  0.4650090000000  0.4953690000000 1.0
C      1  0.5222090000000  0.5614070000000  0.4629340000000 1.0
C      1  0.5288060000000  0.6001680000000  0.4224910000000 1.0
C      1  0.5296780000000  0.5284060000000  0.5380520000000 1.0
C      1  0.5246800000000  0.4852800000000  0.4190000000000 1.0
C      1  0.5020860000000  0.4884740000000  0.4349490000000 1.0
C      1  0.5172750000000  0.4900780000000  0.6460550000000 1.0
C      1  0.5149730000000  0.5042870000000  0.5940350000000 1.0
C      1  0.4944370000000  0.5943500000000  0.4875780000000 1.0
C      1  0.4396980000000  0.5455300000000  0.4809280000000 1.0
C      1  0.4540160000000  0.5780170000000  0.5130260000000 1.0
C      1  0.4620370000000  0.4915560000000  0.4837410000000 1.0
C      1  0.5590710000000  0.4473300000000  0.4637800000000 1.0
C      1  0.4433630000000  0.5525180000000  0.5081530000000 1.0
C      1  0.4744400000000  0.5930550000000  0.5049680000000 1.0
C      1  0.5189840000000  0.4645220000000  0.5235210000000 1.0
C      1  0.5387280000000  0.5062240000000  0.5788930000000 1.0
C      1  0.5083220000000  0.5862530000000  0.4649220000000 1.0
C      1  0.4472020000000  0.4862480000000  0.5310660000000 1.0
C      1  0.4848460000000  0.5108290000000  0.4315510000000 1.0
C      1  0.5107290000000  0.4204530000000  0.5540360000000 1.0
C      1  0.4413020000000  0.4857170000000  0.5030110000000 1.0
C      1  0.5106680000000  0.5161380000000  0.5214360000000 1.0
C      1  0.4949410000000  0.4692260000000  0.4548120000000 1.0
C      1  0.5438350000000  0.5590650000000  0.4427650000000 1.0
C      1  0.4766180000000  0.4174270000000  0.4929620000000 1.0
C      1  0.4357500000000  0.4418560000000  0.4844260000000 1.0
C      1  0.4680190000000  0.4713340000000  0.4639160000000 1.0
C      1  0.5491060000000  0.5245470000000  0.4730780000000 1.0
C      1  0.4432350000000  0.5340550000000  0.5293810000000 1.0
C      1  0.5110560000000  0.6037850000000  0.4426810000000 1.0
C      1  0.4521260000000  0.5112580000000  0.5434450000000 1.0
C      1  0.5450360000000  0.5784350000000  0.4224430000000 1.0
C      1  0.4521410000000  0.4270880000000  0.5033390000000 1.0
C      1  0.4497240000000  0.4498100000000  0.4608280000000 1.0
C      1  0.4499390000000  0.4602940000000  0.5421780000000 1.0
C      1  0.5372560000000  0.4545660000000  0.4786330000000 1.0
C      1  0.5232750000000  0.5373440000000  0.4792330000000 1.0
C      1  0.5603390000000  0.5367420000000  0.4494860000000 1.0
C      1  0.5477480000000  0.5122840000000  0.5530390000000 1.0
C      1  0.4974900000000  0.4267800000000  0.4788680000000 1.0
C      1  0.4800480000000  0.5130310000000  0.4861520000000 1.0
C      1  0.4486850000000  0.5394970000000  0.4563380000000 1.0
C      1  0.5143540000000  0.4418770000000  0.5388950000000 1.0
C      1  0.5451020000000  0.4814210000000  0.4032800000000 1.0
C      1  0.5825190000000  0.5285420000000  0.4361920000000 1.0
END
