TITL C-2323492-8884-39 196.39830383968 125000 -355.976798911721 0 0 60 (C1) n - 1
REM
REM in /home/bkarasulu/CARBON/AIRSS/Generating-Clusters/LCBOP/Higher-Symm/Only-C60/SD-CG/FIRE-HFTN
REM
REM
REM
REM
REM
REM ./C.cell (50c204cfd26239f34c78669fe23a5462)
REM
REM compiler GCC version 9.2.1 20190827 (Red Hat 9.2.1-1)
REM options -cpp -mtune=generic -march=x86-64 -g -O0 -fpre-include=/usr/include/finclude/math-vector-fortran.h
REM seed -912624586 694447870 -395066630 1368854023 -1140392420 1384680579 754657118 2004759667 -2123049305 -1974277354 -53116049 -2009406460 1593494080 -15787310 1676387785 1754030686 1568915449 -1988055035 1360495614 -921811627 1507943390 -1948422337 1308357197 -373705440 192365848 862597905 848994395 -1909180575 1605024420 -759561226 1299033828 -337637769 1163222613
REM
CELL 1.54180   50.00000   50.00000   50.00000   90.00000   90.00000   90.00000
LATT -1
SFAC C  
C      1  0.5266440000000  0.4454690000000  0.4456290000000 1.0
C      1  0.5194050000000  0.4436080000000  0.5324560000000 1.0
C      1  0.5223920000000  0.5142300000000  0.5707740000000 1.0
C      1  0.5232820000000  0.5725150000000  0.5133810000000 1.0
C      1  0.5213290000000  0.5272460000000  0.4380260000000 1.0
C      1  0.5566600000000  0.4839880000000  0.4778200000000 1.0
C      1  0.5551800000000  0.4745860000000  0.5081970000000 1.0
C      1  0.5583990000000  0.5008260000000  0.5281460000000 1.0
C      1  0.5587910000000  0.5279950000000  0.5085870000000 1.0
C      1  0.5556670000000  0.5161050000000  0.4777280000000 1.0
C      1  0.5106420000000  0.4658200000000  0.4805230000000 1.0
C      1  0.5121890000000  0.4914060000000  0.5312450000000 1.0
C      1  0.5174550000000  0.5202330000000  0.5256890000000 1.0
C      1  0.5124760000000  0.5321840000000  0.4982330000000 1.0
C      1  0.5114730000000  0.4878700000000  0.4620930000000 1.0
C      1  0.4698530000000  0.5322170000000  0.5334060000000 1.0
C      1  0.4697510000000  0.5464420000000  0.4765210000000 1.0
C      1  0.4672020000000  0.4934060000000  0.4484090000000 1.0
C      1  0.4680110000000  0.4469890000000  0.4934870000000 1.0
C      1  0.4694300000000  0.4762620000000  0.5449920000000 1.0
C      1  0.5428950000000  0.4467320000000  0.5143660000000 1.0
C      1  0.5473570000000  0.4993360000000  0.5621930000000 1.0
C      1  0.5484420000000  0.5590610000000  0.5232160000000 1.0
C      1  0.5432090000000  0.5349790000000  0.4565360000000 1.0
C      1  0.5497100000000  0.4647640000000  0.4472520000000 1.0
C      1  0.5234050000000  0.4990150000000  0.4378250000000 1.0
C      1  0.5227330000000  0.4405390000000  0.4730260000000 1.0
C      1  0.5207280000000  0.4678890000000  0.5468930000000 1.0
C      1  0.5222700000000  0.5346980000000  0.5510340000000 1.0
C      1  0.5204240000000  0.5585160000000  0.4888660000000 1.0
C      1  0.4668340000000  0.5393650000000  0.4485060000000 1.0
C      1  0.4667560000000  0.4643980000000  0.4480190000000 1.0
C      1  0.4647500000000  0.4372580000000  0.5206680000000 1.0
C      1  0.4684630000000  0.4980730000000  0.5640140000000 1.0
C      1  0.4693050000000  0.5584730000000  0.5219390000000 1.0
C      1  0.5426320000000  0.5538670000000  0.5502840000000 1.0
C      1  0.5376610000000  0.5604350000000  0.4673420000000 1.0
C      1  0.5459880000000  0.4852240000000  0.4283180000000 1.0
C      1  0.5403920000000  0.4300370000000  0.4916390000000 1.0
C      1  0.5414330000000  0.4719070000000  0.5656940000000 1.0
C      1  0.4512020000000  0.4584440000000  0.4732770000000 1.0
C      1  0.4487300000000  0.4597970000000  0.5326960000000 1.0
C      1  0.4506120000000  0.5172100000000  0.5491490000000 1.0
C      1  0.4514950000000  0.5523060000000  0.4984010000000 1.0
C      1  0.4481770000000  0.5152050000000  0.4509110000000 1.0
C      1  0.4925770000000  0.4512670000000  0.4371240000000 1.0
C      1  0.4925070000000  0.4310610000000  0.5311790000000 1.0
C      1  0.4945730000000  0.5051200000000  0.5767610000000 1.0
C      1  0.4947680000000  0.5741170000000  0.5233540000000 1.0
C      1  0.4938260000000  0.5384670000000  0.4351060000000 1.0
C      1  0.4881960000000  0.5025720000000  0.4659150000000 1.0
C      1  0.4892250000000  0.4660010000000  0.4979680000000 1.0
C      1  0.4855980000000  0.4850750000000  0.5202060000000 1.0
C      1  0.4758570000000  0.5119950000000  0.5122000000000 1.0
C      1  0.4868390000000  0.5229770000000  0.4870600000000 1.0
C      1  0.4330340000000  0.5089400000000  0.4762230000000 1.0
C      1  0.4341160000000  0.4799080000000  0.4858560000000 1.0
C      1  0.4324330000000  0.4794400000000  0.5163310000000 1.0
C      1  0.4317260000000  0.5085830000000  0.5265140000000 1.0
C      1  0.4328920000000  0.5275520000000  0.5008030000000 1.0
END
