TITL C-2323491-8878-325 2.57336030553855 125000 -352.156864132737 0 0 60 (C1) n - 1
REM
REM in /home/bkarasulu/CARBON/AIRSS/Generating-Clusters/LCBOP/Higher-Symm/Only-C60/SD-CG/FIRE-HFTN
REM
REM
REM
REM
REM
REM ./C.cell (50c204cfd26239f34c78669fe23a5462)
REM
REM compiler GCC version 9.2.1 20190827 (Red Hat 9.2.1-1)
REM options -cpp -mtune=generic -march=x86-64 -g -O0 -fpre-include=/usr/include/finclude/math-vector-fortran.h
REM seed 995581298 -1470586980 -971049238 79583463 120342904 -1753524254 935520584 -2041355838 943079819 -584840875 -1229580878 368035395 83431120 -116778264 -1026720916 486364750 -739374277 364308953 284813394 64398871 1095964916 -1600768091 -1897605523 2134174721 -389512879 1517540245 155300786 -1486532742 350810807 -860791684 -1408581270 1146090704 2005269163
REM
CELL 1.54180   50.00000   50.00000   50.00000   90.00000   90.00000   90.00000
LATT -1
SFAC C  
C      1  0.5107000000000  0.3988750000000  0.3979700000000 1.0
C      1  0.4782900000000  0.4645260000000  0.5141460000000 1.0
C      1  0.4981750000000  0.4799450000000  0.5278590000000 1.0
C      1  0.5581470000000  0.5802960000000  0.5558750000000 1.0
C      1  0.4471520000000  0.4990020000000  0.5586460000000 1.0
C      1  0.4594480000000  0.4667730000000  0.4683150000000 1.0
C      1  0.4110290000000  0.4194530000000  0.4867440000000 1.0
C      1  0.5292710000000  0.4230020000000  0.4636970000000 1.0
C      1  0.4361450000000  0.5159720000000  0.5128570000000 1.0
C      1  0.5185310000000  0.4764130000000  0.3704660000000 1.0
C      1  0.4739170000000  0.4382310000000  0.5201060000000 1.0
C      1  0.4583600000000  0.5061920000000  0.4979050000000 1.0
C      1  0.4308190000000  0.4784660000000  0.5672490000000 1.0
C      1  0.4118000000000  0.5201120000000  0.5012380000000 1.0
C      1  0.5175520000000  0.4741440000000  0.3440770000000 1.0
C      1  0.5580410000000  0.4872200000000  0.4547520000000 1.0
C      1  0.4217080000000  0.4361430000000  0.4691060000000 1.0
C      1  0.5780340000000  0.4723470000000  0.4434920000000 1.0
C      1  0.6071140000000  0.5679460000000  0.5931720000000 1.0
C      1  0.5263180000000  0.5228890000000  0.4412810000000 1.0
C      1  0.4815800000000  0.4634140000000  0.4515220000000 1.0
C      1  0.4069340000000  0.4334100000000  0.5577140000000 1.0
C      1  0.5129560000000  0.5388300000000  0.4601850000000 1.0
C      1  0.5245890000000  0.5386380000000  0.4873890000000 1.0
C      1  0.5064550000000  0.5210200000000  0.5024610000000 1.0
C      1  0.4999140000000  0.5471620000000  0.5774740000000 1.0
C      1  0.4795730000000  0.5230360000000  0.4903800000000 1.0
C      1  0.4749880000000  0.5039300000000  0.5663260000000 1.0
C      1  0.4019100000000  0.4172630000000  0.5372190000000 1.0
C      1  0.5393180000000  0.4850230000000  0.5004370000000 1.0
C      1  0.5202880000000  0.4772820000000  0.4247660000000 1.0
C      1  0.4203950000000  0.4751770000000  0.4410950000000 1.0
C      1  0.4940620000000  0.4867520000000  0.5549120000000 1.0
C      1  0.5058280000000  0.4573850000000  0.4390470000000 1.0
C      1  0.4406910000000  0.5210200000000  0.5402880000000 1.0
C      1  0.5134840000000  0.4136620000000  0.4192480000000 1.0
C      1  0.5357390000000  0.4963140000000  0.4391770000000 1.0
C      1  0.4790950000000  0.5329070000000  0.5663790000000 1.0
C      1  0.4845370000000  0.5358580000000  0.4650090000000 1.0
C      1  0.5466020000000  0.5742970000000  0.5814480000000 1.0
C      1  0.5848950000000  0.5729220000000  0.5508920000000 1.0
C      1  0.4335760000000  0.4594340000000  0.4591780000000 1.0
C      1  0.5164340000000  0.4310690000000  0.4409220000000 1.0
C      1  0.4631950000000  0.4782330000000  0.4940460000000 1.0
C      1  0.5865720000000  0.5738170000000  0.6095330000000 1.0
C      1  0.5165810000000  0.4718310000000  0.3181280000000 1.0
C      1  0.5462390000000  0.5951130000000  0.6254820000000 1.0
C      1  0.5595770000000  0.5812380000000  0.6060550000000 1.0
C      1  0.5222800000000  0.5604920000000  0.5822780000000 1.0
C      1  0.4573580000000  0.5427320000000  0.5499710000000 1.0
C      1  0.5194380000000  0.4780020000000  0.3968880000000 1.0
C      1  0.5691550000000  0.5201750000000  0.4888560000000 1.0
C      1  0.5157500000000  0.4955550000000  0.5119440000000 1.0
C      1  0.5280330000000  0.6046730000000  0.5183590000000 1.0
C      1  0.4035750000000  0.4122050000000  0.5111830000000 1.0
C      1  0.4173120000000  0.4556570000000  0.5678270000000 1.0
C      1  0.5431580000000  0.5934700000000  0.5363840000000 1.0
C      1  0.5521290000000  0.5410130000000  0.4921440000000 1.0
C      1  0.6063580000000  0.5675450000000  0.5662090000000 1.0
C      1  0.5588950000000  0.4944960000000  0.4822940000000 1.0
END
