TITL C-2323483-8886-55 -0.0522717794419071 125000 -369.333957932679 0 0 60 (C1) n - 1
REM
REM in /home/bkarasulu/CARBON/AIRSS/Generating-Clusters/LCBOP/Higher-Symm/Only-C60/SD-CG/FIRE-HFTN
REM
REM
REM
REM
REM
REM ./C.cell (50c204cfd26239f34c78669fe23a5462)
REM
REM compiler GCC version 9.2.1 20190827 (Red Hat 9.2.1-1)
REM options -cpp -mtune=generic -march=x86-64 -g -O0 -fpre-include=/usr/include/finclude/math-vector-fortran.h
REM seed -1236317866 1730421131 -1814834228 -1034785243 -919606264 -887492362 -1509526614 -1702746711 2114864819 -14268336 -1551035498 -1816646054 -198202494 105357298 1918360450 557271342 -1564768306 1660142601 -441178372 -1743219048 -1131898588 1319912202 353965895 692429153 -342174714 -896784367 1105601967 53485565 -631591737 1824206941 998971530 -319357573 1929817642
REM
CELL 1.54180   50.00000   50.00000   50.00000   90.00000   90.00000   90.00000
LATT -1
SFAC C  
C      1  0.4942250000000  0.5207390000000  0.4719070000000 1.0
C      1  0.5711610000000  0.4675030000000  0.4508880000000 1.0
C      1  0.4635680000000  0.4806410000000  0.5384510000000 1.0
C      1  0.5046320000000  0.5270300000000  0.5340410000000 1.0
C      1  0.5320730000000  0.4973730000000  0.4335230000000 1.0
C      1  0.4798910000000  0.4811890000000  0.5614570000000 1.0
C      1  0.4834370000000  0.4398960000000  0.4934940000000 1.0
C      1  0.4752140000000  0.5414680000000  0.4753110000000 1.0
C      1  0.5267460000000  0.5173810000000  0.5191820000000 1.0
C      1  0.5555990000000  0.4822080000000  0.4348920000000 1.0
C      1  0.5403100000000  0.4927420000000  0.5288060000000 1.0
C      1  0.4835560000000  0.4948710000000  0.4735690000000 1.0
C      1  0.5059620000000  0.4846330000000  0.4327740000000 1.0
C      1  0.5379410000000  0.5243410000000  0.4934860000000 1.0
C      1  0.4650670000000  0.5020220000000  0.5182540000000 1.0
C      1  0.5060770000000  0.4914060000000  0.5636090000000 1.0
C      1  0.5218770000000  0.5250160000000  0.4706340000000 1.0
C      1  0.4787700000000  0.5280570000000  0.5212940000000 1.0
C      1  0.4748090000000  0.5500050000000  0.5024480000000 1.0
C      1  0.4948750000000  0.4472390000000  0.4678210000000 1.0
C      1  0.5265350000000  0.4496560000000  0.5468300000000 1.0
C      1  0.5633340000000  0.5106250000000  0.4934720000000 1.0
C      1  0.5268160000000  0.4775680000000  0.5488020000000 1.0
C      1  0.4948350000000  0.4741220000000  0.4575850000000 1.0
C      1  0.5353270000000  0.5497980000000  0.4331620000000 1.0
C      1  0.5186440000000  0.4261400000000  0.5337270000000 1.0
C      1  0.5078400000000  0.5964910000000  0.6355940000000 1.0
C      1  0.5085930000000  0.5568100000000  0.6011180000000 1.0
C      1  0.4030190000000  0.4657530000000  0.4534160000000 1.0
C      1  0.5288440000000  0.4014120000000  0.5416210000000 1.0
C      1  0.3833270000000  0.4648760000000  0.4363550000000 1.0
C      1  0.5083740000000  0.5766460000000  0.6186980000000 1.0
C      1  0.5155270000000  0.5861150000000  0.4638220000000 1.0
C      1  0.5277070000000  0.5736020000000  0.4434370000000 1.0
C      1  0.5386170000000  0.3782510000000  0.5484930000000 1.0
C      1  0.4232390000000  0.4668800000000  0.4704950000000 1.0
C      1  0.5597240000000  0.4254270000000  0.4699280000000 1.0
C      1  0.4768770000000  0.5914690000000  0.5289010000000 1.0
C      1  0.4578230000000  0.4490170000000  0.5026420000000 1.0
C      1  0.4539430000000  0.4545950000000  0.5304680000000 1.0
C      1  0.4690000000000  0.5153300000000  0.4139870000000 1.0
C      1  0.4657580000000  0.6141140000000  0.5750140000000 1.0
C      1  0.4583020000000  0.5353390000000  0.4283310000000 1.0
C      1  0.4417720000000  0.4372000000000  0.5475700000000 1.0
C      1  0.5361250000000  0.4173870000000  0.4600570000000 1.0
C      1  0.5708050000000  0.4509740000000  0.4737850000000 1.0
C      1  0.4712470000000  0.6030670000000  0.5520470000000 1.0
C      1  0.4596710000000  0.5469130000000  0.4526130000000 1.0
C      1  0.5005080000000  0.4278930000000  0.5124030000000 1.0
C      1  0.4615510000000  0.4922760000000  0.4910480000000 1.0
C      1  0.5324000000000  0.5240630000000  0.4441540000000 1.0
C      1  0.5117590000000  0.4278150000000  0.4563850000000 1.0
C      1  0.4839840000000  0.5767650000000  0.5063860000000 1.0
C      1  0.5010660000000  0.5873150000000  0.4863530000000 1.0
C      1  0.5625530000000  0.4870430000000  0.5106270000000 1.0
C      1  0.5715640000000  0.4631670000000  0.4992190000000 1.0
C      1  0.4454360000000  0.4691930000000  0.4866600000000 1.0
C      1  0.5082600000000  0.5377790000000  0.5827010000000 1.0
C      1  0.4869800000000  0.4953660000000  0.4146340000000 1.0
C      1  0.5065230000000  0.5199890000000  0.5616200000000 1.0
END
