TITL C-2323483-8886-563 3.57642869765835e-06 125000 -352.262604745658 0 0 60 (C1) n - 1
REM
REM in /home/bkarasulu/CARBON/AIRSS/Generating-Clusters/LCBOP/Higher-Symm/Only-C60/SD-CG/FIRE-HFTN
REM
REM
REM
REM
REM
REM ./C.cell (50c204cfd26239f34c78669fe23a5462)
REM
REM compiler GCC version 9.2.1 20190827 (Red Hat 9.2.1-1)
REM options -cpp -mtune=generic -march=x86-64 -g -O0 -fpre-include=/usr/include/finclude/math-vector-fortran.h
REM seed -900821604 1130662 -1054165286 2083401171 -99726363 889325942 93071797 -87660090 1263450811 -706805355 -992226231 -1389394388 -1708319160 1583023077 -1181397430 -851689900 -173425663 301723548 254402870 1927027265 -193368395 -1360460194 984335647 467572528 -128097052 -1535966586 2138240532 -492761757 1425778340 -50995400 2082873523 -1770355757 1186600978
REM
CELL 1.54180   50.00000   50.00000   50.00000   90.00000   90.00000   90.00000
LATT -1
SFAC C  
C      1  0.5117100000000  0.5730990000000  0.5171280000000 1.0
C      1  0.5954810000000  0.5045510000000  0.5023700000000 1.0
C      1  0.5176970000000  0.4936270000000  0.5738830000000 1.0
C      1  0.4862330000000  0.5760670000000  0.4755960000000 1.0
C      1  0.4822500000000  0.4315900000000  0.5026910000000 1.0
C      1  0.5120700000000  0.4380030000000  0.4653900000000 1.0
C      1  0.4019950000000  0.5124590000000  0.4956180000000 1.0
C      1  0.4215470000000  0.4670230000000  0.5118190000000 1.0
C      1  0.5772500000000  0.4628720000000  0.4886880000000 1.0
C      1  0.4968510000000  0.5230510000000  0.4243640000000 1.0
C      1  0.4982130000000  0.5126770000000  0.6172210000000 1.0
C      1  0.5393810000000  0.4994490000000  0.4217380000000 1.0
C      1  0.5060220000000  0.4217700000000  0.5200450000000 1.0
C      1  0.5844000000000  0.4791580000000  0.5115270000000 1.0
C      1  0.5312880000000  0.4701110000000  0.5661320000000 1.0
C      1  0.4837030000000  0.4370710000000  0.4726320000000 1.0
C      1  0.4838750000000  0.5744740000000  0.5147880000000 1.0
C      1  0.5139660000000  0.5769520000000  0.4779770000000 1.0
C      1  0.4198710000000  0.4566890000000  0.4845050000000 1.0
C      1  0.4133920000000  0.5032690000000  0.5198630000000 1.0
C      1  0.5859270000000  0.5213020000000  0.4823770000000 1.0
C      1  0.4806530000000  0.4974780000000  0.4162680000000 1.0
C      1  0.5151050000000  0.4990330000000  0.6014040000000 1.0
C      1  0.5274300000000  0.5245380000000  0.4291950000000 1.0
C      1  0.5075490000000  0.5126790000000  0.5540460000000 1.0
C      1  0.5219350000000  0.5458590000000  0.5196330000000 1.0
C      1  0.5269130000000  0.5210980000000  0.5335150000000 1.0
C      1  0.4857340000000  0.5284110000000  0.4509130000000 1.0
C      1  0.4773070000000  0.5271460000000  0.6082960000000 1.0
C      1  0.5287010000000  0.4780410000000  0.4346940000000 1.0
C      1  0.4770370000000  0.5491080000000  0.4685460000000 1.0
C      1  0.4734620000000  0.4561630000000  0.5159130000000 1.0
C      1  0.5295760000000  0.4549750000000  0.4799390000000 1.0
C      1  0.4182800000000  0.5110810000000  0.4733910000000 1.0
C      1  0.4497450000000  0.4696110000000  0.5154710000000 1.0
C      1  0.5522660000000  0.4715680000000  0.4777900000000 1.0
C      1  0.5442250000000  0.4595470000000  0.5432030000000 1.0
C      1  0.5272250000000  0.4421910000000  0.5260140000000 1.0
C      1  0.5605120000000  0.4802890000000  0.5294120000000 1.0
C      1  0.4802960000000  0.4739170000000  0.4356600000000 1.0
C      1  0.4607990000000  0.5305050000000  0.5351770000000 1.0
C      1  0.5403120000000  0.5354720000000  0.4544370000000 1.0
C      1  0.4656280000000  0.4560410000000  0.4556500000000 1.0
C      1  0.4710780000000  0.5491960000000  0.5166240000000 1.0
C      1  0.5253300000000  0.5515370000000  0.4725520000000 1.0
C      1  0.4409090000000  0.4673430000000  0.4664440000000 1.0
C      1  0.4410600000000  0.5131260000000  0.5234030000000 1.0
C      1  0.5592520000000  0.5200310000000  0.4711250000000 1.0
C      1  0.5465280000000  0.4992290000000  0.4872440000000 1.0
C      1  0.4536540000000  0.4961900000000  0.5029340000000 1.0
C      1  0.4706290000000  0.5304120000000  0.5825110000000 1.0
C      1  0.4794950000000  0.5234840000000  0.5564560000000 1.0
C      1  0.4963730000000  0.5040280000000  0.4650480000000 1.0
C      1  0.5049450000000  0.4808290000000  0.4501470000000 1.0
C      1  0.4958530000000  0.4738700000000  0.5132700000000 1.0
C      1  0.4425580000000  0.4957130000000  0.4756590000000 1.0
C      1  0.5195560000000  0.4614120000000  0.5058090000000 1.0
C      1  0.5124570000000  0.5355900000000  0.4940000000000 1.0
C      1  0.4829310000000  0.5357870000000  0.4940820000000 1.0
C      1  0.5435820000000  0.5022110000000  0.5177720000000 1.0
END
