TITL C-2323484-8600-506 5.59976278066003 125000 -359.467391924553 0 0 60 (C1) n - 1
REM
REM in /home/bkarasulu/CARBON/AIRSS/Generating-Clusters/LCBOP/Higher-Symm/Only-C60/SD-CG/FIRE-HFTN
REM
REM
REM
REM
REM
REM ./C.cell (50c204cfd26239f34c78669fe23a5462)
REM
REM compiler GCC version 9.2.1 20190827 (Red Hat 9.2.1-1)
REM options -cpp -mtune=generic -march=x86-64 -g -O0 -fpre-include=/usr/include/finclude/math-vector-fortran.h
REM seed -148497363 4260508 -1314591244 -603701585 -975894669 -882018927 -1068571519 -315867064 1730813822 443587713 -1993760130 2025008092 -1721865428 -379836712 692970020 -1047461522 60414464 302682460 837060925 1187597829 2007569287 2097507957 1150922930 1356426265 -1904781568 -1076308563 2025334017 -152196630 684438793 1963770459 -1215820381 -1400728506 1196037273
REM
CELL 1.54180   50.00000   50.00000   50.00000   90.00000   90.00000   90.00000
LATT -1
SFAC C  
C      1  0.6354990000000  0.5508870000000  0.3428330000000 1.0
C      1  0.4411950000000  0.5044480000000  0.4873650000000 1.0
C      1  0.5310210000000  0.5270000000000  0.4500220000000 1.0
C      1  0.4569440000000  0.4448560000000  0.4902910000000 1.0
C      1  0.4534340000000  0.4261060000000  0.6296000000000 1.0
C      1  0.4961600000000  0.4502610000000  0.5135990000000 1.0
C      1  0.4861480000000  0.5676920000000  0.4724890000000 1.0
C      1  0.4503270000000  0.4461140000000  0.5852590000000 1.0
C      1  0.4097870000000  0.4011600000000  0.7229130000000 1.0
C      1  0.4990600000000  0.4626700000000  0.4873800000000 1.0
C      1  0.4716730000000  0.4677010000000  0.4455140000000 1.0
C      1  0.4708390000000  0.4935930000000  0.4333730000000 1.0
C      1  0.4914960000000  0.4261070000000  0.5991480000000 1.0
C      1  0.4648920000000  0.4326640000000  0.6050850000000 1.0
C      1  0.4764670000000  0.4529100000000  0.4694990000000 1.0
C      1  0.6143170000000  0.5439700000000  0.3571760000000 1.0
C      1  0.5093730000000  0.5383570000000  0.5017680000000 1.0
C      1  0.3990520000000  0.3950240000000  0.7458640000000 1.0
C      1  0.5709230000000  0.5298020000000  0.3865640000000 1.0
C      1  0.4880430000000  0.5944350000000  0.4816860000000 1.0
C      1  0.4888460000000  0.6006370000000  0.5083460000000 1.0
C      1  0.5352560000000  0.5119580000000  0.4740870000000 1.0
C      1  0.4665620000000  0.4514760000000  0.5175380000000 1.0
C      1  0.4888570000000  0.5884930000000  0.5326170000000 1.0
C      1  0.5140780000000  0.4403860000000  0.5321600000000 1.0
C      1  0.5311430000000  0.5530220000000  0.5098570000000 1.0
C      1  0.5112510000000  0.4260310000000  0.5813200000000 1.0
C      1  0.4653950000000  0.5255540000000  0.5310700000000 1.0
C      1  0.4875740000000  0.5369850000000  0.5466730000000 1.0
C      1  0.4316140000000  0.4136350000000  0.6762490000000 1.0
C      1  0.5931440000000  0.5370560000000  0.3715120000000 1.0
C      1  0.4854840000000  0.5515380000000  0.4964340000000 1.0
C      1  0.6566860000000  0.5578050000000  0.3284870000000 1.0
C      1  0.4445530000000  0.5322620000000  0.4827990000000 1.0
C      1  0.4576060000000  0.4983720000000  0.5361920000000 1.0
C      1  0.4816560000000  0.5479800000000  0.4517010000000 1.0
C      1  0.4475750000000  0.4582610000000  0.5617940000000 1.0
C      1  0.5673490000000  0.5383180000000  0.4130700000000 1.0
C      1  0.5074570000000  0.5006050000000  0.4006230000000 1.0
C      1  0.4549330000000  0.5354790000000  0.4552600000000 1.0
C      1  0.4886240000000  0.5656560000000  0.5472100000000 1.0
C      1  0.4612060000000  0.5402930000000  0.5056320000000 1.0
C      1  0.4562640000000  0.4695660000000  0.5375920000000 1.0
C      1  0.4502110000000  0.5126410000000  0.4384750000000 1.0
C      1  0.5112490000000  0.5125420000000  0.4899270000000 1.0
C      1  0.5269630000000  0.5028130000000  0.3826880000000 1.0
C      1  0.5195040000000  0.4315230000000  0.5566310000000 1.0
C      1  0.4944490000000  0.5071190000000  0.4244150000000 1.0
C      1  0.4935240000000  0.4910920000000  0.4892010000000 1.0
C      1  0.5555480000000  0.5050720000000  0.4932170000000 1.0
C      1  0.5522360000000  0.5370710000000  0.4349300000000 1.0
C      1  0.5340180000000  0.5098730000000  0.5403610000000 1.0
C      1  0.4651390000000  0.4925920000000  0.4901130000000 1.0
C      1  0.5113730000000  0.5212840000000  0.5500500000000 1.0
C      1  0.6775250000000  0.5646100000000  0.3143770000000 1.0
C      1  0.5031610000000  0.5297330000000  0.4408200000000 1.0
C      1  0.5515650000000  0.5041800000000  0.5203730000000 1.0
C      1  0.5505410000000  0.5134610000000  0.3762720000000 1.0
C      1  0.4425270000000  0.4198720000000  0.6529200000000 1.0
C      1  0.4207020000000  0.4073980000000  0.6995780000000 1.0
END
