TITL C-2323490-8774-423 9.94601900653957e-06 125000 -371.903561526595 0 0 60 (C3) n - 1
REM
REM in /home/bkarasulu/CARBON/AIRSS/Generating-Clusters/LCBOP/Higher-Symm/Only-C60/SD-CG/FIRE-HFTN
REM
REM
REM
REM
REM
REM ./C.cell (50c204cfd26239f34c78669fe23a5462)
REM
REM compiler GCC version 9.2.1 20190827 (Red Hat 9.2.1-1)
REM options -cpp -mtune=generic -march=x86-64 -g -O0 -fpre-include=/usr/include/finclude/math-vector-fortran.h
REM seed -1479401617 -1529508345 331389767 -1702744576 273179824 370382730 1695655659 1406685696 -1200101774 -1750045530 1832105576 1877230344 540313546 -402929333 -845297459 1417703652 -334695573 319998954 52023574 -210136442 -2065868273 -512061482 1848967109 171375336 890489776 -341841700 300742390 -570292727 -1647917763 917971137 420233976 1428575333 -1724933086
REM
CELL 1.54180   50.00000   50.00000   50.00000   90.00000   90.00000   90.00000
LATT -1
SFAC C  
C      1  0.4762250000000  0.5693560000000  0.5146120000000 1.0
C      1  0.4763130000000  0.4525740000000  0.5526960000000 1.0
C      1  0.4763610000000  0.4780390000000  0.4326020000000 1.0
C      1  0.4762270000000  0.5692910000000  0.4849970000000 1.0
C      1  0.4764400000000  0.4524370000000  0.4474590000000 1.0
C      1  0.4763880000000  0.4782370000000  0.5674460000000 1.0
C      1  0.5234500000000  0.4741880000000  0.5754090000000 1.0
C      1  0.5235530000000  0.4476900000000  0.4402650000000 1.0
C      1  0.5232290000000  0.5781670000000  0.4848130000000 1.0
C      1  0.5232850000000  0.4739420000000  0.4243960000000 1.0
C      1  0.5231790000000  0.4473670000000  0.5605280000000 1.0
C      1  0.5229030000000  0.5793250000000  0.5145890000000 1.0
C      1  0.4457160000000  0.5002320000000  0.5294520000000 1.0
C      1  0.4457000000000  0.4743370000000  0.4854900000000 1.0
C      1  0.4456450000000  0.5253400000000  0.4850520000000 1.0
C      1  0.4456660000000  0.5001150000000  0.4705440000000 1.0
C      1  0.4457080000000  0.4744010000000  0.5145870000000 1.0
C      1  0.4456910000000  0.5254080000000  0.5148560000000 1.0
C      1  0.4989640000000  0.5792370000000  0.4703660000000 1.0
C      1  0.4990380000000  0.4859790000000  0.5834520000000 1.0
C      1  0.4991290000000  0.4347470000000  0.4462400000000 1.0
C      1  0.4988950000000  0.5795590000000  0.5291550000000 1.0
C      1  0.4989430000000  0.4857790000000  0.4165140000000 1.0
C      1  0.4988330000000  0.4347060000000  0.5540890000000 1.0
C      1  0.5453560000000  0.4874280000000  0.4445240000000 1.0
C      1  0.5461490000000  0.5540970000000  0.5168760000000 1.0
C      1  0.5453900000000  0.4580560000000  0.5389330000000 1.0
C      1  0.5442020000000  0.4858140000000  0.5562270000000 1.0
C      1  0.5439090000000  0.5556830000000  0.4841000000000 1.0
C      1  0.5441600000000  0.4586220000000  0.4600190000000 1.0
C      1  0.4922080000000  0.4751080000000  0.4860170000000 1.0
C      1  0.4921420000000  0.5245940000000  0.4854060000000 1.0
C      1  0.4922290000000  0.5003750000000  0.5285680000000 1.0
C      1  0.4922150000000  0.4751500000000  0.5140760000000 1.0
C      1  0.4922040000000  0.5246560000000  0.5144970000000 1.0
C      1  0.4921770000000  0.5002670000000  0.4714210000000 1.0
C      1  0.5513290000000  0.4532540000000  0.4860720000000 1.0
C      1  0.5510020000000  0.5358840000000  0.4662730000000 1.0
C      1  0.5514600000000  0.5110510000000  0.5479310000000 1.0
C      1  0.5515970000000  0.4530240000000  0.5127340000000 1.0
C      1  0.5518570000000  0.5341820000000  0.5346890000000 1.0
C      1  0.5514390000000  0.5127450000000  0.4530280000000 1.0
C      1  0.4693260000000  0.4592800000000  0.5254180000000 1.0
C      1  0.4692740000000  0.4983270000000  0.4520100000000 1.0
C      1  0.4692810000000  0.5423980000000  0.5225440000000 1.0
C      1  0.4693170000000  0.4591820000000  0.4747110000000 1.0
C      1  0.4693220000000  0.4984940000000  0.5479880000000 1.0
C      1  0.4692170000000  0.5422870000000  0.4772690000000 1.0
C      1  0.4989960000000  0.5377680000000  0.4076170000000 1.0
C      1  0.4992720000000  0.5610310000000  0.5785950000000 1.0
C      1  0.4988810000000  0.4010600000000  0.5134600000000 1.0
C      1  0.4991900000000  0.5379960000000  0.5920600000000 1.0
C      1  0.4990820000000  0.5608910000000  0.4209300000000 1.0
C      1  0.4989910000000  0.4010370000000  0.4867790000000 1.0
C      1  0.4989450000000  0.4116480000000  0.4622660000000 1.0
C      1  0.4989610000000  0.5768290000000  0.4423630000000 1.0
C      1  0.4989370000000  0.5114820000000  0.5952940000000 1.0
C      1  0.4986620000000  0.4116740000000  0.5379690000000 1.0
C      1  0.4990650000000  0.5769420000000  0.5571440000000 1.0
C      1  0.4987810000000  0.5112330000000  0.4045810000000 1.0
END
