TITL C-2323485-8600-518 1457.85026078773 125000 -350.708634577175 0 0 60 (C1) n - 1
REM
REM in /home/bkarasulu/CARBON/AIRSS/Generating-Clusters/LCBOP/Higher-Symm/Only-C60/SD-CG/FIRE-HFTN
REM
REM
REM
REM
REM
REM ./C.cell (50c204cfd26239f34c78669fe23a5462)
REM
REM compiler GCC version 9.2.1 20190827 (Red Hat 9.2.1-1)
REM options -cpp -mtune=generic -march=x86-64 -g -O0 -fpre-include=/usr/include/finclude/math-vector-fortran.h
REM seed 1529361121 429156186 -1123128258 945356300 -255365719 889703906 -195917249 2044024591 -1207342544 959290092 1827568821 -462284000 -1626505447 1498194279 1024923670 1672998470 1084533205 -1454387066 592588226 -1512215029 -774563294 -1723010238 620171593 1861476712 1889545798 175771928 -1561902593 -273414409 426038213 963221289 -1742030530 198726114 -1705862859
REM
CELL 1.54180   50.00000   50.00000   50.00000   90.00000   90.00000   90.00000
LATT -1
SFAC C  
C      1  0.5135330000000  0.4630490000000  0.4396830000000 1.0
C      1  0.4381350000000  0.5128040000000  0.4656560000000 1.0
C      1  0.4588440000000  0.4410470000000  0.5192440000000 1.0
C      1  0.4854920000000  0.5304480000000  0.4347270000000 1.0
C      1  0.4866730000000  0.4626280000000  0.5618960000000 1.0
C      1  0.5188040000000  0.5291900000000  0.5680590000000 1.0
C      1  0.5597020000000  0.4707020000000  0.4581340000000 1.0
C      1  0.5620690000000  0.5175940000000  0.5329840000000 1.0
C      1  0.4428990000000  0.4922330000000  0.5202970000000 1.0
C      1  0.5411950000000  0.5613980000000  0.5337640000000 1.0
C      1  0.5262420000000  0.4397970000000  0.4849900000000 1.0
C      1  0.4568380000000  0.5570080000000  0.4668100000000 1.0
C      1  0.4654250000000  0.5109550000000  0.4351470000000 1.0
C      1  0.5159700000000  0.4317780000000  0.4603070000000 1.0
C      1  0.4348530000000  0.4677000000000  0.5093900000000 1.0
C      1  0.5370920000000  0.4814500000000  0.4424730000000 1.0
C      1  0.4718470000000  0.4865750000000  0.5691320000000 1.0
C      1  0.5386730000000  0.5109260000000  0.5615590000000 1.0
C      1  0.4808090000000  0.5552800000000  0.4510730000000 1.0
C      1  0.5165340000000  0.5574910000000  0.5475510000000 1.0
C      1  0.4706450000000  0.4443280000000  0.5446030000000 1.0
C      1  0.5586950000000  0.5429280000000  0.5182130000000 1.0
C      1  0.4406420000000  0.5373270000000  0.4815020000000 1.0
C      1  0.5695410000000  0.4682160000000  0.4836640000000 1.0
C      1  0.4694140000000  0.5529170000000  0.5215020000000 1.0
C      1  0.5173550000000  0.4615340000000  0.5572730000000 1.0
C      1  0.5502160000000  0.5198890000000  0.4712850000000 1.0
C      1  0.5411970000000  0.4409040000000  0.5114500000000 1.0
C      1  0.5279290000000  0.5584700000000  0.4815660000000 1.0
C      1  0.4612970000000  0.4430120000000  0.4830980000000 1.0
C      1  0.4828410000000  0.5330200000000  0.5636370000000 1.0
C      1  0.4837590000000  0.4641590000000  0.4422550000000 1.0
C      1  0.5150120000000  0.5299640000000  0.4375050000000 1.0
C      1  0.4419130000000  0.4848960000000  0.4622120000000 1.0
C      1  0.4417210000000  0.5157120000000  0.5377240000000 1.0
C      1  0.5586850000000  0.4825500000000  0.5324840000000 1.0
C      1  0.5610520000000  0.4628690000000  0.5108110000000 1.0
C      1  0.4627620000000  0.5128680000000  0.5601970000000 1.0
C      1  0.5151660000000  0.5610270000000  0.4570240000000 1.0
C      1  0.4436920000000  0.5392050000000  0.5181610000000 1.0
C      1  0.5542300000000  0.5451580000000  0.4870090000000 1.0
C      1  0.4398970000000  0.4639200000000  0.4808000000000 1.0
C      1  0.5387920000000  0.4817630000000  0.5569410000000 1.0
C      1  0.4630120000000  0.4836770000000  0.4413570000000 1.0
C      1  0.5365240000000  0.5120570000000  0.4451400000000 1.0
C      1  0.4806820000000  0.4411700000000  0.4616810000000 1.0
C      1  0.5198340000000  0.4469160000000  0.5317740000000 1.0
C      1  0.4857680000000  0.5556550000000  0.5450300000000 1.0
C      1  0.4843080000000  0.5420980000000  0.4997860000000 1.0
C      1  0.5100000000000  0.4633030000000  0.4895150000000 1.0
C      1  0.4903150000000  0.4864270000000  0.5238890000000 1.0
C      1  0.5343740000000  0.5044980000000  0.4903030000000 1.0
C      1  0.5116890000000  0.5450110000000  0.5008920000000 1.0
C      1  0.5009230000000  0.4622070000000  0.5155940000000 1.0
C      1  0.5088440000000  0.5060730000000  0.5301950000000 1.0
C      1  0.5144610000000  0.4881980000000  0.4790340000000 1.0
C      1  0.4925820000000  0.5034220000000  0.4710790000000 1.0
C      1  0.4770950000000  0.5156760000000  0.4906360000000 1.0
C      1  0.4689300000000  0.4966740000000  0.5095460000000 1.0
C      1  0.5225800000000  0.5202500000000  0.5107550000000 1.0
END
