TITL C-2323492-8884-365 0.000813746525057212 125000 -356.90187977961 0 0 60 (C1) n - 1
REM
REM in /home/bkarasulu/CARBON/AIRSS/Generating-Clusters/LCBOP/Higher-Symm/Only-C60/SD-CG/FIRE-HFTN
REM
REM
REM
REM
REM
REM ./C.cell (50c204cfd26239f34c78669fe23a5462)
REM
REM compiler GCC version 9.2.1 20190827 (Red Hat 9.2.1-1)
REM options -cpp -mtune=generic -march=x86-64 -g -O0 -fpre-include=/usr/include/finclude/math-vector-fortran.h
REM seed 1396009420 -485538257 192460840 -933588181 -1364390507 -1394692624 -321136479 1358894726 1161359406 -1275504134 2117730058 1530124956 -1717645936 1253843586 597748554 1909053499 1885421973 637733941 -377685489 300087049 205905117 338330133 689803385 1554655385 419931156 1017851343 2023671006 -765472795 -1284325436 -1461495053 -1574383930 1336606314 -782573678
REM
CELL 1.54180   50.00000   50.00000   50.00000   90.00000   90.00000   90.00000
LATT -1
SFAC C  
C      1  0.4237440000000  0.4817290000000  0.5496130000000 1.0
C      1  0.5786480000000  0.4882930000000  0.4480200000000 1.0
C      1  0.4442720000000  0.5499410000000  0.4883510000000 1.0
C      1  0.5638830000000  0.5594460000000  0.5174600000000 1.0
C      1  0.4645430000000  0.4414180000000  0.4610820000000 1.0
C      1  0.5233250000000  0.4527770000000  0.5345300000000 1.0
C      1  0.5633490000000  0.5316930000000  0.5244470000000 1.0
C      1  0.4460000000000  0.5237750000000  0.4777700000000 1.0
C      1  0.5433630000000  0.5155650000000  0.4232060000000 1.0
C      1  0.4564120000000  0.5046430000000  0.5826020000000 1.0
C      1  0.4763810000000  0.4956190000000  0.4209720000000 1.0
C      1  0.5274500000000  0.4969570000000  0.5813650000000 1.0
C      1  0.5647250000000  0.5007230000000  0.4289840000000 1.0
C      1  0.4366780000000  0.4907750000000  0.5711210000000 1.0
C      1  0.4525530000000  0.5016730000000  0.4945780000000 1.0
C      1  0.5563350000000  0.5149080000000  0.5023320000000 1.0
C      1  0.5878340000000  0.5957850000000  0.5492350000000 1.0
C      1  0.4255220000000  0.5899250000000  0.4572910000000 1.0
C      1  0.5200830000000  0.5284520000000  0.4325640000000 1.0
C      1  0.4780550000000  0.5222490000000  0.5783150000000 1.0
C      1  0.4524250000000  0.5552340000000  0.5148310000000 1.0
C      1  0.5511920000000  0.5668970000000  0.4929710000000 1.0
C      1  0.4209470000000  0.4784860000000  0.5232710000000 1.0
C      1  0.5804730000000  0.4836050000000  0.4742120000000 1.0
C      1  0.4892430000000  0.4861940000000  0.5404350000000 1.0
C      1  0.5079700000000  0.4535450000000  0.4423550000000 1.0
C      1  0.5045520000000  0.5135930000000  0.5830200000000 1.0
C      1  0.4952210000000  0.5163690000000  0.4263650000000 1.0
C      1  0.4486950000000  0.4651740000000  0.4540000000000 1.0
C      1  0.5442880000000  0.4719070000000  0.5400080000000 1.0
C      1  0.4441680000000  0.5147490000000  0.4509080000000 1.0
C      1  0.5577520000000  0.5188750000000  0.5491920000000 1.0
C      1  0.4774540000000  0.4817290000000  0.3974160000000 1.0
C      1  0.5346400000000  0.4819320000000  0.6031510000000 1.0
C      1  0.4562360000000  0.4292260000000  0.4856710000000 1.0
C      1  0.5278210000000  0.4311480000000  0.5166720000000 1.0
C      1  0.5055670000000  0.4167700000000  0.4719330000000 1.0
C      1  0.4757060000000  0.4405430000000  0.5318250000000 1.0
C      1  0.5433390000000  0.4953780000000  0.5575710000000 1.0
C      1  0.4555760000000  0.4904500000000  0.4399600000000 1.0
C      1  0.5762730000000  0.5783480000000  0.5336950000000 1.0
C      1  0.4344570000000  0.5707850000000  0.4725560000000 1.0
C      1  0.4784990000000  0.4915370000000  0.4908510000000 1.0
C      1  0.5295010000000  0.5189250000000  0.4953870000000 1.0
C      1  0.4619550000000  0.5547830000000  0.5397580000000 1.0
C      1  0.5371560000000  0.5630380000000  0.4703090000000 1.0
C      1  0.5242460000000  0.5499010000000  0.4506670000000 1.0
C      1  0.4722710000000  0.5448490000000  0.5623550000000 1.0
C      1  0.4947750000000  0.5101780000000  0.5301590000000 1.0
C      1  0.5141030000000  0.4755720000000  0.4565680000000 1.0
C      1  0.5200860000000  0.4181180000000  0.4945310000000 1.0
C      1  0.4613340000000  0.4297970000000  0.5119860000000 1.0
C      1  0.4957130000000  0.4590770000000  0.5387940000000 1.0
C      1  0.4914940000000  0.4339090000000  0.4540150000000 1.0
C      1  0.5082790000000  0.5231880000000  0.5112210000000 1.0
C      1  0.5005740000000  0.4862630000000  0.4769740000000 1.0
C      1  0.4270930000000  0.4687040000000  0.4733620000000 1.0
C      1  0.5651450000000  0.4722650000000  0.5204910000000 1.0
C      1  0.5692680000000  0.4899140000000  0.4989310000000 1.0
C      1  0.4313540000000  0.4826970000000  0.4977820000000 1.0
END
