TITL C-2323482-8828-45 0.0397566694114102 125000 -361.288836876338 0 0 60 (C1) n - 1
REM
REM in /home/bkarasulu/CARBON/AIRSS/Generating-Clusters/LCBOP/Higher-Symm/Only-C60/SD-CG/FIRE-HFTN
REM
REM
REM
REM
REM
REM ./C.cell (50c204cfd26239f34c78669fe23a5462)
REM
REM compiler GCC version 9.2.1 20190827 (Red Hat 9.2.1-1)
REM options -cpp -mtune=generic -march=x86-64 -g -O0 -fpre-include=/usr/include/finclude/math-vector-fortran.h
REM seed -48332192 1500574374 -809252858 1781574497 -1935015152 -19875458 -808658965 1806712241 1413291373 -668303871 120928774 -1305580292 -816571307 -1680115493 917639100 -1743559353 -848799962 -918291599 1349765315 -634851122 70037908 1284008434 1214802570 -296098447 1508594371 445293908 1199380368 -1380909235 -123601205 -1576259633 676985927 -459551726 -424150449
REM
CELL 1.54180   50.00000   50.00000   50.00000   90.00000   90.00000   90.00000
LATT -1
SFAC C  
C      1  0.4560240000000  0.4452400000000  0.5089310000000 1.0
C      1  0.4389500000000  0.5176220000000  0.5124630000000 1.0
C      1  0.5678960000000  0.6303000000000  0.4920890000000 1.0
C      1  0.4604310000000  0.4869610000000  0.4806030000000 1.0
C      1  0.5803400000000  0.5220590000000  0.5714950000000 1.0
C      1  0.5447740000000  0.4282480000000  0.5218640000000 1.0
C      1  0.5009030000000  0.4139210000000  0.4214160000000 1.0
C      1  0.4940350000000  0.5370840000000  0.4887200000000 1.0
C      1  0.4282540000000  0.4504850000000  0.5077080000000 1.0
C      1  0.4578060000000  0.4752370000000  0.4191060000000 1.0
C      1  0.4716210000000  0.4624190000000  0.4914910000000 1.0
C      1  0.5567590000000  0.5051140000000  0.4727490000000 1.0
C      1  0.5217200000000  0.4797580000000  0.4463120000000 1.0
C      1  0.5013680000000  0.4988950000000  0.4480190000000 1.0
C      1  0.5217250000000  0.5443050000000  0.4891500000000 1.0
C      1  0.5567730000000  0.4411460000000  0.5011040000000 1.0
C      1  0.4470860000000  0.5743730000000  0.4421150000000 1.0
C      1  0.4364780000000  0.4956590000000  0.4948840000000 1.0
C      1  0.4690530000000  0.4328270000000  0.5315440000000 1.0
C      1  0.4639470000000  0.5410330000000  0.5503630000000 1.0
C      1  0.4993760000000  0.4607840000000  0.4951480000000 1.0
C      1  0.5022190000000  0.5023980000000  0.5199410000000 1.0
C      1  0.4950220000000  0.4393940000000  0.4293440000000 1.0
C      1  0.5829480000000  0.5059570000000  0.4825670000000 1.0
C      1  0.4245670000000  0.5673380000000  0.4282180000000 1.0
C      1  0.4761130000000  0.5336490000000  0.4667220000000 1.0
C      1  0.5432790000000  0.5855320000000  0.5044430000000 1.0
C      1  0.5141510000000  0.5415790000000  0.5598090000000 1.0
C      1  0.4865730000000  0.5459900000000  0.5641670000000 1.0
C      1  0.6063640000000  0.5140160000000  0.5278060000000 1.0
C      1  0.5445910000000  0.4557030000000  0.4803550000000 1.0
C      1  0.6004000000000  0.5092350000000  0.5023420000000 1.0
C      1  0.5305220000000  0.5614570000000  0.5104750000000 1.0
C      1  0.5990970000000  0.5187960000000  0.5529340000000 1.0
C      1  0.4800480000000  0.4598280000000  0.5724120000000 1.0
C      1  0.5090510000000  0.4756880000000  0.5177410000000 1.0
C      1  0.4612660000000  0.5288640000000  0.5252080000000 1.0
C      1  0.5275660000000  0.5202180000000  0.5733180000000 1.0
C      1  0.5556800000000  0.6081060000000  0.4982360000000 1.0
C      1  0.4729390000000  0.4531610000000  0.4185030000000 1.0
C      1  0.4727910000000  0.5048370000000  0.4579660000000 1.0
C      1  0.5107780000000  0.4526590000000  0.4484540000000 1.0
C      1  0.5548610000000  0.5227770000000  0.5790440000000 1.0
C      1  0.5162870000000  0.4478140000000  0.4764350000000 1.0
C      1  0.4561960000000  0.4978260000000  0.4337290000000 1.0
C      1  0.5454100000000  0.4805890000000  0.4642160000000 1.0
C      1  0.5158750000000  0.4610020000000  0.5411030000000 1.0
C      1  0.5052210000000  0.4710280000000  0.5657380000000 1.0
C      1  0.4546870000000  0.6005990000000  0.4441220000000 1.0
C      1  0.4639590000000  0.4441030000000  0.5572810000000 1.0
C      1  0.4859960000000  0.5236130000000  0.5122670000000 1.0
C      1  0.4169390000000  0.4752340000000  0.4996120000000 1.0
C      1  0.5405110000000  0.5280470000000  0.4758220000000 1.0
C      1  0.3641430000000  0.4833850000000  0.4931700000000 1.0
C      1  0.3896790000000  0.4792290000000  0.4963060000000 1.0
C      1  0.5200840000000  0.4331940000000  0.5349100000000 1.0
C      1  0.4949680000000  0.4200850000000  0.5299640000000 1.0
C      1  0.4624960000000  0.5545300000000  0.4544080000000 1.0
C      1  0.5152290000000  0.4950250000000  0.5762290000000 1.0
C      1  0.5261770000000  0.5540460000000  0.5374120000000 1.0
END
