TITL C-2323487-9546-605 -7043.44388679081 125000 -360.397500112686 0 0 60 (C1) n - 1
REM
REM in /home/bkarasulu/CARBON/AIRSS/Generating-Clusters/LCBOP/Higher-Symm/Only-C60/SD-CG/FIRE-HFTN
REM
REM
REM
REM
REM
REM ./C.cell (50c204cfd26239f34c78669fe23a5462)
REM
REM compiler GCC version 9.2.1 20190827 (Red Hat 9.2.1-1)
REM options -cpp -mtune=generic -march=x86-64 -g -O0 -fpre-include=/usr/include/finclude/math-vector-fortran.h
REM seed -121934599 1027903666 1371239387 116655624 -1168155130 762803239 -336490129 1629342851 -2139666097 -689676482 -1140708412 -345432817 -1657228468 95463338 -1675796687 -828909914 1554439609 -1643835564 1789541862 1100803592 -2103493274 2111598628 1607357823 1460009078 1232431418 1538859840 1762364930 -2138940185 1488004753 -1914444594 2043249494 -436368519 -220171383
REM
CELL 1.54180   50.00000   50.00000   50.00000   90.00000   90.00000   90.00000
LATT -1
SFAC C  
C      1  0.5499120000000  0.4585530000000  0.4926710000000 1.0
C      1  0.4674840000000  0.4823440000000  0.5607430000000 1.0
C      1  0.4856910000000  0.5544170000000  0.4564710000000 1.0
C      1  0.4476120000000  0.5397370000000  0.4921450000000 1.0
C      1  0.5515510000000  0.5478920000000  0.5179580000000 1.0
C      1  0.4481550000000  0.4764560000000  0.5125400000000 1.0
C      1  0.5354120000000  0.5126200000000  0.5580390000000 1.0
C      1  0.4549810000000  0.5102530000000  0.4505670000000 1.0
C      1  0.5444000000000  0.4867280000000  0.4475620000000 1.0
C      1  0.5115940000000  0.4438630000000  0.4608420000000 1.0
C      1  0.4846260000000  0.4513030000000  0.5250250000000 1.0
C      1  0.5029460000000  0.5573420000000  0.5205470000000 1.0
C      1  0.4730370000000  0.5528490000000  0.4830680000000 1.0
C      1  0.4881120000000  0.4634850000000  0.5525660000000 1.0
C      1  0.5522380000000  0.4834680000000  0.4761280000000 1.0
C      1  0.5231810000000  0.4468750000000  0.4876410000000 1.0
C      1  0.5285250000000  0.5653850000000  0.5111950000000 1.0
C      1  0.4600540000000  0.4497600000000  0.5090170000000 1.0
C      1  0.5072880000000  0.5181540000000  0.5564670000000 1.0
C      1  0.5195690000000  0.4695290000000  0.4470130000000 1.0
C      1  0.4791530000000  0.5272450000000  0.4455590000000 1.0
C      1  0.4482200000000  0.5137220000000  0.4788420000000 1.0
C      1  0.4407370000000  0.4889180000000  0.5361140000000 1.0
C      1  0.5479430000000  0.5233320000000  0.5328940000000 1.0
C      1  0.5584790000000  0.4533690000000  0.5206820000000 1.0
C      1  0.4614530000000  0.5180170000000  0.5623280000000 1.0
C      1  0.5165760000000  0.5589090000000  0.4560370000000 1.0
C      1  0.4423910000000  0.5410970000000  0.5215740000000 1.0
C      1  0.5632580000000  0.5473530000000  0.4828580000000 1.0
C      1  0.4326980000000  0.4457520000000  0.4690350000000 1.0
C      1  0.5397570000000  0.4828150000000  0.5600450000000 1.0
C      1  0.4498880000000  0.4823130000000  0.4415990000000 1.0
C      1  0.5496380000000  0.5174450000000  0.4427580000000 1.0
C      1  0.4807570000000  0.4422910000000  0.4592310000000 1.0
C      1  0.5286190000000  0.4354310000000  0.5553110000000 1.0
C      1  0.4837290000000  0.5577380000000  0.5425710000000 1.0
C      1  0.4566780000000  0.5630350000000  0.5341750000000 1.0
C      1  0.5171240000000  0.4616290000000  0.5616590000000 1.0
C      1  0.5689700000000  0.5301330000000  0.4614830000000 1.0
C      1  0.5461220000000  0.4308960000000  0.5345510000000 1.0
C      1  0.5330960000000  0.5655510000000  0.4804960000000 1.0
C      1  0.4587950000000  0.4400170000000  0.4808900000000 1.0
C      1  0.4849290000000  0.5349020000000  0.5612050000000 1.0
C      1  0.4698640000000  0.4607200000000  0.4377940000000 1.0
C      1  0.5310720000000  0.5402680000000  0.4371600000000 1.0
C      1  0.4275900000000  0.4676960000000  0.4532100000000 1.0
C      1  0.4409920000000  0.5179240000000  0.5400840000000 1.0
C      1  0.5617330000000  0.4730030000000  0.5424330000000 1.0
C      1  0.4943300000000  0.5371100000000  0.4995300000000 1.0
C      1  0.5046430000000  0.4635000000000  0.5051480000000 1.0
C      1  0.5017340000000  0.5130680000000  0.4561420000000 1.0
C      1  0.5175380000000  0.4858130000000  0.5210990000000 1.0
C      1  0.5389490000000  0.5068750000000  0.4879430000000 1.0
C      1  0.4984510000000  0.5029090000000  0.5329190000000 1.0
C      1  0.4873700000000  0.4789460000000  0.4835290000000 1.0
C      1  0.5149660000000  0.5223170000000  0.4803570000000 1.0
C      1  0.4647020000000  0.4949710000000  0.4959250000000 1.0
C      1  0.5401470000000  0.5021960000000  0.5150760000000 1.0
C      1  0.4816530000000  0.5137150000000  0.5132750000000 1.0
C      1  0.4988890000000  0.4860500000000  0.4582750000000 1.0
END
