TITL C-2323486-8761-439 0.000866034501366131 125000 -378.264562152097 0 0 60 (D5h) n - 1
REM
REM in /home/bkarasulu/CARBON/AIRSS/Generating-Clusters/LCBOP/Higher-Symm/Only-C60/SD-CG/FIRE-HFTN
REM
REM
REM
REM
REM
REM ./C.cell (50c204cfd26239f34c78669fe23a5462)
REM
REM compiler GCC version 9.2.1 20190827 (Red Hat 9.2.1-1)
REM options -cpp -mtune=generic -march=x86-64 -g -O0 -fpre-include=/usr/include/finclude/math-vector-fortran.h
REM seed -1527191336 -420984780 615648834 1506551268 -1019655881 -1737368960 -45460406 805979024 580502127 -15101613 1845065516 -1943085798 1704119098 -1477949276 -1054318934 -850244171 614194947 1357885905 -2033902162 1958968299 1117885961 -776677316 1700880969 1900512187 -388484375 -1476563987 -1151385733 1590702089 2010148734 1528059788 -185257263 913538634 -233597689
REM
CELL 1.54180   50.00000   50.00000   50.00000   90.00000   90.00000   90.00000
LATT -1
SFAC C  
C      1  0.5583660000000  0.4575940000000  0.4489850000000 1.0
C      1  0.4777060000000  0.4313860000000  0.4489850000000 1.0
C      1  0.4278550000000  0.5000000000000  0.4489850000000 1.0
C      1  0.4777060000000  0.5686140000000  0.4489850000000 1.0
C      1  0.5583660000000  0.5424060000000  0.4489850000000 1.0
C      1  0.5583660000000  0.5424060000000  0.5494260000000 1.0
C      1  0.4777060000000  0.5686140000000  0.5494260000000 1.0
C      1  0.4278550000000  0.5000000000000  0.5494260000000 1.0
C      1  0.4777060000000  0.4313860000000  0.5494260000000 1.0
C      1  0.5583660000000  0.4575940000000  0.5494260000000 1.0
C      1  0.5411130000000  0.5298700000000  0.5964610000000 1.0
C      1  0.5411130000000  0.4701300000000  0.5964610000000 1.0
C      1  0.4842960000000  0.4516690000000  0.5964610000000 1.0
C      1  0.4491820000000  0.5000000000000  0.5964610000000 1.0
C      1  0.4842960000000  0.5483310000000  0.5964610000000 1.0
C      1  0.5411130000000  0.4701300000000  0.4019500000000 1.0
C      1  0.5411130000000  0.5298700000000  0.4019500000000 1.0
C      1  0.4842960000000  0.5483310000000  0.4019500000000 1.0
C      1  0.4491820000000  0.5000000000000  0.4019500000000 1.0
C      1  0.4842960000000  0.4516690000000  0.4019500000000 1.0
C      1  0.4793780000000  0.5634670000000  0.5234560000000 1.0
C      1  0.5539880000000  0.5392250000000  0.5234560000000 1.0
C      1  0.5539880000000  0.4607750000000  0.5234560000000 1.0
C      1  0.4793780000000  0.4365330000000  0.5234560000000 1.0
C      1  0.4332670000000  0.5000000000000  0.5234560000000 1.0
C      1  0.4793780000000  0.4365330000000  0.4749550000000 1.0
C      1  0.5539880000000  0.4607750000000  0.4749550000000 1.0
C      1  0.5539880000000  0.5392250000000  0.4749550000000 1.0
C      1  0.4793780000000  0.5634670000000  0.4749550000000 1.0
C      1  0.4332670000000  0.5000000000000  0.4749550000000 1.0
C      1  0.4328100000000  0.5000000000000  0.5755180000000 1.0
C      1  0.4792370000000  0.5639010000000  0.5755180000000 1.0
C      1  0.5543580000000  0.5394930000000  0.5755180000000 1.0
C      1  0.5543580000000  0.4605070000000  0.5755180000000 1.0
C      1  0.4792370000000  0.4360990000000  0.5755180000000 1.0
C      1  0.4328100000000  0.5000000000000  0.4228930000000 1.0
C      1  0.4792370000000  0.4360990000000  0.4228930000000 1.0
C      1  0.5543580000000  0.4605070000000  0.4228930000000 1.0
C      1  0.5543580000000  0.5394930000000  0.4228930000000 1.0
C      1  0.4792370000000  0.5639010000000  0.4228930000000 1.0
C      1  0.5199350000000  0.5144840000000  0.3926770000000 1.0
C      1  0.5199350000000  0.4855160000000  0.3926770000000 1.0
C      1  0.4923850000000  0.4765650000000  0.3926770000000 1.0
C      1  0.4753590000000  0.5000000000000  0.3926770000000 1.0
C      1  0.4923850000000  0.5234350000000  0.3926770000000 1.0
C      1  0.5199350000000  0.4855160000000  0.6057340000000 1.0
C      1  0.5199350000000  0.5144840000000  0.6057340000000 1.0
C      1  0.4923850000000  0.5234350000000  0.6057340000000 1.0
C      1  0.4753590000000  0.5000000000000  0.6057340000000 1.0
C      1  0.4923850000000  0.4765650000000  0.6057340000000 1.0
C      1  0.4753090000000  0.5000000000000  0.4992060000000 1.0
C      1  0.5199750000000  0.5145130000000  0.4992060000000 1.0
C      1  0.5199750000000  0.4854870000000  0.4992060000000 1.0
C      1  0.4923700000000  0.4765180000000  0.4992060000000 1.0
C      1  0.4923700000000  0.5234820000000  0.4992060000000 1.0
C      1  0.4471670000000  0.5000000000000  0.4992060000000 1.0
C      1  0.5427430000000  0.5310540000000  0.4992060000000 1.0
C      1  0.5427430000000  0.4689460000000  0.4992060000000 1.0
C      1  0.4836740000000  0.5502470000000  0.4992060000000 1.0
C      1  0.4836740000000  0.4497530000000  0.4992060000000 1.0
END
