TITL C-2323482-8828-97 -1.00780309918384e-05 125000 -369.373702177501 0 0 60 (D3h) n - 1
REM
REM in /home/bkarasulu/CARBON/AIRSS/Generating-Clusters/LCBOP/Higher-Symm/Only-C60/SD-CG/FIRE-HFTN
REM
REM
REM
REM
REM
REM ./C.cell (50c204cfd26239f34c78669fe23a5462)
REM
REM compiler GCC version 9.2.1 20190827 (Red Hat 9.2.1-1)
REM options -cpp -mtune=generic -march=x86-64 -g -O0 -fpre-include=/usr/include/finclude/math-vector-fortran.h
REM seed -479492189 1846473927 -941973698 1697136244 248067342 903926026 1530437383 -1132153941 446317248 1008291499 -1604859317 -772693602 480144419 1816854601 1700814287 -704909259 -199113733 1533225228 1980671838 -630315246 1909710894 -27156353 -1905082769 59324234 68941181 431725437 -323368354 482405930 -200937554 -1365529950 -1120011900 -1366763723 395931651
REM
CELL 1.54180   50.00000   50.00000   50.00000   90.00000   90.00000   90.00000
LATT -1
SFAC C  
C      1  0.5512200000000  0.5148570000000  0.4755440000000 1.0
C      1  0.4955690000000  0.5148590000000  0.5565850000000 1.0
C      1  0.4532110000000  0.5148560000000  0.4678700000000 1.0
C      1  0.5512200000000  0.4851420000000  0.4755450000000 1.0
C      1  0.4955690000000  0.4851440000000  0.5565860000000 1.0
C      1  0.4532110000000  0.4851410000000  0.4678710000000 1.0
C      1  0.5512190000000  0.5148580000000  0.5244570000000 1.0
C      1  0.4955710000000  0.5148560000000  0.4434140000000 1.0
C      1  0.4532100000000  0.5148580000000  0.5321280000000 1.0
C      1  0.5512190000000  0.4851440000000  0.5244580000000 1.0
C      1  0.4955710000000  0.4851410000000  0.4434150000000 1.0
C      1  0.4532100000000  0.4851430000000  0.5321290000000 1.0
C      1  0.5240910000000  0.4783980000000  0.5143280000000 1.0
C      1  0.4755470000000  0.4783980000000  0.5137000000000 1.0
C      1  0.5003630000000  0.4783970000000  0.4719730000000 1.0
C      1  0.5240910000000  0.5216030000000  0.5143270000000 1.0
C      1  0.4755460000000  0.5216030000000  0.5136990000000 1.0
C      1  0.5003620000000  0.5216020000000  0.4719720000000 1.0
C      1  0.5240910000000  0.4783970000000  0.4856740000000 1.0
C      1  0.4755470000000  0.4783970000000  0.4863000000000 1.0
C      1  0.5003620000000  0.4783980000000  0.5280280000000 1.0
C      1  0.5240910000000  0.5216020000000  0.4856730000000 1.0
C      1  0.4755470000000  0.5216020000000  0.4862990000000 1.0
C      1  0.5003610000000  0.5216030000000  0.5280270000000 1.0
C      1  0.5648680000000  0.4606710000000  0.5151860000000 1.0
C      1  0.4544160000000  0.4606710000000  0.5485860000000 1.0
C      1  0.4807170000000  0.4606680000000  0.4362310000000 1.0
C      1  0.5648680000000  0.5393310000000  0.5151840000000 1.0
C      1  0.4544150000000  0.5393310000000  0.5485840000000 1.0
C      1  0.4807160000000  0.5393280000000  0.4362290000000 1.0
C      1  0.5648690000000  0.4606700000000  0.4848180000000 1.0
C      1  0.4544170000000  0.4606690000000  0.4514150000000 1.0
C      1  0.4807150000000  0.4606710000000  0.5637700000000 1.0
C      1  0.5648680000000  0.5393300000000  0.4848160000000 1.0
C      1  0.4544160000000  0.5393280000000  0.4514130000000 1.0
C      1  0.4807140000000  0.5393310000000  0.5637680000000 1.0
C      1  0.5001540000000  0.5736120000000  0.5293760000000 1.0
C      1  0.4744800000000  0.5736100000000  0.4854430000000 1.0
C      1  0.5253640000000  0.5736110000000  0.4851760000000 1.0
C      1  0.5001550000000  0.4263900000000  0.5293790000000 1.0
C      1  0.4744820000000  0.4263890000000  0.4854460000000 1.0
C      1  0.5253650000000  0.4263890000000  0.4851790000000 1.0
C      1  0.5001550000000  0.5736100000000  0.4706210000000 1.0
C      1  0.4744800000000  0.5736110000000  0.5145530000000 1.0
C      1  0.5253640000000  0.5736110000000  0.5148220000000 1.0
C      1  0.5001560000000  0.4263880000000  0.4706240000000 1.0
C      1  0.4744810000000  0.4263890000000  0.5145560000000 1.0
C      1  0.5253650000000  0.4263900000000  0.5148250000000 1.0
C      1  0.4527330000000  0.4367050000000  0.4686700000000 1.0
C      1  0.5507680000000  0.4367060000000  0.4747320000000 1.0
C      1  0.4965010000000  0.4367070000000  0.5566010000000 1.0
C      1  0.4527320000000  0.5632930000000  0.4686680000000 1.0
C      1  0.5507660000000  0.5632940000000  0.4747300000000 1.0
C      1  0.4964990000000  0.5632950000000  0.5565990000000 1.0
C      1  0.4527330000000  0.4367060000000  0.5313310000000 1.0
C      1  0.5507670000000  0.4367070000000  0.5252720000000 1.0
C      1  0.4965020000000  0.4367050000000  0.4434010000000 1.0
C      1  0.4527310000000  0.5632940000000  0.5313280000000 1.0
C      1  0.5507660000000  0.5632950000000  0.5252690000000 1.0
C      1  0.4965010000000  0.5632930000000  0.4433990000000 1.0
END
