TITL C-2323488-8613-358 -6.85424370303631e-07 125000 -378.502165281797 0 0 60 (C3i) n - 1
REM
REM in /home/bkarasulu/CARBON/AIRSS/Generating-Clusters/LCBOP/Higher-Symm/Only-C60/SD-CG/FIRE-HFTN
REM
REM
REM
REM
REM
REM ./C.cell (50c204cfd26239f34c78669fe23a5462)
REM
REM compiler GCC version 9.2.1 20190827 (Red Hat 9.2.1-1)
REM options -cpp -mtune=generic -march=x86-64 -g -O0 -fpre-include=/usr/include/finclude/math-vector-fortran.h
REM seed -751498113 1004661815 -1810184645 -1257386287 1737348759 -910073189 1066243207 -208779933 -1260922007 544070771 -1013895463 3725840 -1023263958 -1080113985 1830699381 276186536 1318687991 594455421 -375697369 1771182673 -1265353933 1179535872 -1743296909 1485989027 -981116929 -1617840938 471459678 1050096703 1805721347 -1962235955 2137494129 -437304534 -1496859787
REM
CELL 1.54180   50.00000   50.00000   50.00000   90.00000   90.00000   90.00000
LATT -1
SFAC C  
C      1  0.4722800000000  0.5267370000000  0.5735110000000 1.0
C      1  0.4722800000000  0.4229690000000  0.4863990000000 1.0
C      1  0.4722800000000  0.5502940000000  0.4400900000000 1.0
C      1  0.5277200000000  0.4732630000000  0.5735110000000 1.0
C      1  0.5277200000000  0.5770310000000  0.4863990000000 1.0
C      1  0.5277200000000  0.4497060000000  0.4400900000000 1.0
C      1  0.5277200000000  0.4732630000000  0.4264890000000 1.0
C      1  0.5277200000000  0.5770310000000  0.5136010000000 1.0
C      1  0.5277200000000  0.4497060000000  0.5599100000000 1.0
C      1  0.4722800000000  0.5267370000000  0.4264890000000 1.0
C      1  0.4722800000000  0.4229690000000  0.5136010000000 1.0
C      1  0.4722800000000  0.5502940000000  0.5599100000000 1.0
C      1  0.5741420000000  0.5246410000000  0.4857740000000 1.0
C      1  0.5741410000000  0.5000000000000  0.5284520000000 1.0
C      1  0.5741420000000  0.4753600000000  0.4857740000000 1.0
C      1  0.4258590000000  0.4753590000000  0.4857740000000 1.0
C      1  0.4258580000000  0.5000000000000  0.5284520000000 1.0
C      1  0.4258580000000  0.5246400000000  0.4857730000000 1.0
C      1  0.4258580000000  0.4753590000000  0.5142260000000 1.0
C      1  0.4258590000000  0.5000000000000  0.4715480000000 1.0
C      1  0.4258580000000  0.5246400000000  0.5142260000000 1.0
C      1  0.5741410000000  0.5246410000000  0.5142260000000 1.0
C      1  0.5741420000000  0.5000000000000  0.4715480000000 1.0
C      1  0.5741420000000  0.4753600000000  0.5142270000000 1.0
C      1  0.5603650000000  0.5013600000000  0.5531060000000 1.0
C      1  0.5603650000000  0.4533290000000  0.4746250000000 1.0
C      1  0.5603650000000  0.5453110000000  0.4722690000000 1.0
C      1  0.4396350000000  0.4986400000000  0.5531060000000 1.0
C      1  0.4396350000000  0.5466710000000  0.4746250000000 1.0
C      1  0.4396350000000  0.4546890000000  0.4722690000000 1.0
C      1  0.4396350000000  0.4986400000000  0.4468940000000 1.0
C      1  0.4396350000000  0.5466710000000  0.5253750000000 1.0
C      1  0.4396350000000  0.4546890000000  0.5277310000000 1.0
C      1  0.5603650000000  0.5013600000000  0.4468940000000 1.0
C      1  0.5603650000000  0.4533290000000  0.5253750000000 1.0
C      1  0.5603650000000  0.5453110000000  0.5277310000000 1.0
C      1  0.5333200000000  0.4978090000000  0.4399270000000 1.0
C      1  0.5333200000000  0.5531210000000  0.5281390000000 1.0
C      1  0.5333200000000  0.4490710000000  0.5319340000000 1.0
C      1  0.4666800000000  0.5021910000000  0.4399270000000 1.0
C      1  0.4666800000000  0.4468790000000  0.5281390000000 1.0
C      1  0.4666800000000  0.5509290000000  0.5319340000000 1.0
C      1  0.4666800000000  0.5021910000000  0.5600730000000 1.0
C      1  0.4666800000000  0.4468790000000  0.4718610000000 1.0
C      1  0.4666800000000  0.5509290000000  0.4680660000000 1.0
C      1  0.5333200000000  0.4978090000000  0.5600730000000 1.0
C      1  0.5333200000000  0.5531210000000  0.4718610000000 1.0
C      1  0.5333200000000  0.4490710000000  0.4680660000000 1.0
C      1  0.5120740000000  0.5335290000000  0.4709400000000 1.0
C      1  0.5120740000000  0.5084020000000  0.5435670000000 1.0
C      1  0.5120740000000  0.4580690000000  0.4854930000000 1.0
C      1  0.4879260000000  0.4664710000000  0.4709400000000 1.0
C      1  0.4879260000000  0.4915980000000  0.5435670000000 1.0
C      1  0.4879260000000  0.5419310000000  0.4854930000000 1.0
C      1  0.4879260000000  0.4664710000000  0.5290600000000 1.0
C      1  0.4879260000000  0.4915980000000  0.4564330000000 1.0
C      1  0.4879260000000  0.5419310000000  0.5145070000000 1.0
C      1  0.5120740000000  0.5335290000000  0.5290600000000 1.0
C      1  0.5120740000000  0.5084020000000  0.4564330000000 1.0
C      1  0.5120740000000  0.4580690000000  0.5145070000000 1.0
END
