TITL C-2323483-8886-282 4.73081688369627e-06 125000 -356.677452310837 0 0 60 (C1) n - 1
REM
REM in /home/bkarasulu/CARBON/AIRSS/Generating-Clusters/LCBOP/Higher-Symm/Only-C60/SD-CG/FIRE-HFTN
REM
REM
REM
REM
REM
REM ./C.cell (50c204cfd26239f34c78669fe23a5462)
REM
REM compiler GCC version 9.2.1 20190827 (Red Hat 9.2.1-1)
REM options -cpp -mtune=generic -march=x86-64 -g -O0 -fpre-include=/usr/include/finclude/math-vector-fortran.h
REM seed -922949595 -419692084 -1004038353 1227633908 -445644930 -1508312186 389627114 -1636186165 -1092036204 -828569570 -691983621 -181040560 -2103904206 -943531114 1021791300 1158201652 -1428165634 -1587318882 1791470203 -1817622465 1350756464 2054738483 1504776712 -916397063 182652737 1146612133 -707847488 806267305 1119935652 299086066 -388249340 -646676056 811484448
REM
CELL 1.54180   50.00000   50.00000   50.00000   90.00000   90.00000   90.00000
LATT -1
SFAC C  
C      1  0.5061760000000  0.4835150000000  0.4400450000000 1.0
C      1  0.4759560000000  0.4399780000000  0.5104960000000 1.0
C      1  0.4310010000000  0.5203080000000  0.4792720000000 1.0
C      1  0.5242730000000  0.5131720000000  0.5643550000000 1.0
C      1  0.4930050000000  0.4661510000000  0.5709750000000 1.0
C      1  0.4754910000000  0.5254920000000  0.4201550000000 1.0
C      1  0.4766040000000  0.5670760000000  0.4778200000000 1.0
C      1  0.5310620000000  0.4382230000000  0.4968190000000 1.0
C      1  0.5119520000000  0.5432320000000  0.5088360000000 1.0
C      1  0.4385180000000  0.4929750000000  0.5272360000000 1.0
C      1  0.5714400000000  0.5122620000000  0.5200850000000 1.0
C      1  0.5776200000000  0.4847400000000  0.4761030000000 1.0
C      1  0.4789570000000  0.4810820000000  0.4327610000000 1.0
C      1  0.5225300000000  0.4345270000000  0.5241570000000 1.0
C      1  0.5603760000000  0.5070850000000  0.4721180000000 1.0
C      1  0.4957700000000  0.5142880000000  0.5596430000000 1.0
C      1  0.5190290000000  0.4697870000000  0.5823060000000 1.0
C      1  0.5020780000000  0.5312670000000  0.4307730000000 1.0
C      1  0.5234130000000  0.5611050000000  0.4888450000000 1.0
C      1  0.4884480000000  0.4581180000000  0.4913590000000 1.0
C      1  0.4688870000000  0.5623030000000  0.5054400000000 1.0
C      1  0.5666180000000  0.4839690000000  0.5238930000000 1.0
C      1  0.4207810000000  0.5152580000000  0.5256800000000 1.0
C      1  0.4296130000000  0.4909710000000  0.4777720000000 1.0
C      1  0.4697270000000  0.4595060000000  0.4187780000000 1.0
C      1  0.4737260000000  0.4824570000000  0.4916550000000 1.0
C      1  0.4358940000000  0.4860930000000  0.4494740000000 1.0
C      1  0.4847850000000  0.5369650000000  0.5468850000000 1.0
C      1  0.5272760000000  0.4591290000000  0.6059420000000 1.0
C      1  0.5078890000000  0.5563060000000  0.4427400000000 1.0
C      1  0.4415520000000  0.5566490000000  0.5099430000000 1.0
C      1  0.5413450000000  0.4459930000000  0.5421210000000 1.0
C      1  0.5514730000000  0.5527090000000  0.4883550000000 1.0
C      1  0.3996810000000  0.5189000000000  0.5424940000000 1.0
C      1  0.5502520000000  0.4730860000000  0.5452310000000 1.0
C      1  0.5443100000000  0.5114030000000  0.4494510000000 1.0
C      1  0.5178860000000  0.4623800000000  0.4544140000000 1.0
C      1  0.5584830000000  0.4443050000000  0.4941590000000 1.0
C      1  0.5986990000000  0.4790590000000  0.4597880000000 1.0
C      1  0.5389990000000  0.5355020000000  0.5698380000000 1.0
C      1  0.4877380000000  0.4418420000000  0.5575720000000 1.0
C      1  0.4653510000000  0.5351150000000  0.3968520000000 1.0
C      1  0.5266090000000  0.5189310000000  0.5082160000000 1.0
C      1  0.4477100000000  0.4483120000000  0.5095540000000 1.0
C      1  0.4581530000000  0.5561710000000  0.4592850000000 1.0
C      1  0.5892820000000  0.5272350000000  0.5341540000000 1.0
C      1  0.4549270000000  0.4891220000000  0.5496910000000 1.0
C      1  0.4483040000000  0.5301300000000  0.4586280000000 1.0
C      1  0.5042000000000  0.5670010000000  0.4688070000000 1.0
C      1  0.5710820000000  0.4689750000000  0.4991860000000 1.0
C      1  0.4800430000000  0.4902290000000  0.5621030000000 1.0
C      1  0.4943110000000  0.4334740000000  0.5313470000000 1.0
C      1  0.4881370000000  0.5494360000000  0.5219980000000 1.0
C      1  0.5127200000000  0.4510480000000  0.4794180000000 1.0
C      1  0.5549600000000  0.5230940000000  0.4969260000000 1.0
C      1  0.4444760000000  0.4782760000000  0.5013830000000 1.0
C      1  0.4272010000000  0.5330120000000  0.5044240000000 1.0
C      1  0.4591730000000  0.5054330000000  0.4386070000000 1.0
C      1  0.5187420000000  0.5089460000000  0.4380020000000 1.0
C      1  0.5353040000000  0.4868900000000  0.5656360000000 1.0
END
