TITL C-2323483-8886-244 2.32590717128248e-06 125000 -358.395568083266 0 0 60 (Cs) n - 1
REM
REM in /home/bkarasulu/CARBON/AIRSS/Generating-Clusters/LCBOP/Higher-Symm/Only-C60/SD-CG/FIRE-HFTN
REM
REM
REM
REM
REM
REM ./C.cell (50c204cfd26239f34c78669fe23a5462)
REM
REM compiler GCC version 9.2.1 20190827 (Red Hat 9.2.1-1)
REM options -cpp -mtune=generic -march=x86-64 -g -O0 -fpre-include=/usr/include/finclude/math-vector-fortran.h
REM seed 910764777 -355245106 -451565210 -742804056 -1267262977 1116358169 -716848529 -298899405 -1354103644 -806763733 360400637 -1814368483 873553592 -175363485 -1393390307 226777848 2003918706 1451563765 -589999725 -1451550396 1363585422 1744483580 2068424520 -1164038668 -885132011 -1632800343 318227653 1792892844 481661212 473378332 -98338113 192305638 108754450
REM
CELL 1.54180   50.00000   50.00000   50.00000   90.00000   90.00000   90.00000
LATT -1
SFAC C  
C      1  0.4682550000000  0.4721070000000  0.5241530000000 1.0
C      1  0.5286170000000  0.5277010000000  0.5240810000000 1.0
C      1  0.4713810000000  0.5277000000000  0.5240800000000 1.0
C      1  0.5317440000000  0.4721070000000  0.5241540000000 1.0
C      1  0.5306530000000  0.4031830000000  0.4945090000000 1.0
C      1  0.4704790000000  0.5979040000000  0.4948880000000 1.0
C      1  0.5295190000000  0.5979040000000  0.4948890000000 1.0
C      1  0.4693490000000  0.4031820000000  0.4945070000000 1.0
C      1  0.5140890000000  0.5981450000000  0.4700660000000 1.0
C      1  0.4859690000000  0.4040250000000  0.4705340000000 1.0
C      1  0.5140350000000  0.4040250000000  0.4705350000000 1.0
C      1  0.4859100000000  0.5981450000000  0.4700650000000 1.0
C      1  0.5348970000000  0.4719090000000  0.4745960000000 1.0
C      1  0.4708850000000  0.5286120000000  0.4747100000000 1.0
C      1  0.5291150000000  0.5286130000000  0.4747120000000 1.0
C      1  0.4651050000000  0.4719080000000  0.4745940000000 1.0
C      1  0.5460390000000  0.4263340000000  0.4966070000000 1.0
C      1  0.4577480000000  0.5733220000000  0.4981570000000 1.0
C      1  0.5422500000000  0.5733230000000  0.4981600000000 1.0
C      1  0.4539630000000  0.4263330000000  0.4966040000000 1.0
C      1  0.4835780000000  0.5144210000000  0.4988550000000 1.0
C      1  0.5267230000000  0.4847060000000  0.4990120000000 1.0
C      1  0.4732780000000  0.4847050000000  0.4990110000000 1.0
C      1  0.5164220000000  0.5144220000000  0.4988550000000 1.0
C      1  0.5139320000000  0.4746710000000  0.5473180000000 1.0
C      1  0.4862500000000  0.5259950000000  0.5491530000000 1.0
C      1  0.5137460000000  0.5259950000000  0.5491540000000 1.0
C      1  0.4860660000000  0.4746710000000  0.5473170000000 1.0
C      1  0.5300480000000  0.4857600000000  0.4501070000000 1.0
C      1  0.4711330000000  0.5143650000000  0.4498420000000 1.0
C      1  0.5288700000000  0.5143660000000  0.4498440000000 1.0
C      1  0.4699550000000  0.4857590000000  0.4501050000000 1.0
C      1  0.4210740000000  0.4858740000000  0.5199590000000 1.0
C      1  0.5769200000000  0.5128560000000  0.5174110000000 1.0
C      1  0.4230790000000  0.5128540000000  0.5174070000000 1.0
C      1  0.5789250000000  0.4858760000000  0.5199630000000 1.0
C      1  0.5409730000000  0.4443190000000  0.4741400000000 1.0
C      1  0.4630040000000  0.5557310000000  0.4754480000000 1.0
C      1  0.5369960000000  0.5557320000000  0.4754500000000 1.0
C      1  0.4590300000000  0.4443180000000  0.4741370000000 1.0
C      1  0.5574070000000  0.5267190000000  0.5601030000000 1.0
C      1  0.4430000000000  0.4724060000000  0.5624990000000 1.0
C      1  0.5569980000000  0.4724070000000  0.5625030000000 1.0
C      1  0.4425890000000  0.5267180000000  0.5601000000000 1.0
C      1  0.4864680000000  0.4726960000000  0.4310110000000 1.0
C      1  0.5135730000000  0.5262380000000  0.4289850000000 1.0
C      1  0.4864300000000  0.5262370000000  0.4289840000000 1.0
C      1  0.5135360000000  0.4726960000000  0.4310120000000 1.0
C      1  0.5323180000000  0.5144460000000  0.5688430000000 1.0
C      1  0.4682650000000  0.4856800000000  0.5687910000000 1.0
C      1  0.5317320000000  0.4856800000000  0.5687930000000 1.0
C      1  0.4676780000000  0.5144450000000  0.5688410000000 1.0
C      1  0.4738410000000  0.5750430000000  0.4560570000000 1.0
C      1  0.5268450000000  0.4261700000000  0.4557960000000 1.0
C      1  0.4731590000000  0.4261700000000  0.4557950000000 1.0
C      1  0.5261600000000  0.5750440000000  0.4560580000000 1.0
C      1  0.5576560000000  0.5285670000000  0.5307570000000 1.0
C      1  0.4401230000000  0.4700970000000  0.5336140000000 1.0
C      1  0.5598760000000  0.4700980000000  0.5336180000000 1.0
C      1  0.4423420000000  0.5285660000000  0.5307530000000 1.0
END
