TITL C-2323481-8605-364 2.31861284931835e-05 125000 -371.140350281171 0 0 60 (C1) n - 1
REM
REM in /home/bkarasulu/CARBON/AIRSS/Generating-Clusters/LCBOP/Higher-Symm/Only-C60/SD-CG/FIRE-HFTN
REM
REM
REM
REM
REM
REM ./C.cell (50c204cfd26239f34c78669fe23a5462)
REM
REM compiler GCC version 9.2.1 20190827 (Red Hat 9.2.1-1)
REM options -cpp -mtune=generic -march=x86-64 -g -O0 -fpre-include=/usr/include/finclude/math-vector-fortran.h
REM seed -1380883332 -1694791831 -936717886 1609606607 -851803592 1729157239 -273667711 1078647467 -1251758806 -928059029 -1274616282 -1803521203 500509480 953933546 1504994235 1750650540 -347216452 1988469716 1255922755 -218356675 -38030618 -306775938 10607166 -1318371899 1686057291 1299468149 1372870412 396644745 -815249626 1329517039 -1569838606 -1476451295 1613506614
REM
CELL 1.54180   50.00000   50.00000   50.00000   90.00000   90.00000   90.00000
LATT -1
SFAC C  
C      1  0.5563260000000  0.5370730000000  0.4809340000000 1.0
C      1  0.4629080000000  0.5573170000000  0.5195420000000 1.0
C      1  0.4417270000000  0.4640220000000  0.4802120000000 1.0
C      1  0.5337690000000  0.4435270000000  0.5176260000000 1.0
C      1  0.5504040000000  0.4614600000000  0.5010980000000 1.0
C      1  0.5391730000000  0.5523350000000  0.4991480000000 1.0
C      1  0.4468800000000  0.5406850000000  0.5018870000000 1.0
C      1  0.4573790000000  0.4475320000000  0.4985400000000 1.0
C      1  0.5231020000000  0.4522460000000  0.5440830000000 1.0
C      1  0.5476440000000  0.5245530000000  0.4557790000000 1.0
C      1  0.4764610000000  0.5472320000000  0.5433450000000 1.0
C      1  0.4513760000000  0.4758350000000  0.4547970000000 1.0
C      1  0.4985120000000  0.4152970000000  0.5653850000000 1.0
C      1  0.5869160000000  0.5035190000000  0.4336190000000 1.0
C      1  0.4965920000000  0.5864840000000  0.5663070000000 1.0
C      1  0.4144440000000  0.5012040000000  0.4343700000000 1.0
C      1  0.5810300000000  0.5009160000000  0.5063120000000 1.0
C      1  0.4994350000000  0.5848180000000  0.4954280000000 1.0
C      1  0.4143110000000  0.5014490000000  0.5041680000000 1.0
C      1  0.4956920000000  0.4145140000000  0.4960040000000 1.0
C      1  0.4945920000000  0.5073730000000  0.5240630000000 1.0
C      1  0.4942250000000  0.4625620000000  0.4683250000000 1.0
C      1  0.5412540000000  0.4941240000000  0.5325130000000 1.0
C      1  0.5082660000000  0.5083940000000  0.4753630000000 1.0
C      1  0.4238910000000  0.5261020000000  0.5087790000000 1.0
C      1  0.4703710000000  0.4231650000000  0.4926340000000 1.0
C      1  0.5613710000000  0.4833350000000  0.5159470000000 1.0
C      1  0.5239900000000  0.5747620000000  0.4913880000000 1.0
C      1  0.5623790000000  0.5017790000000  0.4453460000000 1.0
C      1  0.4988170000000  0.5621330000000  0.5542960000000 1.0
C      1  0.4388040000000  0.5004410000000  0.4466380000000 1.0
C      1  0.4988610000000  0.4395730000000  0.5529570000000 1.0
C      1  0.5312630000000  0.5403950000000  0.5242690000000 1.0
C      1  0.4609630000000  0.5311860000000  0.4786550000000 1.0
C      1  0.4686970000000  0.4616140000000  0.5209970000000 1.0
C      1  0.5402590000000  0.4699480000000  0.4756390000000 1.0
C      1  0.4201830000000  0.4780230000000  0.4924940000000 1.0
C      1  0.5198030000000  0.4222520000000  0.5050130000000 1.0
C      1  0.5786850000000  0.5243330000000  0.4931270000000 1.0
C      1  0.4758030000000  0.5793320000000  0.5069490000000 1.0
C      1  0.4869320000000  0.5229380000000  0.4851070000000 1.0
C      1  0.4810200000000  0.4856320000000  0.5134780000000 1.0
C      1  0.5135060000000  0.4802710000000  0.4782600000000 1.0
C      1  0.5228210000000  0.5130840000000  0.5222190000000 1.0
C      1  0.4713260000000  0.4760570000000  0.5674980000000 1.0
C      1  0.5257750000000  0.4729420000000  0.4286870000000 1.0
C      1  0.5274130000000  0.5258710000000  0.5713530000000 1.0
C      1  0.4753330000000  0.5282000000000  0.4322310000000 1.0
C      1  0.5293840000000  0.4790290000000  0.5538300000000 1.0
C      1  0.5197050000000  0.5209810000000  0.4519960000000 1.0
C      1  0.4803450000000  0.5192190000000  0.5464350000000 1.0
C      1  0.4785550000000  0.4712340000000  0.4461270000000 1.0
C      1  0.4543510000000  0.5240450000000  0.4514960000000 1.0
C      1  0.4750710000000  0.4549800000000  0.5483580000000 1.0
C      1  0.5475820000000  0.4769530000000  0.4480540000000 1.0
C      1  0.5237480000000  0.5476500000000  0.5518800000000 1.0
C      1  0.4862340000000  0.5003010000000  0.5680160000000 1.0
C      1  0.4987810000000  0.4847760000000  0.4284230000000 1.0
C      1  0.5154610000000  0.4989120000000  0.5713420000000 1.0
C      1  0.5001010000000  0.5140820000000  0.4312330000000 1.0
END
