TITL C-2323492-8884-487 7.48137846716754e-07 125000 -358.045021762976 0 0 60 (C1) n - 1
REM
REM in /home/bkarasulu/CARBON/AIRSS/Generating-Clusters/LCBOP/Higher-Symm/Only-C60/SD-CG/FIRE-HFTN
REM
REM
REM
REM
REM
REM ./C.cell (50c204cfd26239f34c78669fe23a5462)
REM
REM compiler GCC version 9.2.1 20190827 (Red Hat 9.2.1-1)
REM options -cpp -mtune=generic -march=x86-64 -g -O0 -fpre-include=/usr/include/finclude/math-vector-fortran.h
REM seed -253253896 -1052509471 874008086 -1647563868 1390453112 2127553085 1316058415 967368505 304855114 -1473353221 -350189176 -2129715625 171563818 1855102351 -557145259 849742426 -1292896628 -1778670016 1631517746 -332747592 1568040399 -1512103749 2002565384 -566790344 613909644 -915891733 -467904691 -1795607801 1463045186 19291143 -1027347108 -1399220910 -885230726
REM
CELL 1.54180   50.00000   50.00000   50.00000   90.00000   90.00000   90.00000
LATT -1
SFAC C  
C      1  0.5456000000000  0.4372890000000  0.5059870000000 1.0
C      1  0.5311100000000  0.5706970000000  0.5075840000000 1.0
C      1  0.4219500000000  0.4917010000000  0.5045390000000 1.0
C      1  0.5506520000000  0.5261860000000  0.5422340000000 1.0
C      1  0.4501330000000  0.5276430000000  0.5413830000000 1.0
C      1  0.4994690000000  0.4474390000000  0.5430970000000 1.0
C      1  0.5550800000000  0.5685820000000  0.5199780000000 1.0
C      1  0.4112660000000  0.5129550000000  0.5174470000000 1.0
C      1  0.5325950000000  0.4194440000000  0.5216320000000 1.0
C      1  0.4830720000000  0.4339000000000  0.4650910000000 1.0
C      1  0.5662570000000  0.5178670000000  0.4631800000000 1.0
C      1  0.4516610000000  0.5489600000000  0.4635570000000 1.0
C      1  0.5101130000000  0.5507140000000  0.5006250000000 1.0
C      1  0.4500010000000  0.4838870000000  0.4984370000000 1.0
C      1  0.5390300000000  0.4653650000000  0.4986610000000 1.0
C      1  0.5216210000000  0.5229020000000  0.5045020000000 1.0
C      1  0.4683720000000  0.5078500000000  0.5022900000000 1.0
C      1  0.5091790000000  0.4700540000000  0.5023500000000 1.0
C      1  0.5241960000000  0.4542190000000  0.4161510000000 1.0
C      1  0.5274710000000  0.5440140000000  0.4168700000000 1.0
C      1  0.4482520000000  0.5019000000000  0.4175360000000 1.0
C      1  0.4864260000000  0.5519290000000  0.5192440000000 1.0
C      1  0.4610400000000  0.4639220000000  0.5181310000000 1.0
C      1  0.5523980000000  0.4847550000000  0.5173730000000 1.0
C      1  0.4257740000000  0.5350900000000  0.5274730000000 1.0
C      1  0.5059590000000  0.4217400000000  0.5309150000000 1.0
C      1  0.5680080000000  0.5448540000000  0.5284080000000 1.0
C      1  0.4723030000000  0.5010050000000  0.4304010000000 1.0
C      1  0.5131190000000  0.4752390000000  0.4295510000000 1.0
C      1  0.5149690000000  0.5235790000000  0.4299210000000 1.0
C      1  0.4456010000000  0.5790360000000  0.5212830000000 1.0
C      1  0.4583860000000  0.4153770000000  0.5232280000000 1.0
C      1  0.5963740000000  0.5065190000000  0.5193650000000 1.0
C      1  0.4875290000000  0.4163570000000  0.4851170000000 1.0
C      1  0.5797370000000  0.5314870000000  0.4821200000000 1.0
C      1  0.4330390000000  0.5540670000000  0.4823490000000 1.0
C      1  0.5860960000000  0.5314220000000  0.5099180000000 1.0
C      1  0.4293250000000  0.5583390000000  0.5103050000000 1.0
C      1  0.4848640000000  0.4119590000000  0.5132540000000 1.0
C      1  0.4716740000000  0.5276620000000  0.5222210000000 1.0
C      1  0.4894190000000  0.4641090000000  0.5216900000000 1.0
C      1  0.5386240000000  0.5092020000000  0.5222550000000 1.0
C      1  0.4751820000000  0.5002490000000  0.5774330000000 1.0
C      1  0.5006830000000  0.4879390000000  0.5769940000000 1.0
C      1  0.5234760000000  0.5045070000000  0.5795360000000 1.0
C      1  0.4735280000000  0.4590830000000  0.4562400000000 1.0
C      1  0.5489160000000  0.4968880000000  0.4554800000000 1.0
C      1  0.4785350000000  0.5436290000000  0.4564670000000 1.0
C      1  0.4855440000000  0.4761740000000  0.4368850000000 1.0
C      1  0.5280030000000  0.4989760000000  0.4363300000000 1.0
C      1  0.4871130000000  0.5245120000000  0.4371910000000 1.0
C      1  0.4988400000000  0.5540120000000  0.4732460000000 1.0
C      1  0.4533230000000  0.4713570000000  0.4717680000000 1.0
C      1  0.5481300000000  0.4736130000000  0.4715610000000 1.0
C      1  0.4723770000000  0.5759280000000  0.5248110000000 1.0
C      1  0.4473110000000  0.4401220000000  0.5250970000000 1.0
C      1  0.5803730000000  0.4847080000000  0.5221330000000 1.0
C      1  0.5030850000000  0.4612660000000  0.5672890000000 1.0
C      1  0.5417080000000  0.5207410000000  0.5682060000000 1.0
C      1  0.4561270000000  0.5150800000000  0.5656850000000 1.0
END
