TITL C-2323484-8600-237 2.43278121544751e-06 125000 -364.699458768957 0 0 60 (D5h) n - 1
REM
REM in /home/bkarasulu/CARBON/AIRSS/Generating-Clusters/LCBOP/Higher-Symm/Only-C60/SD-CG/FIRE-HFTN
REM
REM
REM
REM
REM
REM ./C.cell (50c204cfd26239f34c78669fe23a5462)
REM
REM compiler GCC version 9.2.1 20190827 (Red Hat 9.2.1-1)
REM options -cpp -mtune=generic -march=x86-64 -g -O0 -fpre-include=/usr/include/finclude/math-vector-fortran.h
REM seed 696742581 1094585483 1301900043 1918706928 -1712125572 -871267782 625120861 -1027243633 1650445275 1503906473 898075844 153252044 1023702578 -2010985373 1114784442 1388520681 1399031314 1258276719 988538482 -885350406 -5938264 -1503523274 1345431862 -2096906785 -268010476 1673601416 -1426428949 -827919547 -1837396267 1544671864 -905547589 1889343880 8678395
REM
CELL 1.54180   50.00000   50.00000   50.00000   90.00000   90.00000   90.00000
LATT -1
SFAC C  
C      1  0.5000000000000  0.5319880000000  0.5895310000000 1.0
C      1  0.5000000000000  0.4247360000000  0.5580890000000 1.0
C      1  0.5000000000000  0.4214960000000  0.4463700000000 1.0
C      1  0.5000000000000  0.5267460000000  0.4087660000000 1.0
C      1  0.5000000000000  0.5950340000000  0.4972440000000 1.0
C      1  0.5000000000000  0.4680120000000  0.5895310000000 1.0
C      1  0.5000000000000  0.5752640000000  0.5580890000000 1.0
C      1  0.5000000000000  0.5785040000000  0.4463700000000 1.0
C      1  0.5000000000000  0.4732530000000  0.4087660000000 1.0
C      1  0.5000000000000  0.4049660000000  0.4972450000000 1.0
C      1  0.4473070000000  0.5496460000000  0.5161310000000 1.0
C      1  0.4473070000000  0.5000000000000  0.5522010000000 1.0
C      1  0.4473080000000  0.4503540000000  0.5161310000000 1.0
C      1  0.4473080000000  0.4693170000000  0.4577690000000 1.0
C      1  0.4473070000000  0.5306830000000  0.4577680000000 1.0
C      1  0.5526930000000  0.4503540000000  0.5161310000000 1.0
C      1  0.5526920000000  0.5000000000000  0.5522010000000 1.0
C      1  0.5526920000000  0.5496460000000  0.5161310000000 1.0
C      1  0.5526920000000  0.5306830000000  0.4577690000000 1.0
C      1  0.5526930000000  0.4693170000000  0.4577690000000 1.0
C      1  0.4630680000000  0.5000000000000  0.5752710000000 1.0
C      1  0.4630680000000  0.4284130000000  0.5232600000000 1.0
C      1  0.4630680000000  0.4557560000000  0.4391040000000 1.0
C      1  0.4630680000000  0.5442430000000  0.4391040000000 1.0
C      1  0.4630680000000  0.5715870000000  0.5232600000000 1.0
C      1  0.5369320000000  0.5000000000000  0.5752710000000 1.0
C      1  0.5369320000000  0.5715870000000  0.5232600000000 1.0
C      1  0.5369320000000  0.5442430000000  0.4391040000000 1.0
C      1  0.5369320000000  0.4557570000000  0.4391050000000 1.0
C      1  0.5369320000000  0.4284130000000  0.5232600000000 1.0
C      1  0.4431960000000  0.5000000000000  0.5247100000000 1.0
C      1  0.4431960000000  0.4764990000000  0.5076360000000 1.0
C      1  0.4431960000000  0.4854760000000  0.4800090000000 1.0
C      1  0.4431960000000  0.5145240000000  0.4800090000000 1.0
C      1  0.4431950000000  0.5235000000000  0.5076360000000 1.0
C      1  0.5568040000000  0.5000000000000  0.5247100000000 1.0
C      1  0.5568040000000  0.5235010000000  0.5076360000000 1.0
C      1  0.5568040000000  0.5145240000000  0.4800090000000 1.0
C      1  0.5568050000000  0.4854760000000  0.4800090000000 1.0
C      1  0.5568040000000  0.4765000000000  0.5076360000000 1.0
C      1  0.4748610000000  0.5691540000000  0.4451990000000 1.0
C      1  0.4748610000000  0.5734890000000  0.5488350000000 1.0
C      1  0.4748610000000  0.4762650000000  0.5849830000000 1.0
C      1  0.4748620000000  0.4118420000000  0.5036870000000 1.0
C      1  0.4748620000000  0.4692510000000  0.4172960000000 1.0
C      1  0.5251390000000  0.4308460000000  0.4451990000000 1.0
C      1  0.5251390000000  0.4265120000000  0.5488350000000 1.0
C      1  0.5251380000000  0.5237360000000  0.5849830000000 1.0
C      1  0.5251380000000  0.5881580000000  0.5036870000000 1.0
C      1  0.5251390000000  0.5307490000000  0.4172960000000 1.0
C      1  0.5251390000000  0.4692510000000  0.4172960000000 1.0
C      1  0.5251380000000  0.5691540000000  0.4451990000000 1.0
C      1  0.5251380000000  0.5734890000000  0.5488350000000 1.0
C      1  0.5251380000000  0.4762650000000  0.5849830000000 1.0
C      1  0.5251390000000  0.4118420000000  0.5036880000000 1.0
C      1  0.4748620000000  0.5307490000000  0.4172960000000 1.0
C      1  0.4748620000000  0.4308460000000  0.4451990000000 1.0
C      1  0.4748620000000  0.4265110000000  0.5488350000000 1.0
C      1  0.4748610000000  0.5237360000000  0.5849830000000 1.0
C      1  0.4748610000000  0.5881580000000  0.5036870000000 1.0
END
