TITL C-2323488-8613-533 -1.01416392995051e-06 125000 -369.318206294613 0 0 60 (C1) n - 1
REM
REM in /home/bkarasulu/CARBON/AIRSS/Generating-Clusters/LCBOP/Higher-Symm/Only-C60/SD-CG/FIRE-HFTN
REM
REM
REM
REM
REM
REM ./C.cell (50c204cfd26239f34c78669fe23a5462)
REM
REM compiler GCC version 9.2.1 20190827 (Red Hat 9.2.1-1)
REM options -cpp -mtune=generic -march=x86-64 -g -O0 -fpre-include=/usr/include/finclude/math-vector-fortran.h
REM seed -1235540064 -218424504 -1014534306 832822420 365383356 -770547345 803023954 1097653138 -1434681067 363683760 -629943732 -562631232 1236846301 -359064976 -1674674916 -1515634428 992121647 1622818062 -805144418 -1745558963 1175942348 -604678549 -1002994036 1703628921 -235911476 -2037056394 -1944559684 323402314 359581083 -1558430392 1823144611 2062648494 -1698521168
REM
CELL 1.54180   50.00000   50.00000   50.00000   90.00000   90.00000   90.00000
LATT -1
SFAC C  
C      1  0.5555440000000  0.5409700000000  0.4915160000000 1.0
C      1  0.4654920000000  0.5407960000000  0.4607370000000 1.0
C      1  0.4802380000000  0.5400660000000  0.5534770000000 1.0
C      1  0.5508700000000  0.5371320000000  0.5610000000000 1.0
C      1  0.5181480000000  0.5335300000000  0.4248980000000 1.0
C      1  0.4173240000000  0.5363190000000  0.5168510000000 1.0
C      1  0.5522800000000  0.4779370000000  0.4499320000000 1.0
C      1  0.4359860000000  0.4819970000000  0.4726700000000 1.0
C      1  0.5152160000000  0.4776100000000  0.5711280000000 1.0
C      1  0.5128240000000  0.4594140000000  0.4358410000000 1.0
C      1  0.4416620000000  0.4660310000000  0.5177230000000 1.0
C      1  0.5476240000000  0.4656380000000  0.5399920000000 1.0
C      1  0.5434490000000  0.4347800000000  0.4697720000000 1.0
C      1  0.4542170000000  0.4355180000000  0.4780650000000 1.0
C      1  0.5051100000000  0.4365950000000  0.5471460000000 1.0
C      1  0.5373740000000  0.4961050000000  0.5743120000000 1.0
C      1  0.5432710000000  0.4950030000000  0.4278910000000 1.0
C      1  0.4193700000000  0.4977030000000  0.4912330000000 1.0
C      1  0.4580190000000  0.4925040000000  0.4554810000000 1.0
C      1  0.4924700000000  0.4936680000000  0.5630090000000 1.0
C      1  0.5503880000000  0.4935570000000  0.4743130000000 1.0
C      1  0.5016760000000  0.5009830000000  0.4706580000000 1.0
C      1  0.4858110000000  0.5021010000000  0.5151100000000 1.0
C      1  0.5152890000000  0.5015570000000  0.5118480000000 1.0
C      1  0.5459660000000  0.4623990000000  0.5119570000000 1.0
C      1  0.4904280000000  0.4560270000000  0.4526110000000 1.0
C      1  0.4644410000000  0.4626720000000  0.5340600000000 1.0
C      1  0.4784470000000  0.4870210000000  0.5387810000000 1.0
C      1  0.5361680000000  0.4855820000000  0.4984990000000 1.0
C      1  0.4832110000000  0.4809020000000  0.4638860000000 1.0
C      1  0.5694790000000  0.5294200000000  0.5147720000000 1.0
C      1  0.4695350000000  0.5177990000000  0.4414190000000 1.0
C      1  0.4523690000000  0.5299280000000  0.5509550000000 1.0
C      1  0.4986660000000  0.5225620000000  0.5675000000000 1.0
C      1  0.5462540000000  0.5229990000000  0.4669180000000 1.0
C      1  0.4488090000000  0.5292000000000  0.4819940000000 1.0
C      1  0.4833950000000  0.5584120000000  0.4779730000000 1.0
C      1  0.4917330000000  0.5557900000000  0.5311360000000 1.0
C      1  0.5311570000000  0.5584170000000  0.4976310000000 1.0
C      1  0.5140240000000  0.4865990000000  0.4229060000000 1.0
C      1  0.4270140000000  0.4913990000000  0.5205890000000 1.0
C      1  0.5573380000000  0.4914440000000  0.5516860000000 1.0
C      1  0.5112070000000  0.5531610000000  0.4765590000000 1.0
C      1  0.4775550000000  0.5520550000000  0.5068600000000 1.0
C      1  0.5195940000000  0.5518740000000  0.5238380000000 1.0
C      1  0.4792730000000  0.4393810000000  0.5396530000000 1.0
C      1  0.5480350000000  0.4392450000000  0.4960520000000 1.0
C      1  0.4752530000000  0.4341330000000  0.4611830000000 1.0
C      1  0.4685160000000  0.5241030000000  0.5037620000000 1.0
C      1  0.5250940000000  0.5239210000000  0.5259050000000 1.0
C      1  0.5159980000000  0.5252260000000  0.4709400000000 1.0
C      1  0.4305560000000  0.5179050000000  0.5357960000000 1.0
C      1  0.5653510000000  0.5190690000000  0.5417120000000 1.0
C      1  0.4963040000000  0.5126410000000  0.4254030000000 1.0
C      1  0.5242990000000  0.4555760000000  0.5549250000000 1.0
C      1  0.5383620000000  0.4527110000000  0.4487510000000 1.0
C      1  0.4421620000000  0.4580810000000  0.4896070000000 1.0
C      1  0.4219130000000  0.5267020000000  0.4900430000000 1.0
C      1  0.5279210000000  0.5244410000000  0.5738480000000 1.0
C      1  0.5445170000000  0.5236910000000  0.4352840000000 1.0
END
