TITL C-2323485-8600-102 4.6158866782574e-06 125000 -353.994082647794 0 0 60 (Cs) n - 1
REM
REM in /home/bkarasulu/CARBON/AIRSS/Generating-Clusters/LCBOP/Higher-Symm/Only-C60/SD-CG/FIRE-HFTN
REM
REM
REM
REM
REM
REM ./C.cell (50c204cfd26239f34c78669fe23a5462)
REM
REM compiler GCC version 9.2.1 20190827 (Red Hat 9.2.1-1)
REM options -cpp -mtune=generic -march=x86-64 -g -O0 -fpre-include=/usr/include/finclude/math-vector-fortran.h
REM seed -1360760711 -1939669976 -82717168 340041890 2003034117 1175539572 1033237587 1441047504 697048223 -201613639 1202206930 -1106246282 911722951 2106566939 55318417 58367633 -1630504896 -902037352 966887218 2124706596 -1921464823 637954014 -1540800960 102863160 -1004274678 2078050349 2073405596 -831871893 -2097480332 1319162428 -1015470996 -1677395509 2143993935
REM
CELL 1.54180   50.00000   50.00000   50.00000   90.00000   90.00000   90.00000
LATT -1
SFAC C  
C      1  0.5142820000000  0.5307770000000  0.5363200000000 1.0
C      1  0.4856500000000  0.4693440000000  0.5354900000000 1.0
C      1  0.5142660000000  0.5307830000000  0.4636790000000 1.0
C      1  0.4856350000000  0.4693500000000  0.4645110000000 1.0
C      1  0.5142800000000  0.4694190000000  0.5330490000000 1.0
C      1  0.4857420000000  0.5306600000000  0.5335390000000 1.0
C      1  0.5142660000000  0.4694250000000  0.4669400000000 1.0
C      1  0.4857280000000  0.5306660000000  0.4664720000000 1.0
C      1  0.4417080000000  0.5121390000000  0.5351010000000 1.0
C      1  0.5583380000000  0.4879680000000  0.5345590000000 1.0
C      1  0.4416940000000  0.5121450000000  0.4649250000000 1.0
C      1  0.5583240000000  0.4879740000000  0.4654150000000 1.0
C      1  0.4290660000000  0.4872510000000  0.5304920000000 1.0
C      1  0.5705300000000  0.5129150000000  0.5290740000000 1.0
C      1  0.4290530000000  0.4872560000000  0.4695350000000 1.0
C      1  0.5705170000000  0.5129200000000  0.4708980000000 1.0
C      1  0.5627780000000  0.4668650000000  0.5152590000000 1.0
C      1  0.4374790000000  0.5328860000000  0.5153250000000 1.0
C      1  0.5627720000000  0.4668670000000  0.4847090000000 1.0
C      1  0.4374730000000  0.5328890000000  0.4847070000000 1.0
C      1  0.5677300000000  0.5368540000000  0.5143340000000 1.0
C      1  0.4312290000000  0.4642030000000  0.5148540000000 1.0
C      1  0.5677240000000  0.5368560000000  0.4856440000000 1.0
C      1  0.4312230000000  0.4642060000000  0.4851690000000 1.0
C      1  0.5524570000000  0.5577980000000  0.5261640000000 1.0
C      1  0.4489400000000  0.4427040000000  0.5200090000000 1.0
C      1  0.5524460000000  0.5578020000000  0.4738240000000 1.0
C      1  0.4489310000000  0.4427070000000  0.4800030000000 1.0
C      1  0.5496200000000  0.4411530000000  0.5195920000000 1.0
C      1  0.4505370000000  0.5587660000000  0.5195630000000 1.0
C      1  0.5496110000000  0.4411560000000  0.4803780000000 1.0
C      1  0.4505290000000  0.5587690000000  0.4804680000000 1.0
C      1  0.4750720000000  0.4432910000000  0.5283570000000 1.0
C      1  0.5249170000000  0.5572180000000  0.5305940000000 1.0
C      1  0.4750600000000  0.4432960000000  0.4716440000000 1.0
C      1  0.5249040000000  0.5572230000000  0.4694050000000 1.0
C      1  0.4767970000000  0.5579770000000  0.5276470000000 1.0
C      1  0.5232620000000  0.4420490000000  0.5273410000000 1.0
C      1  0.4767850000000  0.5579820000000  0.4723720000000 1.0
C      1  0.5232500000000  0.4420530000000  0.4726400000000 1.0
C      1  0.4929660000000  0.4759300000000  0.5811450000000 1.0
C      1  0.5069670000000  0.5230640000000  0.5817160000000 1.0
C      1  0.4929320000000  0.4759440000000  0.4188540000000 1.0
C      1  0.5069330000000  0.5230780000000  0.4182850000000 1.0
C      1  0.4790650000000  0.5251910000000  0.5792250000000 1.0
C      1  0.5209030000000  0.4739650000000  0.5787740000000 1.0
C      1  0.4790310000000  0.5252040000000  0.4207880000000 1.0
C      1  0.5208700000000  0.4739790000000  0.4212120000000 1.0
C      1  0.5229180000000  0.5155570000000  0.5583030000000 1.0
C      1  0.4770270000000  0.4839800000000  0.5578820000000 1.0
C      1  0.5228930000000  0.5155660000000  0.4416900000000 1.0
C      1  0.4770030000000  0.4839890000000  0.4421250000000 1.0
C      1  0.5318840000000  0.4866520000000  0.5522990000000 1.0
C      1  0.4681100000000  0.5131140000000  0.5525400000000 1.0
C      1  0.5318620000000  0.4866610000000  0.4476850000000 1.0
C      1  0.4680880000000  0.5131230000000  0.4474760000000 1.0
C      1  0.5011730000000  0.5735250000000  0.4725280000000 1.0
C      1  0.4987960000000  0.4266970000000  0.5265460000000 1.0
C      1  0.4987850000000  0.4267010000000  0.4734430000000 1.0
C      1  0.5011850000000  0.5735200000000  0.5274840000000 1.0
END
