TITL C-2323479-8056-445 2.25163581589329e-05 125000 -350.174607562858 0 0 60 (C1) n - 1
REM
REM in /home/bkarasulu/CARBON/AIRSS/Generating-Clusters/LCBOP/Higher-Symm/Only-C60/SD-CG/FIRE-HFTN
REM
REM
REM
REM
REM
REM ./C.cell (50c204cfd26239f34c78669fe23a5462)
REM
REM compiler GCC version 9.2.1 20190827 (Red Hat 9.2.1-1)
REM options -cpp -mtune=generic -march=x86-64 -g -O0 -fpre-include=/usr/include/finclude/math-vector-fortran.h
REM seed 1567283531 -820096483 1476571606 -1204943358 1971357939 1471264229 -2066125424 829598493 -1942718319 1099621148 -755226292 -1315097996 1271253848 1826501501 -1569302246 1812872705 -1653093371 -1077701751 -1398768643 1110607348 204487283 -1659086856 1001737462 1134787542 1608035403 367443994 -544837717 1348474855 1928239479 1348370769 1153551072 -649419721 -1060350335
REM
CELL 1.54180   50.00000   50.00000   50.00000   90.00000   90.00000   90.00000
LATT -1
SFAC C  
C      1  0.5172020000000  0.5888200000000  0.4355290000000 1.0
C      1  0.5636950000000  0.4751300000000  0.4778850000000 1.0
C      1  0.4807320000000  0.4685750000000  0.5726310000000 1.0
C      1  0.5205670000000  0.5628000000000  0.5248750000000 1.0
C      1  0.5220010000000  0.4383450000000  0.4726870000000 1.0
C      1  0.4771020000000  0.4217250000000  0.5339410000000 1.0
C      1  0.4385860000000  0.4662990000000  0.5390740000000 1.0
C      1  0.4219710000000  0.5154810000000  0.4941370000000 1.0
C      1  0.5643420000000  0.5215490000000  0.5267690000000 1.0
C      1  0.5243520000000  0.4778040000000  0.4360340000000 1.0
C      1  0.5257310000000  0.5200110000000  0.5655370000000 1.0
C      1  0.4970170000000  0.5313850000000  0.4154890000000 1.0
C      1  0.4728780000000  0.4337860000000  0.4771300000000 1.0
C      1  0.5671950000000  0.5243900000000  0.4789600000000 1.0
C      1  0.4789150000000  0.5183030000000  0.5719100000000 1.0
C      1  0.5175940000000  0.4395310000000  0.5206500000000 1.0
C      1  0.5305560000000  0.5636710000000  0.4742360000000 1.0
C      1  0.4704040000000  0.5617030000000  0.5338440000000 1.0
C      1  0.4313200000000  0.5154410000000  0.5413000000000 1.0
C      1  0.4267490000000  0.4649130000000  0.4927750000000 1.0
C      1  0.5643900000000  0.4722420000000  0.5250970000000 1.0
C      1  0.5424230000000  0.5229020000000  0.4259180000000 1.0
C      1  0.5276750000000  0.4705090000000  0.5669440000000 1.0
C      1  0.4815520000000  0.4818720000000  0.4169150000000 1.0
C      1  0.5038530000000  0.4317630000000  0.5458050000000 1.0
C      1  0.5229740000000  0.5640570000000  0.4462770000000 1.0
C      1  0.5577640000000  0.4595080000000  0.5006540000000 1.0
C      1  0.4317200000000  0.5308430000000  0.5168570000000 1.0
C      1  0.4954530000000  0.4453730000000  0.4612740000000 1.0
C      1  0.4429780000000  0.4533870000000  0.5138750000000 1.0
C      1  0.4842760000000  0.5081550000000  0.4091640000000 1.0
C      1  0.4979320000000  0.5559510000000  0.5429330000000 1.0
C      1  0.5592290000000  0.5371440000000  0.5036150000000 1.0
C      1  0.5388120000000  0.4955870000000  0.5594320000000 1.0
C      1  0.5446160000000  0.4979580000000  0.4390270000000 1.0
C      1  0.4663070000000  0.4929150000000  0.5685500000000 1.0
C      1  0.4426970000000  0.4913700000000  0.5520910000000 1.0
C      1  0.5208170000000  0.5412800000000  0.4281830000000 1.0
C      1  0.5361900000000  0.4405430000000  0.4984790000000 1.0
C      1  0.5523810000000  0.5005760000000  0.4678120000000 1.0
C      1  0.5585750000000  0.4963990000000  0.5387740000000 1.0
C      1  0.4328270000000  0.4912950000000  0.4829490000000 1.0
C      1  0.4939740000000  0.4722360000000  0.4434600000000 1.0
C      1  0.5042080000000  0.4542040000000  0.5650430000000 1.0
C      1  0.4701330000000  0.4392730000000  0.5079240000000 1.0
C      1  0.4520710000000  0.5524110000000  0.5127080000000 1.0
C      1  0.5377730000000  0.5569790000000  0.5016560000000 1.0
C      1  0.5010970000000  0.5338100000000  0.5624330000000 1.0
C      1  0.4654760000000  0.5521650000000  0.4867700000000 1.0
C      1  0.5247580000000  0.5059630000000  0.4790700000000 1.0
C      1  0.4754700000000  0.5172330000000  0.5227070000000 1.0
C      1  0.4961930000000  0.4554920000000  0.5099860000000 1.0
C      1  0.4611920000000  0.4925580000000  0.4811730000000 1.0
C      1  0.4818090000000  0.4942910000000  0.4615540000000 1.0
C      1  0.4992580000000  0.5275350000000  0.5099520000000 1.0
C      1  0.5000200000000  0.5161660000000  0.4664130000000 1.0
C      1  0.4975840000000  0.4820850000000  0.5099500000000 1.0
C      1  0.4896440000000  0.5374810000000  0.4834860000000 1.0
C      1  0.4716400000000  0.4934590000000  0.5079540000000 1.0
C      1  0.5164120000000  0.5032340000000  0.5061530000000 1.0
END
