TITL C-2323480-5884-272 1.68886377619012e-05 125000 -356.139423884541 0 0 60 (C4h) n - 1
REM
REM in /home/bkarasulu/CARBON/AIRSS/Generating-Clusters/LCBOP/Higher-Symm/Only-C60/SD-CG/FIRE-HFTN
REM
REM
REM
REM
REM
REM ./C.cell (50c204cfd26239f34c78669fe23a5462)
REM
REM compiler GCC version 9.2.1 20190827 (Red Hat 9.2.1-1)
REM options -cpp -mtune=generic -march=x86-64 -g -O0 -fpre-include=/usr/include/finclude/math-vector-fortran.h
REM seed -1255136865 1602050714 765516079 1149418852 -547438648 583260768 53353881 2103422501 -721518611 -249347597 -775834664 759572240 -855101057 1304259440 -387233634 122364624 544603260 -465847574 -1731919162 -1351501370 -1337561223 -597949769 662682755 -1365648194 -1808652166 -1292143811 -773387929 1735721983 -586725966 -1403199232 -2082059173 1365533127 1394386962
REM
CELL 1.54180   50.00000   50.00000   50.00000   90.00000   90.00000   90.00000
LATT -1
SFAC C  
C      1  0.4764790000000  0.6016730000000  0.5063680000000 1.0
C      1  0.4764740000000  0.5063690000000  0.3983280000000 1.0
C      1  0.4764720000000  0.3983280000000  0.4936320000000 1.0
C      1  0.4764760000000  0.4936330000000  0.6016730000000 1.0
C      1  0.5218150000000  0.6016720000000  0.5063680000000 1.0
C      1  0.5218110000000  0.5063670000000  0.3983270000000 1.0
C      1  0.5218080000000  0.3983270000000  0.4936320000000 1.0
C      1  0.5218120000000  0.4936310000000  0.6016720000000 1.0
C      1  0.5126920000000  0.4482250000000  0.4374410000000 1.0
C      1  0.5126920000000  0.4374410000000  0.5517750000000 1.0
C      1  0.5126960000000  0.5517740000000  0.5625580000000 1.0
C      1  0.5126960000000  0.5625580000000  0.4482250000000 1.0
C      1  0.4855900000000  0.4482260000000  0.4374420000000 1.0
C      1  0.4855910000000  0.4374420000000  0.5517750000000 1.0
C      1  0.4855950000000  0.5517750000000  0.5625590000000 1.0
C      1  0.4855940000000  0.5625590000000  0.4482250000000 1.0
C      1  0.4699600000000  0.4584930000000  0.5626160000000 1.0
C      1  0.4699630000000  0.5626160000000  0.5415090000000 1.0
C      1  0.4699620000000  0.5415090000000  0.4373850000000 1.0
C      1  0.4699580000000  0.4373860000000  0.4584920000000 1.0
C      1  0.5283250000000  0.4584910000000  0.5626150000000 1.0
C      1  0.5283280000000  0.5626140000000  0.5415080000000 1.0
C      1  0.5283270000000  0.5415070000000  0.4373840000000 1.0
C      1  0.5283230000000  0.4373840000000  0.4584910000000 1.0
C      1  0.4840460000000  0.4750500000000  0.5807410000000 1.0
C      1  0.4840490000000  0.5807410000000  0.5249510000000 1.0
C      1  0.4840470000000  0.5249520000000  0.4192600000000 1.0
C      1  0.4840430000000  0.4192600000000  0.4750490000000 1.0
C      1  0.5142400000000  0.4750480000000  0.5807400000000 1.0
C      1  0.5142430000000  0.5807400000000  0.5249510000000 1.0
C      1  0.5142400000000  0.5249500000000  0.4192590000000 1.0
C      1  0.5142370000000  0.4192590000000  0.4750490000000 1.0
C      1  0.4455840000000  0.5341170000000  0.4485910000000 1.0
C      1  0.4455810000000  0.4485920000000  0.4658850000000 1.0
C      1  0.4455820000000  0.4658870000000  0.5514100000000 1.0
C      1  0.4455850000000  0.5514110000000  0.5341160000000 1.0
C      1  0.5527040000000  0.5341130000000  0.4485900000000 1.0
C      1  0.5527010000000  0.4485890000000  0.4658840000000 1.0
C      1  0.5527030000000  0.4658830000000  0.5514090000000 1.0
C      1  0.5527050000000  0.5514080000000  0.5341150000000 1.0
C      1  0.5672040000000  0.4790770000000  0.5315270000000 1.0
C      1  0.5672060000000  0.5315250000000  0.5209200000000 1.0
C      1  0.5672050000000  0.5209180000000  0.4684720000000 1.0
C      1  0.5672040000000  0.4684700000000  0.4790790000000 1.0
C      1  0.4310810000000  0.4790820000000  0.5315280000000 1.0
C      1  0.4310830000000  0.5315300000000  0.5209210000000 1.0
C      1  0.4310820000000  0.5209230000000  0.4684730000000 1.0
C      1  0.4310800000000  0.4684750000000  0.4790800000000 1.0
C      1  0.5718160000000  0.5067220000000  0.5332530000000 1.0
C      1  0.5718170000000  0.5332510000000  0.4932740000000 1.0
C      1  0.5718150000000  0.4932730000000  0.4667460000000 1.0
C      1  0.5718150000000  0.4667440000000  0.5067240000000 1.0
C      1  0.4264710000000  0.5067270000000  0.5332540000000 1.0
C      1  0.4264720000000  0.5332560000000  0.4932760000000 1.0
C      1  0.4264700000000  0.4932780000000  0.4667470000000 1.0
C      1  0.4264700000000  0.4667490000000  0.5067260000000 1.0
C      1  0.4991440000000  0.5042690000000  0.6136880000000 1.0
C      1  0.4991470000000  0.6136880000000  0.4957310000000 1.0
C      1  0.4991420000000  0.4957310000000  0.3863120000000 1.0
C      1  0.4991390000000  0.3863120000000  0.5042690000000 1.0
END
