TITL C-2323488-8613-3 454.53222652265 125000 -354.320717493619 0 0 60 (C1) n - 1
REM
REM in /home/bkarasulu/CARBON/AIRSS/Generating-Clusters/LCBOP/Higher-Symm/Only-C60/SD-CG/FIRE-HFTN
REM
REM
REM
REM
REM
REM ./C.cell (50c204cfd26239f34c78669fe23a5462)
REM
REM compiler GCC version 9.2.1 20190827 (Red Hat 9.2.1-1)
REM options -cpp -mtune=generic -march=x86-64 -g -O0 -fpre-include=/usr/include/finclude/math-vector-fortran.h
REM seed -340374934 351133975 164518169 887668433 -1128162588 -1398473786 -1600941406 1124845561 1669036964 1212229008 1560224264 32775258 1282359560 303815107 1565778163 608854455 659244284 -829572741 -1991670833 205326183 -1370726667 -1175136000 -1164075550 709845083 65951396 342207191 464753293 -1118610809 -666938802 -1045936860 1347937713 1467670696 926706594
REM
CELL 1.54180   50.00000   50.00000   50.00000   90.00000   90.00000   90.00000
LATT -1
SFAC C  
C      1  0.4663190000000  0.4877230000000  0.5569330000000 1.0
C      1  0.5337910000000  0.5125790000000  0.5572900000000 1.0
C      1  0.4662040000000  0.5129590000000  0.4425540000000 1.0
C      1  0.5336530000000  0.4876410000000  0.4428960000000 1.0
C      1  0.4871810000000  0.4664980000000  0.5570590000000 1.0
C      1  0.5128000000000  0.5337360000000  0.5571760000000 1.0
C      1  0.5128970000000  0.4663060000000  0.4429160000000 1.0
C      1  0.4872310000000  0.5340020000000  0.4427970000000 1.0
C      1  0.5124690000000  0.5315570000000  0.5066280000000 1.0
C      1  0.4870940000000  0.4673050000000  0.5062860000000 1.0
C      1  0.5123760000000  0.4677190000000  0.4934750000000 1.0
C      1  0.4874300000000  0.5314970000000  0.4934700000000 1.0
C      1  0.5319460000000  0.5119610000000  0.5068500000000 1.0
C      1  0.4674760000000  0.4867690000000  0.5061340000000 1.0
C      1  0.4679740000000  0.5118350000000  0.4931090000000 1.0
C      1  0.5321780000000  0.4870210000000  0.4937090000000 1.0
C      1  0.5764670000000  0.4861130000000  0.5015330000000 1.0
C      1  0.4247220000000  0.5154030000000  0.5039910000000 1.0
C      1  0.5752150000000  0.5152880000000  0.4959630000000 1.0
C      1  0.4232900000000  0.4862420000000  0.4984190000000 1.0
C      1  0.4853800000000  0.5752680000000  0.5033640000000 1.0
C      1  0.5153650000000  0.4244450000000  0.5041330000000 1.0
C      1  0.5146000000000  0.5752610000000  0.4967170000000 1.0
C      1  0.4862100000000  0.4232200000000  0.4984540000000 1.0
C      1  0.5152010000000  0.5356160000000  0.4504020000000 1.0
C      1  0.4848420000000  0.4649460000000  0.4495260000000 1.0
C      1  0.5151600000000  0.4646790000000  0.5498930000000 1.0
C      1  0.4848070000000  0.5355680000000  0.5495810000000 1.0
C      1  0.5351650000000  0.5156830000000  0.4504150000000 1.0
C      1  0.4649200000000  0.4848770000000  0.4493310000000 1.0
C      1  0.4647870000000  0.5157190000000  0.5494520000000 1.0
C      1  0.5352000000000  0.4844740000000  0.5502180000000 1.0
C      1  0.5232660000000  0.5570820000000  0.5172500000000 1.0
C      1  0.4770130000000  0.4418910000000  0.5176780000000 1.0
C      1  0.5229570000000  0.4422080000000  0.4828260000000 1.0
C      1  0.4766800000000  0.5570650000000  0.4828640000000 1.0
C      1  0.5574810000000  0.5227090000000  0.5173220000000 1.0
C      1  0.4419890000000  0.4769440000000  0.5175690000000 1.0
C      1  0.4424820000000  0.5227170000000  0.4826220000000 1.0
C      1  0.5576610000000  0.4769730000000  0.4823900000000 1.0
C      1  0.4419930000000  0.4762090000000  0.5456190000000 1.0
C      1  0.5580630000000  0.5237800000000  0.5453630000000 1.0
C      1  0.4419520000000  0.5240480000000  0.4545930000000 1.0
C      1  0.5579030000000  0.4761610000000  0.4543540000000 1.0
C      1  0.4756510000000  0.4421830000000  0.5457070000000 1.0
C      1  0.5244210000000  0.5577680000000  0.5452720000000 1.0
C      1  0.5242250000000  0.4420630000000  0.4547720000000 1.0
C      1  0.4756510000000  0.5579570000000  0.4548470000000 1.0
C      1  0.5267670000000  0.5628480000000  0.4710470000000 1.0
C      1  0.4727870000000  0.4377540000000  0.4693390000000 1.0
C      1  0.5272170000000  0.4372620000000  0.5295450000000 1.0
C      1  0.4732320000000  0.5628920000000  0.5290270000000 1.0
C      1  0.5624150000000  0.5275800000000  0.4708000000000 1.0
C      1  0.4376870000000  0.4727750000000  0.4692500000000 1.0
C      1  0.4375590000000  0.5276570000000  0.5291530000000 1.0
C      1  0.5623750000000  0.4725330000000  0.5304870000000 1.0
C      1  0.5549530000000  0.5556560000000  0.4720800000000 1.0
C      1  0.5552510000000  0.4446410000000  0.5288390000000 1.0
C      1  0.4450350000000  0.5557340000000  0.5279670000000 1.0
C      1  0.4449810000000  0.4449990000000  0.4707430000000 1.0
END
