TITL C-2323491-8878-512 1.42932028479304e-05 125000 -362.337517177792 0 0 60 (C2h) n - 1
REM
REM in /home/bkarasulu/CARBON/AIRSS/Generating-Clusters/LCBOP/Higher-Symm/Only-C60/SD-CG/FIRE-HFTN
REM
REM
REM
REM
REM
REM ./C.cell (50c204cfd26239f34c78669fe23a5462)
REM
REM compiler GCC version 9.2.1 20190827 (Red Hat 9.2.1-1)
REM options -cpp -mtune=generic -march=x86-64 -g -O0 -fpre-include=/usr/include/finclude/math-vector-fortran.h
REM seed -41065301 -36896852 1600955947 300184074 -2091706121 1355620425 1688541406 -1079205730 1598685637 1870972234 2073827719 296337787 -164082311 811247849 808081504 -2138906549 -657282059 -539028520 -784389345 759066176 -690008028 -1721045899 686787130 -854482030 -2130400564 -1758186685 -1987375024 -941540894 744462184 160749997 708207410 -1472873938 -1818623527
REM
CELL 1.54180   50.00000   50.00000   50.00000   90.00000   90.00000   90.00000
LATT -1
SFAC C  
C      1  0.5001430000000  0.4169820000000  0.4752360000000 1.0
C      1  0.5150490000000  0.5799390000000  0.4800880000000 1.0
C      1  0.5238260000000  0.4169890000000  0.4931630000000 1.0
C      1  0.5237270000000  0.5820830000000  0.5077260000000 1.0
C      1  0.5139080000000  0.4179280000000  0.5207620000000 1.0
C      1  0.4998570000000  0.5830180000000  0.5247640000000 1.0
C      1  0.4849510000000  0.4200610000000  0.5199120000000 1.0
C      1  0.4761740000000  0.5830110000000  0.5068370000000 1.0
C      1  0.4762730000000  0.4179170000000  0.4922740000000 1.0
C      1  0.4860920000000  0.5820720000000  0.4792380000000 1.0
C      1  0.5263340000000  0.4652550000000  0.4908840000000 1.0
C      1  0.5226800000000  0.5302580000000  0.5109590000000 1.0
C      1  0.5167160000000  0.4697540000000  0.5188620000000 1.0
C      1  0.4983620000000  0.5347520000000  0.5278100000000 1.0
C      1  0.4854610000000  0.4706130000000  0.5192190000000 1.0
C      1  0.4736660000000  0.5347450000000  0.5091160000000 1.0
C      1  0.4773200000000  0.4697420000000  0.4890410000000 1.0
C      1  0.4832840000000  0.5302460000000  0.4811380000000 1.0
C      1  0.5016380000000  0.4652480000000  0.4721900000000 1.0
C      1  0.5145390000000  0.5293870000000  0.4807810000000 1.0
C      1  0.4976670000000  0.5539490000000  0.5712460000000 1.0
C      1  0.4585570000000  0.4502020000000  0.5547690000000 1.0
C      1  0.4320420000000  0.5539300000000  0.5215710000000 1.0
C      1  0.4339600000000  0.4468650000000  0.4753050000000 1.0
C      1  0.4582850000000  0.5531030000000  0.4431290000000 1.0
C      1  0.5023330000000  0.4460510000000  0.4287540000000 1.0
C      1  0.5414430000000  0.5497980000000  0.4452310000000 1.0
C      1  0.5679580000000  0.4460700000000  0.4784290000000 1.0
C      1  0.5660400000000  0.5531350000000  0.5246950000000 1.0
C      1  0.5417150000000  0.4468970000000  0.5568710000000 1.0
C      1  0.4739890000000  0.5633910000000  0.4630100000000 1.0
C      1  0.5005360000000  0.4385410000000  0.4563940000000 1.0
C      1  0.5250210000000  0.5569360000000  0.4669230000000 1.0
C      1  0.5418460000000  0.4385530000000  0.4876630000000 1.0
C      1  0.5426380000000  0.5634110000000  0.5149740000000 1.0
C      1  0.5260110000000  0.4366090000000  0.5369900000000 1.0
C      1  0.4994640000000  0.5614590000000  0.5436060000000 1.0
C      1  0.4749790000000  0.4430640000000  0.5330770000000 1.0
C      1  0.4581540000000  0.5614470000000  0.5123370000000 1.0
C      1  0.4573620000000  0.4365890000000  0.4850260000000 1.0
C      1  0.4332790000000  0.4737140000000  0.4705630000000 1.0
C      1  0.4535460000000  0.5262530000000  0.4437690000000 1.0
C      1  0.5061040000000  0.4732290000000  0.4254670000000 1.0
C      1  0.5437310000000  0.5226560000000  0.4422180000000 1.0
C      1  0.5700870000000  0.4732480000000  0.4739000000000 1.0
C      1  0.5667210000000  0.5262860000000  0.5294370000000 1.0
C      1  0.5464540000000  0.4737470000000  0.5562310000000 1.0
C      1  0.4938960000000  0.5267710000000  0.5745330000000 1.0
C      1  0.4562690000000  0.4773440000000  0.5577820000000 1.0
C      1  0.4299130000000  0.5267520000000  0.5261000000000 1.0
C      1  0.4652700000000  0.5124330000000  0.4656710000000 1.0
C      1  0.5082910000000  0.4870830000000  0.4507180000000 1.0
C      1  0.5282870000000  0.5066260000000  0.4626280000000 1.0
C      1  0.5451860000000  0.4870940000000  0.4786460000000 1.0
C      1  0.5424630000000  0.5124560000000  0.5241030000000 1.0
C      1  0.5347300000000  0.4875670000000  0.5343290000000 1.0
C      1  0.4917090000000  0.5129170000000  0.5492820000000 1.0
C      1  0.4717130000000  0.4933740000000  0.5373720000000 1.0
C      1  0.4548140000000  0.5129060000000  0.5213540000000 1.0
C      1  0.4575370000000  0.4875440000000  0.4758970000000 1.0
END
