TITL C-2323483-8886-567 -4.17645617972039e-07 125000 -376.469329136303 0 0 60 (C1) n - 1
REM
REM in /home/bkarasulu/CARBON/AIRSS/Generating-Clusters/LCBOP/Higher-Symm/Only-C60/SD-CG/FIRE-HFTN
REM
REM
REM
REM
REM
REM ./C.cell (50c204cfd26239f34c78669fe23a5462)
REM
REM compiler GCC version 9.2.1 20190827 (Red Hat 9.2.1-1)
REM options -cpp -mtune=generic -march=x86-64 -g -O0 -fpre-include=/usr/include/finclude/math-vector-fortran.h
REM seed 1086715366 1766805981 1090550735 1990486813 -441755542 -1649918727 -709516600 -462518638 696408766 1194187566 -1365361872 241897258 318909879 2035776804 -118796878 -1065982998 -1722582780 71851341 2141147199 -57257686 -1515395984 -1102970971 -218226210 1020814599 1543878945 1602486509 176521111 -1814396413 273687568 194740055 -2114960615 -1925882944 -1661319393
REM
CELL 1.54180   50.00000   50.00000   50.00000   90.00000   90.00000   90.00000
LATT -1
SFAC C  
C      1  0.4615460000000  0.5354510000000  0.5534810000000 1.0
C      1  0.5379870000000  0.4466180000000  0.5339550000000 1.0
C      1  0.4614460000000  0.4641090000000  0.4460420000000 1.0
C      1  0.5387270000000  0.5539400000000  0.4643440000000 1.0
C      1  0.4860830000000  0.4927850000000  0.5573470000000 1.0
C      1  0.5134470000000  0.4413640000000  0.4931660000000 1.0
C      1  0.4860100000000  0.5067920000000  0.4425180000000 1.0
C      1  0.5142810000000  0.5590110000000  0.5071420000000 1.0
C      1  0.5300230000000  0.5071680000000  0.4646500000000 1.0
C      1  0.4702070000000  0.5362110000000  0.5067120000000 1.0
C      1  0.5312390000000  0.4938070000000  0.5376920000000 1.0
C      1  0.4697720000000  0.4628880000000  0.4928790000000 1.0
C      1  0.4366740000000  0.4666100000000  0.5253810000000 1.0
C      1  0.5624860000000  0.4738450000000  0.4672920000000 1.0
C      1  0.4368180000000  0.5330450000000  0.4743570000000 1.0
C      1  0.5640620000000  0.5265770000000  0.5335750000000 1.0
C      1  0.4353200000000  0.5206970000000  0.5446030000000 1.0
C      1  0.5629680000000  0.4555000000000  0.5189170000000 1.0
C      1  0.4351680000000  0.4789390000000  0.4550210000000 1.0
C      1  0.5654050000000  0.5453440000000  0.4792570000000 1.0
C      1  0.5121320000000  0.4639390000000  0.4480190000000 1.0
C      1  0.4877620000000  0.5525880000000  0.4641190000000 1.0
C      1  0.5125470000000  0.5363100000000  0.5528760000000 1.0
C      1  0.4874880000000  0.4466240000000  0.5358820000000 1.0
C      1  0.4191550000000  0.5326720000000  0.5239100000000 1.0
C      1  0.5788640000000  0.4763870000000  0.5313560000000 1.0
C      1  0.4190190000000  0.4670020000000  0.4757700000000 1.0
C      1  0.5807270000000  0.5237740000000  0.4676520000000 1.0
C      1  0.5656470000000  0.4559030000000  0.4898440000000 1.0
C      1  0.4411890000000  0.5074440000000  0.4605850000000 1.0
C      1  0.5596890000000  0.5410440000000  0.5081880000000 1.0
C      1  0.4412550000000  0.4921830000000  0.5391190000000 1.0
C      1  0.4753530000000  0.5080870000000  0.5107180000000 1.0
C      1  0.5259020000000  0.4913970000000  0.5097640000000 1.0
C      1  0.4750690000000  0.4910860000000  0.4889530000000 1.0
C      1  0.5261690000000  0.5127830000000  0.4926620000000 1.0
C      1  0.4730730000000  0.5512120000000  0.5308430000000 1.0
C      1  0.5270500000000  0.4687820000000  0.5508170000000 1.0
C      1  0.4727290000000  0.4479040000000  0.4685520000000 1.0
C      1  0.5272000000000  0.5309180000000  0.4488620000000 1.0
C      1  0.5121210000000  0.5648960000000  0.4781660000000 1.0
C      1  0.4880160000000  0.5215670000000  0.5642880000000 1.0
C      1  0.5118640000000  0.4341620000000  0.5217340000000 1.0
C      1  0.4880420000000  0.4780980000000  0.4356860000000 1.0
C      1  0.5015320000000  0.5568100000000  0.5331900000000 1.0
C      1  0.4985500000000  0.4666330000000  0.5558920000000 1.0
C      1  0.5014750000000  0.4423260000000  0.4666430000000 1.0
C      1  0.4985690000000  0.5328240000000  0.4437310000000 1.0
C      1  0.5811440000000  0.5033830000000  0.5343360000000 1.0
C      1  0.4187420000000  0.4646960000000  0.5029580000000 1.0
C      1  0.5802000000000  0.4966260000000  0.4651320000000 1.0
C      1  0.4188830000000  0.5350850000000  0.4967420000000 1.0
C      1  0.4637340000000  0.5459570000000  0.4800910000000 1.0
C      1  0.5371870000000  0.5208080000000  0.5470500000000 1.0
C      1  0.4634440000000  0.4533390000000  0.5197070000000 1.0
C      1  0.5356490000000  0.4798920000000  0.4561170000000 1.0
C      1  0.4693660000000  0.5044140000000  0.4651400000000 1.0
C      1  0.5315540000000  0.5368020000000  0.5054950000000 1.0
C      1  0.4694830000000  0.4950550000000  0.5346340000000 1.0
C      1  0.5227550000000  0.4678900000000  0.4964500000000 1.0
END
