TITL C-2323486-8761-33 3.80262575937295e-07 125000 -372.292865209028 0 0 60 (C2v) n - 1
REM
REM in /home/bkarasulu/CARBON/AIRSS/Generating-Clusters/LCBOP/Higher-Symm/Only-C60/SD-CG/FIRE-HFTN
REM
REM
REM
REM
REM
REM ./C.cell (50c204cfd26239f34c78669fe23a5462)
REM
REM compiler GCC version 9.2.1 20190827 (Red Hat 9.2.1-1)
REM options -cpp -mtune=generic -march=x86-64 -g -O0 -fpre-include=/usr/include/finclude/math-vector-fortran.h
REM seed 1591319433 -212193655 179490008 -1217171080 1109732878 -415756749 -340587849 712272397 1193427384 322760614 2052806107 -739269361 -1765082155 -1075072243 -1594259617 223374003 1021241563 -665644622 -328560052 1836326938 508518673 -1317236829 -1297456249 45852283 249987387 545104996 -994004869 -1390830780 -1263526336 1545107549 1301025223 -1794969187 -1963319459
REM
CELL 1.54180   50.00000   50.00000   50.00000   90.00000   90.00000   90.00000
LATT -1
SFAC C  
C      1  0.4736780000000  0.5380560000000  0.5754420000000 1.0
C      1  0.5262840000000  0.4619790000000  0.5754730000000 1.0
C      1  0.4659080000000  0.5289820000000  0.4331230000000 1.0
C      1  0.5341250000000  0.4709870000000  0.4331530000000 1.0
C      1  0.4736810000000  0.4619780000000  0.5754600000000 1.0
C      1  0.5262820000000  0.5380570000000  0.5754550000000 1.0
C      1  0.4659100000000  0.4709850000000  0.4331360000000 1.0
C      1  0.5341230000000  0.5289840000000  0.4331400000000 1.0
C      1  0.5550780000000  0.5525720000000  0.4820810000000 1.0
C      1  0.4449310000000  0.4474190000000  0.4820780000000 1.0
C      1  0.5518040000000  0.5608060000000  0.5108000000000 1.0
C      1  0.4481910000000  0.4391990000000  0.5108020000000 1.0
C      1  0.5550810000000  0.4474230000000  0.4821060000000 1.0
C      1  0.4449280000000  0.5525690000000  0.4820540000000 1.0
C      1  0.5518080000000  0.4392020000000  0.5108280000000 1.0
C      1  0.4481870000000  0.5608030000000  0.5107740000000 1.0
C      1  0.5254380000000  0.5235430000000  0.5179510000000 1.0
C      1  0.4745530000000  0.4764650000000  0.5179490000000 1.0
C      1  0.5231490000000  0.5235250000000  0.4898710000000 1.0
C      1  0.4768560000000  0.4764700000000  0.4898700000000 1.0
C      1  0.5254390000000  0.4764670000000  0.5179620000000 1.0
C      1  0.4745520000000  0.5235410000000  0.5179380000000 1.0
C      1  0.5231500000000  0.4764720000000  0.4898820000000 1.0
C      1  0.4768550000000  0.5235240000000  0.4898590000000 1.0
C      1  0.4684160000000  0.5490970000000  0.5290890000000 1.0
C      1  0.5315700000000  0.4509160000000  0.5291280000000 1.0
C      1  0.4725940000000  0.5465890000000  0.4739400000000 1.0
C      1  0.5274190000000  0.4533990000000  0.4739750000000 1.0
C      1  0.4684190000000  0.4509140000000  0.5291120000000 1.0
C      1  0.5315660000000  0.5490990000000  0.5291050000000 1.0
C      1  0.4725970000000  0.4533980000000  0.4739620000000 1.0
C      1  0.5274160000000  0.5465900000000  0.4739540000000 1.0
C      1  0.5145460000000  0.5444080000000  0.4479790000000 1.0
C      1  0.4854800000000  0.4555680000000  0.4479920000000 1.0
C      1  0.5150460000000  0.5522340000000  0.5530300000000 1.0
C      1  0.4849280000000  0.4477900000000  0.5530460000000 1.0
C      1  0.5145490000000  0.4555690000000  0.4480000000000 1.0
C      1  0.4854770000000  0.5444070000000  0.4479720000000 1.0
C      1  0.5150490000000  0.4477910000000  0.5530540000000 1.0
C      1  0.4849240000000  0.5522330000000  0.5530220000000 1.0
C      1  0.4441540000000  0.5149230000000  0.4465690000000 1.0
C      1  0.5558730000000  0.4850530000000  0.4466030000000 1.0
C      1  0.4681870000000  0.5134450000000  0.5848980000000 1.0
C      1  0.5317710000000  0.4865950000000  0.5849200000000 1.0
C      1  0.4441550000000  0.4850490000000  0.4465760000000 1.0
C      1  0.5558720000000  0.5149260000000  0.4465960000000 1.0
C      1  0.4681880000000  0.4865930000000  0.5849040000000 1.0
C      1  0.5317700000000  0.5134470000000  0.5849130000000 1.0
C      1  0.4299330000000  0.5300710000000  0.4687110000000 1.0
C      1  0.5700820000000  0.4699140000000  0.4687600000000 1.0
C      1  0.4109580000000  0.5136120000000  0.4822550000000 1.0
C      1  0.5890510000000  0.4863800000000  0.4823060000000 1.0
C      1  0.4299350000000  0.4699100000000  0.4687250000000 1.0
C      1  0.5700800000000  0.5300760000000  0.4687460000000 1.0
C      1  0.4109590000000  0.4863740000000  0.4822610000000 1.0
C      1  0.5890500000000  0.5136180000000  0.4822990000000 1.0
C      1  0.5138860000000  0.4999950000000  0.4784590000000 1.0
C      1  0.4854590000000  0.5000060000000  0.5297460000000 1.0
C      1  0.4861250000000  0.4999950000000  0.4784520000000 1.0
C      1  0.5145260000000  0.5000070000000  0.5297540000000 1.0
END
