TITL C-2323482-8828-582 0.316311698125984 125000 -360.197402370331 0 0 60 (C1) n - 1
REM
REM in /home/bkarasulu/CARBON/AIRSS/Generating-Clusters/LCBOP/Higher-Symm/Only-C60/SD-CG/FIRE-HFTN
REM
REM
REM
REM
REM
REM ./C.cell (50c204cfd26239f34c78669fe23a5462)
REM
REM compiler GCC version 9.2.1 20190827 (Red Hat 9.2.1-1)
REM options -cpp -mtune=generic -march=x86-64 -g -O0 -fpre-include=/usr/include/finclude/math-vector-fortran.h
REM seed 1194076722 1485074356 517144935 -318316377 1929611530 -1422346275 819288266 -481032655 248717429 -55856885 160592636 1359005459 -1947240933 -1708593531 -950942312 -675037591 -766171049 1616600236 -1478075833 644320002 -542575632 -164336876 1187113164 -601527233 -2041622850 -930977742 -754611124 -720499018 -2062456019 1269296869 -1501207699 1520363792 -640000277
REM
CELL 1.54180   50.00000   50.00000   50.00000   90.00000   90.00000   90.00000
LATT -1
SFAC C  
C      1  0.4788350000000  0.4951900000000  0.4760110000000 1.0
C      1  0.5281310000000  0.5112490000000  0.4903060000000 1.0
C      1  0.5007650000000  0.4763900000000  0.4787800000000 1.0
C      1  0.5077920000000  0.5280000000000  0.5001860000000 1.0
C      1  0.4882050000000  0.4798630000000  0.4312530000000 1.0
C      1  0.4993690000000  0.5261090000000  0.5635390000000 1.0
C      1  0.5221630000000  0.4936290000000  0.4695790000000 1.0
C      1  0.4983390000000  0.4956090000000  0.6017490000000 1.0
C      1  0.4529640000000  0.4949380000000  0.4882320000000 1.0
C      1  0.5556790000000  0.5060810000000  0.4951420000000 1.0
C      1  0.5604180000000  0.4797700000000  0.5391510000000 1.0
C      1  0.4366210000000  0.5145190000000  0.4437830000000 1.0
C      1  0.4946060000000  0.4913380000000  0.6276200000000 1.0
C      1  0.5341980000000  0.5024630000000  0.4453760000000 1.0
C      1  0.4477500000000  0.4483310000000  0.4812820000000 1.0
C      1  0.5515480000000  0.5495980000000  0.5131860000000 1.0
C      1  0.5638620000000  0.5252080000000  0.4083400000000 1.0
C      1  0.4871900000000  0.4828190000000  0.6789680000000 1.0
C      1  0.4264690000000  0.5572230000000  0.4731310000000 1.0
C      1  0.5537350000000  0.4375100000000  0.5109580000000 1.0
C      1  0.4369400000000  0.4744820000000  0.4751150000000 1.0
C      1  0.5650920000000  0.5237130000000  0.5157350000000 1.0
C      1  0.5055300000000  0.4020970000000  0.4834240000000 1.0
C      1  0.4877860000000  0.5737710000000  0.5080850000000 1.0
C      1  0.5217820000000  0.5423200000000  0.5562770000000 1.0
C      1  0.4636330000000  0.4651740000000  0.4381480000000 1.0
C      1  0.4706780000000  0.4506720000000  0.5289390000000 1.0
C      1  0.5263520000000  0.5575230000000  0.4644040000000 1.0
C      1  0.5704670000000  0.5069120000000  0.5383470000000 1.0
C      1  0.4399800000000  0.4835300000000  0.4462290000000 1.0
C      1  0.5492490000000  0.5136900000000  0.4265920000000 1.0
C      1  0.4908670000000  0.4870430000000  0.6535070000000 1.0
C      1  0.4418610000000  0.5384390000000  0.5125550000000 1.0
C      1  0.5502060000000  0.4585140000000  0.4687280000000 1.0
C      1  0.5625880000000  0.4781050000000  0.4898910000000 1.0
C      1  0.4380870000000  0.5179580000000  0.4930250000000 1.0
C      1  0.4548180000000  0.4433080000000  0.5083640000000 1.0
C      1  0.5448970000000  0.5585410000000  0.4851470000000 1.0
C      1  0.4688880000000  0.4457060000000  0.4609720000000 1.0
C      1  0.5285840000000  0.5536910000000  0.5312650000000 1.0
C      1  0.4626610000000  0.5802480000000  0.5011790000000 1.0
C      1  0.5133090000000  0.4281490000000  0.4810020000000 1.0
C      1  0.5138000000000  0.4660500000000  0.4290040000000 1.0
C      1  0.4734480000000  0.5334060000000  0.5550380000000 1.0
C      1  0.4562330000000  0.5319200000000  0.4303290000000 1.0
C      1  0.5367680000000  0.4742420000000  0.5533910000000 1.0
C      1  0.4833770000000  0.5315490000000  0.4405590000000 1.0
C      1  0.5091590000000  0.4781830000000  0.5572890000000 1.0
C      1  0.5056390000000  0.5530880000000  0.5133500000000 1.0
C      1  0.4951130000000  0.4487570000000  0.4734370000000 1.0
C      1  0.5371060000000  0.4591890000000  0.4425470000000 1.0
C      1  0.4531580000000  0.5354920000000  0.5378440000000 1.0
C      1  0.4894020000000  0.4629110000000  0.5438720000000 1.0
C      1  0.5042750000000  0.5493780000000  0.4498160000000 1.0
C      1  0.5648570000000  0.4635190000000  0.5158940000000 1.0
C      1  0.4269520000000  0.5286500000000  0.4677410000000 1.0
C      1  0.5022170000000  0.4999670000000  0.5744640000000 1.0
C      1  0.4852000000000  0.5042380000000  0.4482890000000 1.0
C      1  0.4402200000000  0.5638430000000  0.4978220000000 1.0
C      1  0.5401830000000  0.4362000000000  0.4858100000000 1.0
END
