TITL C-2323480-5884-480 -0.00664293608853856 125000 -359.538361077948 0 0 60 (C1) n - 1
REM
REM in /home/bkarasulu/CARBON/AIRSS/Generating-Clusters/LCBOP/Higher-Symm/Only-C60/SD-CG/FIRE-HFTN
REM
REM
REM
REM
REM
REM ./C.cell (50c204cfd26239f34c78669fe23a5462)
REM
REM compiler GCC version 9.2.1 20190827 (Red Hat 9.2.1-1)
REM options -cpp -mtune=generic -march=x86-64 -g -O0 -fpre-include=/usr/include/finclude/math-vector-fortran.h
REM seed 1179779770 1210529651 -194976645 1845549633 -1483128205 -753800156 -318550393 1102608142 874567695 1243517821 1212109387 796642736 -1217954761 956182074 986332712 638620178 -1982133278 -338740027 -799748987 37981119 949249377 1960228362 -1700380253 884723212 294566464 -686294682 -1943798676 734960288 -1117002153 793213826 -1217409256 -131004932 -895165673
REM
CELL 1.54180   50.00000   50.00000   50.00000   90.00000   90.00000   90.00000
LATT -1
SFAC C  
C      1  0.5440280000000  0.5261600000000  0.4518150000000 1.0
C      1  0.4488700000000  0.4764350000000  0.5665610000000 1.0
C      1  0.5200000000000  0.4391520000000  0.5195590000000 1.0
C      1  0.4776660000000  0.5664180000000  0.4970730000000 1.0
C      1  0.5180110000000  0.4947610000000  0.4132080000000 1.0
C      1  0.4707420000000  0.5227220000000  0.5895930000000 1.0
C      1  0.5170770000000  0.4542240000000  0.5441640000000 1.0
C      1  0.4804580000000  0.5615850000000  0.4684770000000 1.0
C      1  0.5506350000000  0.4740210000000  0.5175140000000 1.0
C      1  0.4394940000000  0.5458430000000  0.4824620000000 1.0
C      1  0.5295910000000  0.4736410000000  0.4287630000000 1.0
C      1  0.4502610000000  0.5334240000000  0.5725790000000 1.0
C      1  0.4978840000000  0.5774530000000  0.5128170000000 1.0
C      1  0.5162920000000  0.4118390000000  0.5170580000000 1.0
C      1  0.4721310000000  0.4378580000000  0.4876170000000 1.0
C      1  0.5206800000000  0.5202090000000  0.5052490000000 1.0
C      1  0.4767020000000  0.5204310000000  0.4230870000000 1.0
C      1  0.5154550000000  0.5058290000000  0.5764450000000 1.0
C      1  0.5225950000000  0.4680840000000  0.4773360000000 1.0
C      1  0.4593960000000  0.5281530000000  0.5241170000000 1.0
C      1  0.4944170000000  0.4576630000000  0.5603620000000 1.0
C      1  0.5044930000000  0.5557100000000  0.4551460000000 1.0
C      1  0.4211530000000  0.4758880000000  0.4748390000000 1.0
C      1  0.6255510000000  0.5172170000000  0.4657510000000 1.0
C      1  0.5341210000000  0.4562580000000  0.5005940000000 1.0
C      1  0.4551680000000  0.5500790000000  0.5067620000000 1.0
C      1  0.6492340000000  0.5256860000000  0.4588960000000 1.0
C      1  0.4468390000000  0.4729350000000  0.4655590000000 1.0
C      1  0.4767810000000  0.4766560000000  0.5717310000000 1.0
C      1  0.5187490000000  0.5346920000000  0.4428340000000 1.0
C      1  0.5326650000000  0.4485860000000  0.4181230000000 1.0
C      1  0.4360150000000  0.5556340000000  0.5798610000000 1.0
C      1  0.5758930000000  0.4999980000000  0.4794970000000 1.0
C      1  0.4337690000000  0.4817300000000  0.5211090000000 1.0
C      1  0.4699380000000  0.4670510000000  0.4843660000000 1.0
C      1  0.4986020000000  0.5046970000000  0.4985900000000 1.0
C      1  0.5357330000000  0.4956820000000  0.5620720000000 1.0
C      1  0.4569310000000  0.5335120000000  0.4356720000000 1.0
C      1  0.5162980000000  0.3857740000000  0.5168770000000 1.0
C      1  0.5215590000000  0.5671840000000  0.5203460000000 1.0
C      1  0.5310070000000  0.5424660000000  0.5158180000000 1.0
C      1  0.4666720000000  0.4124100000000  0.4861780000000 1.0
C      1  0.5227860000000  0.4941960000000  0.3593860000000 1.0
C      1  0.4770490000000  0.5414760000000  0.6398590000000 1.0
C      1  0.5703100000000  0.4891380000000  0.5048820000000 1.0
C      1  0.4598700000000  0.4819120000000  0.5095060000000 1.0
C      1  0.6014610000000  0.5086420000000  0.4726820000000 1.0
C      1  0.4139920000000  0.4783820000000  0.5011560000000 1.0
C      1  0.4974900000000  0.4807550000000  0.4819020000000 1.0
C      1  0.4744760000000  0.5065840000000  0.5131010000000 1.0
C      1  0.4555640000000  0.5490890000000  0.4587890000000 1.0
C      1  0.5380440000000  0.4749380000000  0.5434580000000 1.0
C      1  0.4449950000000  0.5206200000000  0.5477780000000 1.0
C      1  0.5376940000000  0.4787270000000  0.4556000000000 1.0
C      1  0.5543340000000  0.5015630000000  0.4610190000000 1.0
C      1  0.4355910000000  0.4928820000000  0.5474370000000 1.0
C      1  0.5045130000000  0.5166990000000  0.4253990000000 1.0
C      1  0.4878890000000  0.5017640000000  0.5806310000000 1.0
C      1  0.4738250000000  0.5325550000000  0.6155850000000 1.0
C      1  0.5205630000000  0.4943320000000  0.3853510000000 1.0
END
