TITL C-2323479-8056-170 7.61120109749149 125000 -353.832501234751 0 0 60 (C1) n - 1
REM
REM in /home/bkarasulu/CARBON/AIRSS/Generating-Clusters/LCBOP/Higher-Symm/Only-C60/SD-CG/FIRE-HFTN
REM
REM
REM
REM
REM
REM ./C.cell (50c204cfd26239f34c78669fe23a5462)
REM
REM compiler GCC version 9.2.1 20190827 (Red Hat 9.2.1-1)
REM options -cpp -mtune=generic -march=x86-64 -g -O0 -fpre-include=/usr/include/finclude/math-vector-fortran.h
REM seed -1040182246 -1541261651 -1451119215 -2059534826 -52645875 -828297807 -1850856911 1028583240 1037078313 -1825692865 784808061 -1032409616 219857437 1388819551 -1774581599 1594705573 733671349 -161250572 1664017627 1520462302 -1633055854 123980422 1607555190 1519628540 1639822602 849772546 1865416883 410844648 382898359 1842237972 -519639937 1723437794 981132881
REM
CELL 1.54180   50.00000   50.00000   50.00000   90.00000   90.00000   90.00000
LATT -1
SFAC C  
C      1  0.5577210000000  0.4504580000000  0.5379130000000 1.0
C      1  0.5033490000000  0.4389190000000  0.5859720000000 1.0
C      1  0.4778190000000  0.5327670000000  0.4161350000000 1.0
C      1  0.4871370000000  0.4905150000000  0.4974000000000 1.0
C      1  0.5243790000000  0.5014420000000  0.5358900000000 1.0
C      1  0.5209200000000  0.5176690000000  0.4639930000000 1.0
C      1  0.4469160000000  0.5177050000000  0.5044440000000 1.0
C      1  0.5498760000000  0.4962620000000  0.5235610000000 1.0
C      1  0.5153300000000  0.5648250000000  0.4590340000000 1.0
C      1  0.4794640000000  0.4638610000000  0.4577140000000 1.0
C      1  0.4361780000000  0.5592420000000  0.3934630000000 1.0
C      1  0.5659330000000  0.5181300000000  0.5160250000000 1.0
C      1  0.5781580000000  0.5030240000000  0.4473200000000 1.0
C      1  0.5060230000000  0.3582560000000  0.6476070000000 1.0
C      1  0.4797150000000  0.5302450000000  0.4445190000000 1.0
C      1  0.4316200000000  0.5179590000000  0.5278540000000 1.0
C      1  0.3548170000000  0.6114080000000  0.3509740000000 1.0
C      1  0.4642240000000  0.4835750000000  0.4465030000000 1.0
C      1  0.4235470000000  0.4933010000000  0.5396010000000 1.0
C      1  0.3749080000000  0.5985260000000  0.3614650000000 1.0
C      1  0.5606500000000  0.5562880000000  0.4875010000000 1.0
C      1  0.5115950000000  0.3949730000000  0.6186310000000 1.0
C      1  0.4583350000000  0.4606170000000  0.5658280000000 1.0
C      1  0.5017570000000  0.5872420000000  0.4514460000000 1.0
C      1  0.5530970000000  0.4947330000000  0.4380020000000 1.0
C      1  0.4178340000000  0.5645310000000  0.5513950000000 1.0
C      1  0.3953350000000  0.5854290000000  0.3721330000000 1.0
C      1  0.5333230000000  0.4932840000000  0.4582450000000 1.0
C      1  0.5221510000000  0.5087420000000  0.3993400000000 1.0
C      1  0.4663050000000  0.5077620000000  0.4871670000000 1.0
C      1  0.5885710000000  0.5168620000000  0.4695270000000 1.0
C      1  0.4985790000000  0.5212150000000  0.4009520000000 1.0
C      1  0.5067070000000  0.4168720000000  0.6026560000000 1.0
C      1  0.5226640000000  0.5055450000000  0.5639810000000 1.0
C      1  0.5433750000000  0.4982610000000  0.4118850000000 1.0
C      1  0.5629750000000  0.5647050000000  0.5152030000000 1.0
C      1  0.5458410000000  0.4442120000000  0.5611010000000 1.0
C      1  0.4245260000000  0.5421370000000  0.5398670000000 1.0
C      1  0.5332110000000  0.3601300000000  0.6418180000000 1.0
C      1  0.4157570000000  0.5723350000000  0.3827970000000 1.0
C      1  0.5441840000000  0.4604140000000  0.4919470000000 1.0
C      1  0.4779220000000  0.4465930000000  0.5769900000000 1.0
C      1  0.4925820000000  0.3787390000000  0.6340940000000 1.0
C      1  0.4653340000000  0.5096080000000  0.4583670000000 1.0
C      1  0.4422020000000  0.4777300000000  0.5535310000000 1.0
C      1  0.5414010000000  0.5662160000000  0.4699330000000 1.0
C      1  0.5242030000000  0.4824580000000  0.5798740000000 1.0
C      1  0.5542970000000  0.4687250000000  0.5168680000000 1.0
C      1  0.5193370000000  0.5303780000000  0.5747660000000 1.0
C      1  0.5254280000000  0.4711750000000  0.4740940000000 1.0
C      1  0.5012790000000  0.4973230000000  0.5205460000000 1.0
C      1  0.5042070000000  0.5388050000000  0.4565920000000 1.0
C      1  0.5255770000000  0.4544550000000  0.5776900000000 1.0
C      1  0.4565820000000  0.5461940000000  0.4041850000000 1.0
C      1  0.4972660000000  0.4702860000000  0.4790400000000 1.0
C      1  0.5371990000000  0.3818150000000  0.6245940000000 1.0
C      1  0.5663960000000  0.5427230000000  0.5316790000000 1.0
C      1  0.5707330000000  0.5282620000000  0.4884310000000 1.0
C      1  0.6156090000000  0.5193150000000  0.4728650000000 1.0
C      1  0.3976380000000  0.4848240000000  0.5370540000000 1.0
END
