TITL C-2323489-8765-518 30.1805047589448 125000 -349.947324157582 0 0 60 (Cs) n - 1
REM
REM in /home/bkarasulu/CARBON/AIRSS/Generating-Clusters/LCBOP/Higher-Symm/Only-C60/SD-CG/FIRE-HFTN
REM
REM
REM
REM
REM
REM ./C.cell (50c204cfd26239f34c78669fe23a5462)
REM
REM compiler GCC version 9.2.1 20190827 (Red Hat 9.2.1-1)
REM options -cpp -mtune=generic -march=x86-64 -g -O0 -fpre-include=/usr/include/finclude/math-vector-fortran.h
REM seed 1292096808 -139859332 -1035609178 355104435 2139425845 -944794703 988384082 -327094826 -1636841657 1669295531 -1620360918 -1630192670 -57912241 2099213087 1529005471 -1540401730 1395773105 51636634 -312721379 -984206355 366304521 1751359828 738703850 -726871416 -2132400895 -881648054 -667168757 1792704303 995534441 -1892318472 2131244164 850548682 2145538029
REM
CELL 1.54180   50.00000   50.00000   50.00000   90.00000   90.00000   90.00000
LATT -1
SFAC C  
C      1  0.5203160000000  0.5286440000000  0.4757000000000 1.0
C      1  0.5203170000000  0.4713560000000  0.4757000000000 1.0
C      1  0.5315390000000  0.5263210000000  0.4306110000000 1.0
C      1  0.5315400000000  0.4736780000000  0.4306120000000 1.0
C      1  0.5023950000000  0.5139020000000  0.5798550000000 1.0
C      1  0.5023950000000  0.4861000000000  0.5798560000000 1.0
C      1  0.4741020000000  0.4470970000000  0.5103650000000 1.0
C      1  0.4741010000000  0.5529020000000  0.5103640000000 1.0
C      1  0.5064090000000  0.4601150000000  0.5704490000000 1.0
C      1  0.5064080000000  0.5398870000000  0.5704480000000 1.0
C      1  0.5060670000000  0.4779360000000  0.5234010000000 1.0
C      1  0.5060670000000  0.5220650000000  0.5234000000000 1.0
C      1  0.4904530000000  0.4439210000000  0.4519900000000 1.0
C      1  0.4904510000000  0.5560770000000  0.4519880000000 1.0
C      1  0.5502300000000  0.4738500000000  0.5543730000000 1.0
C      1  0.5502300000000  0.5261530000000  0.5543720000000 1.0
C      1  0.4844630000000  0.5295350000000  0.4421120000000 1.0
C      1  0.4844630000000  0.4704630000000  0.4421120000000 1.0
C      1  0.4991080000000  0.5664010000000  0.5021800000000 1.0
C      1  0.4991100000000  0.4335990000000  0.5021820000000 1.0
C      1  0.4794990000000  0.5315230000000  0.5283430000000 1.0
C      1  0.4795000000000  0.4684770000000  0.5283440000000 1.0
C      1  0.3967130000000  0.4710000000000  0.4798240000000 1.0
C      1  0.3967120000000  0.5289970000000  0.4798230000000 1.0
C      1  0.3747180000000  0.4573610000000  0.4828780000000 1.0
C      1  0.3747170000000  0.5426360000000  0.4828780000000 1.0
C      1  0.5617490000000  0.5154120000000  0.4979760000000 1.0
C      1  0.5617490000000  0.4845900000000  0.4979760000000 1.0
C      1  0.5414020000000  0.4698940000000  0.4567590000000 1.0
C      1  0.5414010000000  0.5301060000000  0.4567590000000 1.0
C      1  0.4993320000000  0.5703160000000  0.4736580000000 1.0
C      1  0.4993330000000  0.4296830000000  0.4736600000000 1.0
C      1  0.5283780000000  0.5143730000000  0.5402830000000 1.0
C      1  0.5283780000000  0.4856290000000  0.5402840000000 1.0
C      1  0.5653070000000  0.5252880000000  0.4710550000000 1.0
C      1  0.5653070000000  0.4747130000000  0.4710550000000 1.0
C      1  0.4638390000000  0.5145180000000  0.4552460000000 1.0
C      1  0.4638400000000  0.4854800000000  0.4552460000000 1.0
C      1  0.5096230000000  0.5139540000000  0.4961810000000 1.0
C      1  0.5096240000000  0.4860460000000  0.4961810000000 1.0
C      1  0.4453950000000  0.4727190000000  0.4733920000000 1.0
C      1  0.4453940000000  0.5272790000000  0.4733910000000 1.0
C      1  0.5492910000000  0.4513380000000  0.5131080000000 1.0
C      1  0.5492900000000  0.5486630000000  0.5131060000000 1.0
C      1  0.5719250000000  0.4370010000000  0.5152520000000 1.0
C      1  0.5719240000000  0.5630010000000  0.5152510000000 1.0
C      1  0.5052560000000  0.5145330000000  0.4282360000000 1.0
C      1  0.5052570000000  0.4854660000000  0.4282360000000 1.0
C      1  0.4538460000000  0.4524670000000  0.4912690000000 1.0
C      1  0.4538450000000  0.5475320000000  0.4912680000000 1.0
C      1  0.5225170000000  0.5619200000000  0.5213840000000 1.0
C      1  0.5225180000000  0.4380810000000  0.5213850000000 1.0
C      1  0.4201940000000  0.4856950000000  0.4768650000000 1.0
C      1  0.4201930000000  0.5143030000000  0.4768640000000 1.0
C      1  0.5704790000000  0.5135960000000  0.5674080000000 1.0
C      1  0.5704790000000  0.4864070000000  0.5674080000000 1.0
C      1  0.5144710000000  0.4418940000000  0.5505900000000 1.0
C      1  0.5144700000000  0.5581080000000  0.5505890000000 1.0
C      1  0.4609850000000  0.4865190000000  0.5392590000000 1.0
C      1  0.4609850000000  0.5134810000000  0.5392580000000 1.0
END
