TITL C-2323490-8774-113 1.29051287343552 125000 -359.447638612284 0 0 60 (C1) n - 1
REM
REM in /home/bkarasulu/CARBON/AIRSS/Generating-Clusters/LCBOP/Higher-Symm/Only-C60/SD-CG/FIRE-HFTN
REM
REM
REM
REM
REM
REM ./C.cell (50c204cfd26239f34c78669fe23a5462)
REM
REM compiler GCC version 9.2.1 20190827 (Red Hat 9.2.1-1)
REM options -cpp -mtune=generic -march=x86-64 -g -O0 -fpre-include=/usr/include/finclude/math-vector-fortran.h
REM seed 1061730950 -579580374 -1874041620 -1749344304 1050031092 1141425068 1883758826 -1084194080 409102826 1072755680 1912056509 -1700514109 715129320 -49695614 1324300078 2144785185 521049370 -177521390 422192279 1340915110 1219103020 -1642982486 380016791 285088133 650509142 1031577526 -1747711195 1216752510 1801618951 -521412742 1194833349 763408845 -1587467025
REM
CELL 1.54180   50.00000   50.00000   50.00000   90.00000   90.00000   90.00000
LATT -1
SFAC C  
C      1  0.4771890000000  0.6065210000000  0.4710820000000 1.0
C      1  0.4617420000000  0.5610170000000  0.5240720000000 1.0
C      1  0.5764670000000  0.5643720000000  0.4546300000000 1.0
C      1  0.4826820000000  0.6019910000000  0.4981800000000 1.0
C      1  0.4971640000000  0.5462410000000  0.3986960000000 1.0
C      1  0.5302060000000  0.6118330000000  0.4925740000000 1.0
C      1  0.4643350000000  0.3552970000000  0.5634040000000 1.0
C      1  0.5292520000000  0.4209980000000  0.5261130000000 1.0
C      1  0.4879120000000  0.3679140000000  0.5532340000000 1.0
C      1  0.5263840000000  0.5379350000000  0.5541020000000 1.0
C      1  0.4793490000000  0.6031580000000  0.4447940000000 1.0
C      1  0.4418320000000  0.5376070000000  0.4424980000000 1.0
C      1  0.5050420000000  0.4572390000000  0.4985210000000 1.0
C      1  0.5176990000000  0.6046970000000  0.5607710000000 1.0
C      1  0.4914270000000  0.5714010000000  0.4052130000000 1.0
C      1  0.4974120000000  0.5298390000000  0.5158710000000 1.0
C      1  0.4904640000000  0.4690570000000  0.4534810000000 1.0
C      1  0.4687010000000  0.5400340000000  0.4503360000000 1.0
C      1  0.4921300000000  0.3642280000000  0.5245140000000 1.0
C      1  0.5266290000000  0.5854410000000  0.5790390000000 1.0
C      1  0.5433970000000  0.5041500000000  0.4250220000000 1.0
C      1  0.4601190000000  0.4738410000000  0.4913280000000 1.0
C      1  0.5315930000000  0.4784240000000  0.5567430000000 1.0
C      1  0.4319700000000  0.5503750000000  0.4204960000000 1.0
C      1  0.5161380000000  0.5011220000000  0.4192540000000 1.0
C      1  0.4522740000000  0.5128470000000  0.5192750000000 1.0
C      1  0.4439600000000  0.4955580000000  0.4986660000000 1.0
C      1  0.5324130000000  0.4525500000000  0.5634420000000 1.0
C      1  0.5326710000000  0.5920840000000  0.6048240000000 1.0
C      1  0.4766970000000  0.3436330000000  0.5123120000000 1.0
C      1  0.4256330000000  0.5053840000000  0.4798370000000 1.0
C      1  0.5107520000000  0.6133850000000  0.5366780000000 1.0
C      1  0.5323010000000  0.3926910000000  0.5198400000000 1.0
C      1  0.4700450000000  0.5342380000000  0.5231200000000 1.0
C      1  0.4851260000000  0.5913380000000  0.4216760000000 1.0
C      1  0.5266190000000  0.4270210000000  0.5537700000000 1.0
C      1  0.5011570000000  0.4816040000000  0.4326070000000 1.0
C      1  0.5147090000000  0.4065970000000  0.5690140000000 1.0
C      1  0.5510380000000  0.6031880000000  0.4786100000000 1.0
C      1  0.4556920000000  0.3309880000000  0.5241240000000 1.0
C      1  0.5165660000000  0.3645810000000  0.5918350000000 1.0
C      1  0.5755540000000  0.5402070000000  0.4436810000000 1.0
C      1  0.5095510000000  0.4306450000000  0.5060870000000 1.0
C      1  0.4254680000000  0.5213560000000  0.4584810000000 1.0
C      1  0.4663040000000  0.5851030000000  0.5135170000000 1.0
C      1  0.5071800000000  0.3824730000000  0.5095220000000 1.0
C      1  0.4905630000000  0.5381660000000  0.4654000000000 1.0
C      1  0.4492210000000  0.3371760000000  0.5498420000000 1.0
C      1  0.5164050000000  0.5204900000000  0.5347210000000 1.0
C      1  0.5039570000000  0.5209810000000  0.4036300000000 1.0
C      1  0.5675280000000  0.5865470000000  0.4661500000000 1.0
C      1  0.5191480000000  0.4779470000000  0.5110490000000 1.0
C      1  0.5291170000000  0.5590950000000  0.5698450000000 1.0
C      1  0.5236900000000  0.4931450000000  0.5341890000000 1.0
C      1  0.5076150000000  0.6105210000000  0.5090430000000 1.0
C      1  0.4844140000000  0.4648880000000  0.4805140000000 1.0
C      1  0.4960700000000  0.4064630000000  0.4970770000000 1.0
C      1  0.5640320000000  0.5185370000000  0.4335430000000 1.0
C      1  0.5029840000000  0.5339910000000  0.4886410000000 1.0
C      1  0.5063100000000  0.3798480000000  0.5714710000000 1.0
END
