TITL C-2323484-8600-156 8.04426582832965e-06 125000 -363.235814425434 0 0 60 (C2h) n - 1
REM
REM in /home/bkarasulu/CARBON/AIRSS/Generating-Clusters/LCBOP/Higher-Symm/Only-C60/SD-CG/FIRE-HFTN
REM
REM
REM
REM
REM
REM ./C.cell (50c204cfd26239f34c78669fe23a5462)
REM
REM compiler GCC version 9.2.1 20190827 (Red Hat 9.2.1-1)
REM options -cpp -mtune=generic -march=x86-64 -g -O0 -fpre-include=/usr/include/finclude/math-vector-fortran.h
REM seed 708065840 -686511475 1957177527 -1247500223 -1546105763 1314000772 239143118 220194731 917656218 -417310902 776264311 -51642226 1904309610 432958949 -710475453 -86992727 -479048558 770820484 2011780220 -60207391 1694156979 115836404 332232501 -1424583598 -1543166761 -1854287276 -1362566026 1702731787 -1591417977 1537180872 771017540 -690085123 1389728026
REM
CELL 1.54180   50.00000   50.00000   50.00000   90.00000   90.00000   90.00000
LATT -1
SFAC C  
C      1  0.5429680000000  0.4627700000000  0.5210950000000 1.0
C      1  0.5429690000000  0.5372290000000  0.4789040000000 1.0
C      1  0.4570310000000  0.4627710000000  0.5210960000000 1.0
C      1  0.4570320000000  0.5372300000000  0.4789050000000 1.0
C      1  0.5133900000000  0.5378300000000  0.5850340000000 1.0
C      1  0.5133870000000  0.4621690000000  0.4149650000000 1.0
C      1  0.4866130000000  0.5378310000000  0.5850350000000 1.0
C      1  0.4866100000000  0.4621700000000  0.4149660000000 1.0
C      1  0.5133830000000  0.5915320000000  0.5404080000000 1.0
C      1  0.5133790000000  0.4084670000000  0.4595920000000 1.0
C      1  0.4866210000000  0.5915330000000  0.5404080000000 1.0
C      1  0.4866170000000  0.4084680000000  0.4595920000000 1.0
C      1  0.5139690000000  0.4766070000000  0.4825390000000 1.0
C      1  0.5139700000000  0.5233920000000  0.5174600000000 1.0
C      1  0.4860300000000  0.4766080000000  0.4825400000000 1.0
C      1  0.4860310000000  0.5233930000000  0.5174610000000 1.0
C      1  0.4628570000000  0.4206060000000  0.4567450000000 1.0
C      1  0.4628610000000  0.5793950000000  0.5432560000000 1.0
C      1  0.5371390000000  0.4206050000000  0.4567440000000 1.0
C      1  0.5371430000000  0.5793940000000  0.5432550000000 1.0
C      1  0.5229730000000  0.5025480000000  0.5354090000000 1.0
C      1  0.5229720000000  0.4974510000000  0.4645910000000 1.0
C      1  0.4770280000000  0.5025490000000  0.5354090000000 1.0
C      1  0.4770270000000  0.4974520000000  0.4645910000000 1.0
C      1  0.4625530000000  0.5366560000000  0.5069050000000 1.0
C      1  0.4625510000000  0.4633450000000  0.4930960000000 1.0
C      1  0.5374490000000  0.5366550000000  0.5069040000000 1.0
C      1  0.5374470000000  0.4633440000000  0.4930950000000 1.0
C      1  0.4429020000000  0.5368920000000  0.5286100000000 1.0
C      1  0.4429000000000  0.4631100000000  0.4713910000000 1.0
C      1  0.5571000000000  0.5368900000000  0.5286090000000 1.0
C      1  0.5570980000000  0.4631080000000  0.4713900000000 1.0
C      1  0.5371330000000  0.5428370000000  0.5735450000000 1.0
C      1  0.5371300000000  0.4571610000000  0.4264540000000 1.0
C      1  0.4628700000000  0.5428390000000  0.5735460000000 1.0
C      1  0.4628670000000  0.4571630000000  0.4264550000000 1.0
C      1  0.5137230000000  0.4228080000000  0.5221510000000 1.0
C      1  0.5137250000000  0.5771910000000  0.4778480000000 1.0
C      1  0.4862750000000  0.4228090000000  0.5221520000000 1.0
C      1  0.4862770000000  0.5771920000000  0.4778490000000 1.0
C      1  0.5483700000000  0.5542240000000  0.5501000000000 1.0
C      1  0.5483670000000  0.4457750000000  0.4498990000000 1.0
C      1  0.4516330000000  0.5542250000000  0.5501010000000 1.0
C      1  0.4516300000000  0.4457760000000  0.4499000000000 1.0
C      1  0.4717160000000  0.4432690000000  0.5361980000000 1.0
C      1  0.4717180000000  0.5567320000000  0.4638020000000 1.0
C      1  0.5282820000000  0.4432680000000  0.5361980000000 1.0
C      1  0.5282840000000  0.5567310000000  0.4638020000000 1.0
C      1  0.5477110000000  0.5115160000000  0.4671130000000 1.0
C      1  0.5477110000000  0.4884830000000  0.5328860000000 1.0
C      1  0.4522890000000  0.5115170000000  0.4671140000000 1.0
C      1  0.4522890000000  0.4884840000000  0.5328870000000 1.0
C      1  0.5673600000000  0.5098920000000  0.5332810000000 1.0
C      1  0.5673590000000  0.4901060000000  0.4667180000000 1.0
C      1  0.4326410000000  0.5098940000000  0.5332820000000 1.0
C      1  0.4326400000000  0.4901080000000  0.4667190000000 1.0
C      1  0.4862750000000  0.5485030000000  0.4403850000000 1.0
C      1  0.4862740000000  0.4514970000000  0.5596150000000 1.0
C      1  0.5137260000000  0.5485030000000  0.4403850000000 1.0
C      1  0.5137250000000  0.4514970000000  0.5596150000000 1.0
END
