TITL C-2323490-8774-260 -9.71716704561989e-05 125000 -339.680534317066 0 0 60 (D3) n - 1
REM
REM in /home/bkarasulu/CARBON/AIRSS/Generating-Clusters/LCBOP/Higher-Symm/Only-C60/SD-CG/FIRE-HFTN
REM
REM
REM
REM
REM
REM ./C.cell (50c204cfd26239f34c78669fe23a5462)
REM
REM compiler GCC version 9.2.1 20190827 (Red Hat 9.2.1-1)
REM options -cpp -mtune=generic -march=x86-64 -g -O0 -fpre-include=/usr/include/finclude/math-vector-fortran.h
REM seed -1447335153 1501296999 -1677819084 -301713881 -957704222 1797416672 -413060615 -1237128093 -875797760 1559192852 -138442099 -1444808327 1586235982 2094162744 1079205537 -914681480 -566920705 -2133390190 -2144616950 1162712092 -1857346423 -1520116944 -2095254548 545482490 1866934212 628382666 -2109895103 1786195353 -1182833484 188453404 -910395014 1843879009 -1007247208
REM
CELL 1.54180   50.00000   50.00000   50.00000   90.00000   90.00000   90.00000
LATT -1
SFAC C  
C      1  0.5655140000000  0.5130880000000  0.4842680000000 1.0
C      1  0.4808670000000  0.5130880000000  0.5646020000000 1.0
C      1  0.4536190000000  0.5130880000000  0.4511290000000 1.0
C      1  0.4344860000000  0.4869120000000  0.4842680000000 1.0
C      1  0.5191320000000  0.4869120000000  0.5646020000000 1.0
C      1  0.5463810000000  0.4869120000000  0.4511300000000 1.0
C      1  0.5583620000000  0.4801550000000  0.4839770000000 1.0
C      1  0.4846950000000  0.4801550000000  0.5585540000000 1.0
C      1  0.4569430000000  0.4801550000000  0.4574680000000 1.0
C      1  0.4416380000000  0.5198450000000  0.4839770000000 1.0
C      1  0.5153050000000  0.5198450000000  0.5585540000000 1.0
C      1  0.5430570000000  0.5198450000000  0.4574690000000 1.0
C      1  0.5232160000000  0.5143120000000  0.5114350000000 1.0
C      1  0.4784890000000  0.5143120000000  0.5143880000000 1.0
C      1  0.4982950000000  0.5143120000000  0.4741760000000 1.0
C      1  0.4767840000000  0.4856880000000  0.5114350000000 1.0
C      1  0.5215110000000  0.4856880000000  0.5143880000000 1.0
C      1  0.5017050000000  0.4856880000000  0.4741760000000 1.0
C      1  0.4565360000000  0.5573770000000  0.5101550000000 1.0
C      1  0.5129370000000  0.5573770000000  0.4572820000000 1.0
C      1  0.5305260000000  0.5573770000000  0.5325630000000 1.0
C      1  0.5434640000000  0.4426230000000  0.5101550000000 1.0
C      1  0.4870630000000  0.4426230000000  0.4572820000000 1.0
C      1  0.4694740000000  0.4426230000000  0.5325630000000 1.0
C      1  0.4556360000000  0.4446530000000  0.5055380000000 1.0
C      1  0.5173860000000  0.4446530000000  0.4588110000000 1.0
C      1  0.5269780000000  0.4446530000000  0.5356520000000 1.0
C      1  0.5443640000000  0.5553470000000  0.5055380000000 1.0
C      1  0.4826140000000  0.5553470000000  0.4588100000000 1.0
C      1  0.4730220000000  0.5553470000000  0.5356520000000 1.0
C      1  0.5596160000000  0.4842430000000  0.5352560000000 1.0
C      1  0.4396600000000  0.4842430000000  0.5340010000000 1.0
C      1  0.5007250000000  0.4842430000000  0.4307430000000 1.0
C      1  0.4403840000000  0.5157570000000  0.5352560000000 1.0
C      1  0.5603400000000  0.5157570000000  0.5340010000000 1.0
C      1  0.4992750000000  0.5157570000000  0.4307430000000 1.0
C      1  0.4626520000000  0.5297640000000  0.5515590000000 1.0
C      1  0.4740220000000  0.5297640000000  0.4418760000000 1.0
C      1  0.5633260000000  0.5297640000000  0.5065650000000 1.0
C      1  0.5373480000000  0.4702360000000  0.5515590000000 1.0
C      1  0.5259780000000  0.4702360000000  0.4418760000000 1.0
C      1  0.4366740000000  0.4702360000000  0.5065650000000 1.0
C      1  0.4982040000000  0.4777000000000  0.5276250000000 1.0
C      1  0.4769740000000  0.4777000000000  0.4846320000000 1.0
C      1  0.5248220000000  0.4777000000000  0.4877430000000 1.0
C      1  0.5017960000000  0.5223000000000  0.5276250000000 1.0
C      1  0.5230260000000  0.5223000000000  0.4846320000000 1.0
C      1  0.4751780000000  0.5223000000000  0.4877430000000 1.0
C      1  0.4769970000000  0.4664020000000  0.4394050000000 1.0
C      1  0.5639790000000  0.4664020000000  0.5103770000000 1.0
C      1  0.4590240000000  0.4664020000000  0.5502190000000 1.0
C      1  0.5230030000000  0.5335980000000  0.4394050000000 1.0
C      1  0.4360210000000  0.5335980000000  0.5103760000000 1.0
C      1  0.5409760000000  0.5335980000000  0.5502190000000 1.0
C      1  0.5321290000000  0.4352330000000  0.4832600000000 1.0
C      1  0.4984330000000  0.4352330000000  0.5361940000000 1.0
C      1  0.4694380000000  0.4352330000000  0.4805460000000 1.0
C      1  0.4678710000000  0.5647670000000  0.4832600000000 1.0
C      1  0.5015670000000  0.5647670000000  0.5361940000000 1.0
C      1  0.5305620000000  0.5647670000000  0.4805460000000 1.0
END
