TITL C-2323478-8180-447 8575.49187948853 125000 -339.53866893116 0 0 60 (C1) n - 1
REM
REM in /home/bkarasulu/CARBON/AIRSS/Generating-Clusters/LCBOP/Higher-Symm/Only-C60/SD-CG/FIRE-HFTN
REM
REM
REM
REM
REM
REM ./C.cell (50c204cfd26239f34c78669fe23a5462)
REM
REM compiler GCC version 9.2.1 20190827 (Red Hat 9.2.1-1)
REM options -cpp -mtune=generic -march=x86-64 -g -O0 -fpre-include=/usr/include/finclude/math-vector-fortran.h
REM seed -842556231 -1750472134 1402729310 633788141 665339478 1658855961 296509759 1380815061 1704336336 -293416726 872745779 -1943270568 -620400255 96322021 299085144 -1023344617 239288637 -1611388367 -107563202 -1896496769 -1745661802 -786548131 1964812141 841700231 -1016150772 -2016505846 1763733188 -409591694 -2119155675 544553720 390610423 -43857139 1145616576
REM
CELL 1.54180   50.00000   50.00000   50.00000   90.00000   90.00000   90.00000
LATT -1
SFAC C  
C      1  0.5228860000000  0.5734710000000  0.5070510000000 1.0
C      1  0.5156270000000  0.5193880000000  0.5662910000000 1.0
C      1  0.5670790000000  0.5145330000000  0.5357100000000 1.0
C      1  0.4832460000000  0.4259620000000  0.5107480000000 1.0
C      1  0.4821220000000  0.5712780000000  0.4824170000000 1.0
C      1  0.5250430000000  0.4319260000000  0.4891480000000 1.0
C      1  0.4814520000000  0.4908900000000  0.5734690000000 1.0
C      1  0.4877810000000  0.5081640000000  0.4293490000000 1.0
C      1  0.5088060000000  0.4637430000000  0.4226130000000 1.0
C      1  0.4293280000000  0.4792900000000  0.5277220000000 1.0
C      1  0.4254640000000  0.5167680000000  0.4929060000000 1.0
C      1  0.5652680000000  0.4943950000000  0.4641700000000 1.0
C      1  0.5472050000000  0.4767910000000  0.4797060000000 1.0
C      1  0.4758700000000  0.5420650000000  0.4753980000000 1.0
C      1  0.4687580000000  0.4861840000000  0.5495780000000 1.0
C      1  0.4520240000000  0.5321920000000  0.4935840000000 1.0
C      1  0.4552180000000  0.4675560000000  0.5340310000000 1.0
C      1  0.5508620000000  0.5324860000000  0.5194900000000 1.0
C      1  0.5273070000000  0.4562200000000  0.4705980000000 1.0
C      1  0.5276590000000  0.5502300000000  0.5232770000000 1.0
C      1  0.4747340000000  0.4513100000000  0.5199000000000 1.0
C      1  0.5257080000000  0.4989480000000  0.5502500000000 1.0
C      1  0.5262670000000  0.4533100000000  0.4407550000000 1.0
C      1  0.4766090000000  0.5170470000000  0.4545330000000 1.0
C      1  0.5213870000000  0.4312580000000  0.5163400000000 1.0
C      1  0.5121460000000  0.5236980000000  0.4276130000000 1.0
C      1  0.4243310000000  0.5083690000000  0.5233180000000 1.0
C      1  0.4834440000000  0.5751130000000  0.5105530000000 1.0
C      1  0.4867710000000  0.4243110000000  0.4830420000000 1.0
C      1  0.5213710000000  0.5741040000000  0.4791730000000 1.0
C      1  0.4843150000000  0.4784830000000  0.4265640000000 1.0
C      1  0.4871020000000  0.5201290000000  0.5713170000000 1.0
C      1  0.4998240000000  0.4691050000000  0.5787700000000 1.0
C      1  0.5681870000000  0.4870460000000  0.5398110000000 1.0
C      1  0.5722460000000  0.5210850000000  0.4596990000000 1.0
C      1  0.4346390000000  0.4917200000000  0.4773330000000 1.0
C      1  0.5121870000000  0.4889960000000  0.5233990000000 1.0
C      1  0.5423870000000  0.5177120000000  0.4961450000000 1.0
C      1  0.5034280000000  0.5334560000000  0.5191380000000 1.0
C      1  0.4883570000000  0.5084610000000  0.5263230000000 1.0
C      1  0.4822580000000  0.4925950000000  0.4712000000000 1.0
C      1  0.5225030000000  0.5238510000000  0.4762260000000 1.0
C      1  0.4610650000000  0.4894270000000  0.4899500000000 1.0
C      1  0.4666770000000  0.5107810000000  0.5079460000000 1.0
C      1  0.5368280000000  0.4906770000000  0.5030210000000 1.0
C      1  0.4965930000000  0.4677910000000  0.5087270000000 1.0
C      1  0.5000730000000  0.5318550000000  0.4905810000000 1.0
C      1  0.4989720000000  0.4685470000000  0.4773290000000 1.0
C      1  0.5657940000000  0.5485510000000  0.4599020000000 1.0
C      1  0.4734780000000  0.5628550000000  0.5347080000000 1.0
C      1  0.5145900000000  0.4514790000000  0.5634520000000 1.0
C      1  0.4388200000000  0.4751250000000  0.4534050000000 1.0
C      1  0.4387940000000  0.5266700000000  0.5427940000000 1.0
C      1  0.5558610000000  0.4622850000000  0.5393880000000 1.0
C      1  0.5314200000000  0.4457210000000  0.5401360000000 1.0
C      1  0.5383890000000  0.5601860000000  0.4583360000000 1.0
C      1  0.4800180000000  0.4462390000000  0.4652700000000 1.0
C      1  0.4646710000000  0.5393720000000  0.5516130000000 1.0
C      1  0.4645910000000  0.4628920000000  0.4444660000000 1.0
C      1  0.5241570000000  0.5359110000000  0.4503180000000 1.0
END
