TITL C-2323480-5884-74 8.53992978256478e-05 125000 -355.077511604636 0 0 60 (C1) n - 1
REM
REM in /home/bkarasulu/CARBON/AIRSS/Generating-Clusters/LCBOP/Higher-Symm/Only-C60/SD-CG/FIRE-HFTN
REM
REM
REM
REM
REM
REM ./C.cell (50c204cfd26239f34c78669fe23a5462)
REM
REM compiler GCC version 9.2.1 20190827 (Red Hat 9.2.1-1)
REM options -cpp -mtune=generic -march=x86-64 -g -O0 -fpre-include=/usr/include/finclude/math-vector-fortran.h
REM seed 1396808341 2105628227 169504125 1888069736 1008875769 -799406978 1683456451 666053223 1427671107 -34094291 425880440 937216175 1728484074 -10320179 -1065822049 215729251 1941621736 -205087588 -1818642725 -1817888845 -1521769238 -336973856 -243984569 -471195209 -756788630 -428486932 17274951 335207515 908311479 -1616773205 1382454697 -1386469859 -1814737430
REM
CELL 1.54180   50.00000   50.00000   50.00000   90.00000   90.00000   90.00000
LATT -1
SFAC C  
C      1  0.4884100000000  0.5618620000000  0.5071200000000 1.0
C      1  0.5131190000000  0.4421240000000  0.5110180000000 1.0
C      1  0.4836530000000  0.4380370000000  0.5086420000000 1.0
C      1  0.5183030000000  0.5626460000000  0.5061300000000 1.0
C      1  0.5408950000000  0.4224860000000  0.4774060000000 1.0
C      1  0.4687000000000  0.5893320000000  0.4727950000000 1.0
C      1  0.5363400000000  0.5878630000000  0.4691850000000 1.0
C      1  0.4556800000000  0.4238660000000  0.4726770000000 1.0
C      1  0.4502520000000  0.5451290000000  0.4784780000000 1.0
C      1  0.5489180000000  0.4688930000000  0.4871590000000 1.0
C      1  0.4498700000000  0.4694950000000  0.4864530000000 1.0
C      1  0.5538800000000  0.5434020000000  0.4761640000000 1.0
C      1  0.5646480000000  0.5240430000000  0.5395520000000 1.0
C      1  0.4256390000000  0.4050140000000  0.5421960000000 1.0
C      1  0.5683050000000  0.4440500000000  0.5617980000000 1.0
C      1  0.4420920000000  0.5229370000000  0.5409910000000 1.0
C      1  0.4748800000000  0.4794170000000  0.4450330000000 1.0
C      1  0.5252780000000  0.5243040000000  0.4406320000000 1.0
C      1  0.4766090000000  0.5257600000000  0.4412040000000 1.0
C      1  0.5246400000000  0.4779860000000  0.4449560000000 1.0
C      1  0.4693030000000  0.5652950000000  0.4861050000000 1.0
C      1  0.5340270000000  0.4448360000000  0.4919410000000 1.0
C      1  0.4633890000000  0.4442490000000  0.4895960000000 1.0
C      1  0.5359870000000  0.5645880000000  0.4837550000000 1.0
C      1  0.4577560000000  0.5445150000000  0.5448940000000 1.0
C      1  0.5454230000000  0.4389070000000  0.5504360000000 1.0
C      1  0.4499220000000  0.4135970000000  0.5382210000000 1.0
C      1  0.5521480000000  0.5478410000000  0.5424380000000 1.0
C      1  0.5716980000000  0.5315930000000  0.4944530000000 1.0
C      1  0.4385950000000  0.4862640000000  0.5065310000000 1.0
C      1  0.5607980000000  0.4856980000000  0.5068080000000 1.0
C      1  0.4322560000000  0.5338190000000  0.4969670000000 1.0
C      1  0.4504230000000  0.4808220000000  0.4600300000000 1.0
C      1  0.5505580000000  0.5272340000000  0.4530890000000 1.0
C      1  0.4519170000000  0.5296510000000  0.4546740000000 1.0
C      1  0.5491500000000  0.4786850000000  0.4600880000000 1.0
C      1  0.5279980000000  0.5590340000000  0.5335800000000 1.0
C      1  0.4750950000000  0.4237650000000  0.5329860000000 1.0
C      1  0.5209570000000  0.4346120000000  0.5383340000000 1.0
C      1  0.4809480000000  0.5567500000000  0.5351010000000 1.0
C      1  0.5087440000000  0.5077720000000  0.5546020000000 1.0
C      1  0.4764430000000  0.4775150000000  0.5398790000000 1.0
C      1  0.5685950000000  0.5118350000000  0.5144950000000 1.0
C      1  0.4345130000000  0.5128110000000  0.5158130000000 1.0
C      1  0.5011660000000  0.5258740000000  0.4571550000000 1.0
C      1  0.4998010000000  0.4795930000000  0.4603800000000 1.0
C      1  0.4978880000000  0.4225700000000  0.5502550000000 1.0
C      1  0.5051430000000  0.5542650000000  0.5506330000000 1.0
C      1  0.4772490000000  0.5009640000000  0.4244740000000 1.0
C      1  0.5230720000000  0.4994930000000  0.4241700000000 1.0
C      1  0.5646390000000  0.5019770000000  0.4538200000000 1.0
C      1  0.4363560000000  0.5052690000000  0.4548900000000 1.0
C      1  0.5087570000000  0.5347190000000  0.5959110000000 1.0
C      1  0.4960960000000  0.4952100000000  0.5328530000000 1.0
C      1  0.4997320000000  0.4958910000000  0.3803660000000 1.0
C      1  0.5098370000000  0.5372220000000  0.6218290000000 1.0
C      1  0.5006240000000  0.5039260000000  0.4777690000000 1.0
C      1  0.5076430000000  0.5322850000000  0.5683160000000 1.0
C      1  0.4999950000000  0.4985490000000  0.4073250000000 1.0
C      1  0.5004610000000  0.5026480000000  0.5058210000000 1.0
END
