TITL C-2323489-8765-227 58.3837754119742 125000 -348.477976960446 0 0 60 (C1) n - 1
REM
REM in /home/bkarasulu/CARBON/AIRSS/Generating-Clusters/LCBOP/Higher-Symm/Only-C60/SD-CG/FIRE-HFTN
REM
REM
REM
REM
REM
REM ./C.cell (50c204cfd26239f34c78669fe23a5462)
REM
REM compiler GCC version 9.2.1 20190827 (Red Hat 9.2.1-1)
REM options -cpp -mtune=generic -march=x86-64 -g -O0 -fpre-include=/usr/include/finclude/math-vector-fortran.h
REM seed 1408155147 2118257731 -1834687131 2140446124 -1153077939 -496366248 -1066347762 -1230710542 304670469 1092081591 -371102936 245677572 -440041359 -940426123 -2019133009 429197524 217454784 187737931 -743783978 2050128336 -332354237 -1173607921 1828525158 -1590512104 -1374362215 1083249764 1584088282 534480657 -1163768943 1901881713 -993720620 -1190165080 -1673242030
REM
CELL 1.54180   50.00000   50.00000   50.00000   90.00000   90.00000   90.00000
LATT -1
SFAC C  
C      1  0.5535410000000  0.4588950000000  0.4422990000000 1.0
C      1  0.5759660000000  0.5249910000000  0.5543780000000 1.0
C      1  0.5719450000000  0.4499920000000  0.5141580000000 1.0
C      1  0.4468570000000  0.6798960000000  0.4226330000000 1.0
C      1  0.5251030000000  0.5316400000000  0.5808950000000 1.0
C      1  0.4280810000000  0.5136740000000  0.4319770000000 1.0
C      1  0.5625970000000  0.4538270000000  0.4896530000000 1.0
C      1  0.5452090000000  0.4368410000000  0.4247010000000 1.0
C      1  0.5709270000000  0.4746890000000  0.4245920000000 1.0
C      1  0.5585550000000  0.5030680000000  0.5575850000000 1.0
C      1  0.5232570000000  0.4784630000000  0.4754370000000 1.0
C      1  0.5880090000000  0.4331810000000  0.5567220000000 1.0
C      1  0.4952220000000  0.5340170000000  0.5472080000000 1.0
C      1  0.5082700000000  0.3901930000000  0.4836140000000 1.0
C      1  0.4548910000000  0.4583760000000  0.4740310000000 1.0
C      1  0.4015250000000  0.4358180000000  0.5739020000000 1.0
C      1  0.5672580000000  0.4769200000000  0.5538210000000 1.0
C      1  0.4489210000000  0.5568220000000  0.4192640000000 1.0
C      1  0.4210690000000  0.4420940000000  0.5571330000000 1.0
C      1  0.5392990000000  0.5847190000000  0.5615640000000 1.0
C      1  0.5034130000000  0.4889100000000  0.5253590000000 1.0
C      1  0.4405750000000  0.4483190000000  0.5403310000000 1.0
C      1  0.4505200000000  0.6081730000000  0.4299800000000 1.0
C      1  0.4748830000000  0.5172130000000  0.4333550000000 1.0
C      1  0.5124640000000  0.5779490000000  0.5668070000000 1.0
C      1  0.4727300000000  0.6169990000000  0.5223220000000 1.0
C      1  0.4810200000000  0.6083800000000  0.5459690000000 1.0
C      1  0.5183570000000  0.4859980000000  0.5019330000000 1.0
C      1  0.5567260000000  0.4397610000000  0.3993700000000 1.0
C      1  0.5758170000000  0.4532530000000  0.5416550000000 1.0
C      1  0.5597350000000  0.3869630000000  0.4734500000000 1.0
C      1  0.4499930000000  0.6564550000000  0.4335850000000 1.0
C      1  0.4609370000000  0.4543660000000  0.5222510000000 1.0
C      1  0.4923260000000  0.5976830000000  0.5692150000000 1.0
C      1  0.5634190000000  0.5743410000000  0.5565920000000 1.0
C      1  0.4546210000000  0.4792100000000  0.4556100000000 1.0
C      1  0.5038360000000  0.4847310000000  0.4563450000000 1.0
C      1  0.5095710000000  0.5090330000000  0.5437510000000 1.0
C      1  0.4685230000000  0.4159960000000  0.4931110000000 1.0
C      1  0.4595810000000  0.6292970000000  0.4725130000000 1.0
C      1  0.5772910000000  0.5516730000000  0.5538880000000 1.0
C      1  0.4490030000000  0.5832730000000  0.4210290000000 1.0
C      1  0.4522820000000  0.3457350000000  0.4936080000000 1.0
C      1  0.4533590000000  0.6313470000000  0.4453380000000 1.0
C      1  0.4305530000000  0.4901550000000  0.4452820000000 1.0
C      1  0.5316180000000  0.5094690000000  0.5631360000000 1.0
C      1  0.4786870000000  0.4931370000000  0.4479130000000 1.0
C      1  0.4658080000000  0.6241780000000  0.4977580000000 1.0
C      1  0.5993660000000  0.4143860000000  0.5707580000000 1.0
C      1  0.4661520000000  0.3677030000000  0.4915590000000 1.0
C      1  0.4814300000000  0.4720630000000  0.5291770000000 1.0
C      1  0.5723830000000  0.4628060000000  0.3993030000000 1.0
C      1  0.4505450000000  0.5301190000000  0.4265290000000 1.0
C      1  0.4809670000000  0.3912840000000  0.4894230000000 1.0
C      1  0.3823020000000  0.4296450000000  0.5903960000000 1.0
C      1  0.5342300000000  0.3889640000000  0.4784630000000 1.0
C      1  0.4841280000000  0.6061490000000  0.5938960000000 1.0
C      1  0.5466080000000  0.4636640000000  0.4689000000000 1.0
C      1  0.5067190000000  0.5504300000000  0.5682600000000 1.0
C      1  0.4610210000000  0.4426730000000  0.4963120000000 1.0
END
