TITL C-2323482-8828-118 0.0674017290151646 125000 -358.036254689282 0 0 60 (C1) n - 1
REM
REM in /home/bkarasulu/CARBON/AIRSS/Generating-Clusters/LCBOP/Higher-Symm/Only-C60/SD-CG/FIRE-HFTN
REM
REM
REM
REM
REM
REM ./C.cell (50c204cfd26239f34c78669fe23a5462)
REM
REM compiler GCC version 9.2.1 20190827 (Red Hat 9.2.1-1)
REM options -cpp -mtune=generic -march=x86-64 -g -O0 -fpre-include=/usr/include/finclude/math-vector-fortran.h
REM seed -1206766533 390392845 1996368718 -1634365779 1510425014 -292413557 1690481588 -584335653 840077927 -953691057 -1122051537 -1009451603 233518780 1316923403 1660058390 938587470 -1681679862 -736245598 -127014177 747868550 -1895917510 951847854 798683793 801990590 809616450 -1019165854 -262567001 -1714499557 -926119927 503217024 -166016893 -892966769 -204809873
REM
CELL 1.54180   50.00000   50.00000   50.00000   90.00000   90.00000   90.00000
LATT -1
SFAC C  
C      1  0.4859980000000  0.5376310000000  0.5702770000000 1.0
C      1  0.5281240000000  0.4732480000000  0.4238840000000 1.0
C      1  0.5558920000000  0.4942280000000  0.4886610000000 1.0
C      1  0.4490980000000  0.4899930000000  0.5238280000000 1.0
C      1  0.4372900000000  0.4881140000000  0.4560440000000 1.0
C      1  0.5568200000000  0.5344830000000  0.5457510000000 1.0
C      1  0.4926620000000  0.5703160000000  0.6039420000000 1.0
C      1  0.5022660000000  0.4610700000000  0.3853940000000 1.0
C      1  0.5150670000000  0.5576450000000  0.4958920000000 1.0
C      1  0.4812190000000  0.4380210000000  0.4851730000000 1.0
C      1  0.5716980000000  0.4499580000000  0.3387330000000 1.0
C      1  0.4625950000000  0.5156630000000  0.6613710000000 1.0
C      1  0.5021540000000  0.4692920000000  0.4123320000000 1.0
C      1  0.4990790000000  0.5621610000000  0.5776410000000 1.0
C      1  0.5073800000000  0.4470080000000  0.5369260000000 1.0
C      1  0.4794590000000  0.5378270000000  0.4537280000000 1.0
C      1  0.4216240000000  0.4978750000000  0.4770940000000 1.0
C      1  0.5588140000000  0.5070060000000  0.5405320000000 1.0
C      1  0.3968010000000  0.5105940000000  0.4716660000000 1.0
C      1  0.5550310000000  0.4883720000000  0.5617760000000 1.0
C      1  0.3961720000000  0.5376540000000  0.4674800000000 1.0
C      1  0.5307390000000  0.4885080000000  0.5758040000000 1.0
C      1  0.4654160000000  0.5418240000000  0.6684600000000 1.0
C      1  0.5475460000000  0.4439170000000  0.3276550000000 1.0
C      1  0.5727980000000  0.4598600000000  0.3640740000000 1.0
C      1  0.4697960000000  0.5075530000000  0.6363940000000 1.0
C      1  0.5075610000000  0.4970460000000  0.5856350000000 1.0
C      1  0.5730220000000  0.4897530000000  0.4148780000000 1.0
C      1  0.3738900000000  0.4956230000000  0.4706980000000 1.0
C      1  0.5748920000000  0.4707890000000  0.5684620000000 1.0
C      1  0.5442990000000  0.5566240000000  0.5535690000000 1.0
C      1  0.4563420000000  0.4795590000000  0.4396730000000 1.0
C      1  0.4831500000000  0.5530080000000  0.6240860000000 1.0
C      1  0.5243910000000  0.4577420000000  0.3686410000000 1.0
C      1  0.4869700000000  0.5569010000000  0.4994430000000 1.0
C      1  0.5094210000000  0.4393260000000  0.4874680000000 1.0
C      1  0.4762610000000  0.5519660000000  0.5246930000000 1.0
C      1  0.5245110000000  0.4503310000000  0.4667870000000 1.0
C      1  0.5508570000000  0.4759440000000  0.4065760000000 1.0
C      1  0.4889820000000  0.5173770000000  0.5904000000000 1.0
C      1  0.4783510000000  0.4732600000000  0.4262570000000 1.0
C      1  0.5230240000000  0.5683240000000  0.5646220000000 1.0
C      1  0.5248090000000  0.4477780000000  0.3421320000000 1.0
C      1  0.4753570000000  0.5597070000000  0.6504900000000 1.0
C      1  0.5022620000000  0.5247710000000  0.4474990000000 1.0
C      1  0.4833760000000  0.4584780000000  0.5415670000000 1.0
C      1  0.4724740000000  0.5339030000000  0.5458350000000 1.0
C      1  0.5313280000000  0.4732080000000  0.4520410000000 1.0
C      1  0.5314330000000  0.5429910000000  0.4802660000000 1.0
C      1  0.4617180000000  0.4487700000000  0.5003560000000 1.0
C      1  0.5500530000000  0.4647320000000  0.3804320000000 1.0
C      1  0.4804780000000  0.5247560000000  0.6165250000000 1.0
C      1  0.4723170000000  0.5517370000000  0.4757460000000 1.0
C      1  0.5190440000000  0.4385060000000  0.5141080000000 1.0
C      1  0.4625040000000  0.4650220000000  0.5235950000000 1.0
C      1  0.5261640000000  0.5216130000000  0.4623270000000 1.0
C      1  0.4306360000000  0.4953730000000  0.5034580000000 1.0
C      1  0.5620270000000  0.4979550000000  0.5142440000000 1.0
C      1  0.5389420000000  0.4965900000000  0.4663760000000 1.0
C      1  0.4576150000000  0.5107190000000  0.5406030000000 1.0
END
