TITL C-2323490-8774-358 4.85710345949503e-06 125000 -357.802102328735 0 0 60 (C1) n - 1
REM
REM in /home/bkarasulu/CARBON/AIRSS/Generating-Clusters/LCBOP/Higher-Symm/Only-C60/SD-CG/FIRE-HFTN
REM
REM
REM
REM
REM
REM ./C.cell (50c204cfd26239f34c78669fe23a5462)
REM
REM compiler GCC version 9.2.1 20190827 (Red Hat 9.2.1-1)
REM options -cpp -mtune=generic -march=x86-64 -g -O0 -fpre-include=/usr/include/finclude/math-vector-fortran.h
REM seed -1154698128 -458499279 746915078 585761174 1831881086 -99714224 -2043486420 -1414319517 1182733358 -1006852388 61356117 829636221 1006691825 -1211594876 1650382310 -337727685 -338935503 779435965 1671387586 -1572950702 1510983979 -734710876 -1309856329 -1611288732 -1458645244 -2013874711 -345949780 -709921165 1129347741 -1346345263 802644843 1301482422 1233448293
REM
CELL 1.54180   50.00000   50.00000   50.00000   90.00000   90.00000   90.00000
LATT -1
SFAC C  
C      1  0.4944880000000  0.4531790000000  0.5347620000000 1.0
C      1  0.4577290000000  0.5301120000000  0.5382760000000 1.0
C      1  0.5457460000000  0.5203850000000  0.5356230000000 1.0
C      1  0.5630390000000  0.4596820000000  0.4804460000000 1.0
C      1  0.4348150000000  0.4640760000000  0.4797450000000 1.0
C      1  0.5024070000000  0.5737270000000  0.4801700000000 1.0
C      1  0.4554770000000  0.3990950000000  0.5029870000000 1.0
C      1  0.4345680000000  0.5882610000000  0.5016420000000 1.0
C      1  0.6093850000000  0.5112440000000  0.5001510000000 1.0
C      1  0.5592670000000  0.5381420000000  0.5205180000000 1.0
C      1  0.5033800000000  0.4309460000000  0.5223950000000 1.0
C      1  0.4361160000000  0.5318810000000  0.5222690000000 1.0
C      1  0.4925790000000  0.5248120000000  0.4301570000000 1.0
C      1  0.5123000000000  0.5046670000000  0.4297260000000 1.0
C      1  0.5027370000000  0.4785220000000  0.4259890000000 1.0
C      1  0.5385470000000  0.4941110000000  0.5279700000000 1.0
C      1  0.4757190000000  0.4715410000000  0.5241970000000 1.0
C      1  0.4844250000000  0.5365540000000  0.5314570000000 1.0
C      1  0.4942130000000  0.4621310000000  0.4471020000000 1.0
C      1  0.4764750000000  0.5280270000000  0.4528610000000 1.0
C      1  0.5323740000000  0.5082070000000  0.4495610000000 1.0
C      1  0.4487000000000  0.5242460000000  0.4519440000000 1.0
C      1  0.5472820000000  0.5320610000000  0.4499640000000 1.0
C      1  0.5064510000000  0.4371280000000  0.4508180000000 1.0
C      1  0.4374560000000  0.3955120000000  0.5224840000000 1.0
C      1  0.4383850000000  0.6060430000000  0.5212790000000 1.0
C      1  0.6226110000000  0.4988370000000  0.5198490000000 1.0
C      1  0.6186450000000  0.4809630000000  0.5393440000000 1.0
C      1  0.4234790000000  0.4097630000000  0.5402990000000 1.0
C      1  0.4554470000000  0.6119800000000  0.5409910000000 1.0
C      1  0.4500160000000  0.4414840000000  0.4812370000000 1.0
C      1  0.4752460000000  0.5721420000000  0.4819760000000 1.0
C      1  0.5747620000000  0.4842720000000  0.4808330000000 1.0
C      1  0.4361930000000  0.5395860000000  0.4949980000000 1.0
C      1  0.5665680000000  0.5343370000000  0.4933920000000 1.0
C      1  0.4971570000000  0.4240350000000  0.4956180000000 1.0
C      1  0.5728040000000  0.4633380000000  0.5517550000000 1.0
C      1  0.4311290000000  0.4592830000000  0.5478400000000 1.0
C      1  0.4936540000000  0.5817440000000  0.5548170000000 1.0
C      1  0.4286040000000  0.4905940000000  0.4798500000000 1.0
C      1  0.5283770000000  0.5656390000000  0.4790430000000 1.0
C      1  0.5436340000000  0.4406190000000  0.4810570000000 1.0
C      1  0.5835460000000  0.5107320000000  0.4885830000000 1.0
C      1  0.4683110000000  0.4209620000000  0.4903630000000 1.0
C      1  0.4480420000000  0.5662150000000  0.4900390000000 1.0
C      1  0.5173750000000  0.4300550000000  0.4759030000000 1.0
C      1  0.4338700000000  0.5184790000000  0.4753090000000 1.0
C      1  0.5498640000000  0.5472570000000  0.4736900000000 1.0
C      1  0.4833900000000  0.4741010000000  0.4706220000000 1.0
C      1  0.4882960000000  0.5270950000000  0.4788330000000 1.0
C      1  0.5290450000000  0.4955590000000  0.4749060000000 1.0
C      1  0.5992900000000  0.4667770000000  0.5511220000000 1.0
C      1  0.4207610000000  0.4347170000000  0.5495020000000 1.0
C      1  0.4772610000000  0.6027970000000  0.5534100000000 1.0
C      1  0.4971310000000  0.5566870000000  0.5462110000000 1.0
C      1  0.5496060000000  0.4729610000000  0.5426510000000 1.0
C      1  0.4512660000000  0.4736400000000  0.5377470000000 1.0
C      1  0.4922720000000  0.5293180000000  0.5053230000000 1.0
C      1  0.5290720000000  0.4912940000000  0.5014760000000 1.0
C      1  0.4792100000000  0.4784480000000  0.4969180000000 1.0
END
