TITL C-2323480-5884-335 9.09821868636011e-06 125000 -334.7049092555 0 0 60 (C2h) n - 1
REM
REM in /home/bkarasulu/CARBON/AIRSS/Generating-Clusters/LCBOP/Higher-Symm/Only-C60/SD-CG/FIRE-HFTN
REM
REM
REM
REM
REM
REM ./C.cell (50c204cfd26239f34c78669fe23a5462)
REM
REM compiler GCC version 9.2.1 20190827 (Red Hat 9.2.1-1)
REM options -cpp -mtune=generic -march=x86-64 -g -O0 -fpre-include=/usr/include/finclude/math-vector-fortran.h
REM seed -2083319702 536390787 12573412 -568681290 -1105990702 -474156159 213711854 668433009 -415204770 853873709 -1307497902 160910593 1641027162 -898601745 -931656431 -2075044376 257955565 1634574340 400940895 686689724 122338925 41177730 2066399282 -1406621638 465352675 1630957466 193635504 -1828831947 227388081 -1139071686 1969876402 -559239604 1636241435
REM
CELL 1.54180   50.00000   50.00000   50.00000   90.00000   90.00000   90.00000
LATT -1
SFAC C  
C      1  0.5144130000000  0.5268930000000  0.5608820000000 1.0
C      1  0.4856670000000  0.4731000000000  0.5609870000000 1.0
C      1  0.5144520000000  0.5268940000000  0.4390260000000 1.0
C      1  0.4857460000000  0.4731180000000  0.4390540000000 1.0
C      1  0.5143710000000  0.4730250000000  0.5607560000000 1.0
C      1  0.4857090000000  0.5270070000000  0.5608580000000 1.0
C      1  0.5144670000000  0.4729980000000  0.4391500000000 1.0
C      1  0.4857300000000  0.5269320000000  0.4391740000000 1.0
C      1  0.5581300000000  0.5135590000000  0.4599540000000 1.0
C      1  0.4413450000000  0.4865060000000  0.4597940000000 1.0
C      1  0.5580320000000  0.5135490000000  0.5397190000000 1.0
C      1  0.4419380000000  0.4864690000000  0.5400930000000 1.0
C      1  0.5580990000000  0.4862710000000  0.4601370000000 1.0
C      1  0.4413850000000  0.5136680000000  0.4599070000000 1.0
C      1  0.5579840000000  0.4862710000000  0.5395660000000 1.0
C      1  0.4419880000000  0.5137490000000  0.5399240000000 1.0
C      1  0.5268610000000  0.5135330000000  0.5829870000000 1.0
C      1  0.4733640000000  0.4864800000000  0.5831590000000 1.0
C      1  0.5268130000000  0.5135320000000  0.4168750000000 1.0
C      1  0.4732950000000  0.4864270000000  0.4168890000000 1.0
C      1  0.5269580000000  0.4862650000000  0.5828660000000 1.0
C      1  0.4732640000000  0.5137500000000  0.5830360000000 1.0
C      1  0.5269460000000  0.4862630000000  0.4169990000000 1.0
C      1  0.4731770000000  0.5137100000000  0.4170060000000 1.0
C      1  0.5310800000000  0.5264640000000  0.5352270000000 1.0
C      1  0.4688600000000  0.4735310000000  0.5354420000000 1.0
C      1  0.5312120000000  0.5265050000000  0.4645870000000 1.0
C      1  0.4691620000000  0.4742450000000  0.4650500000000 1.0
C      1  0.5309100000000  0.4734850000000  0.5349310000000 1.0
C      1  0.4690370000000  0.5265420000000  0.5351330000000 1.0
C      1  0.5310710000000  0.4734490000000  0.4649020000000 1.0
C      1  0.4692470000000  0.5258270000000  0.4652860000000 1.0
C      1  0.5351750000000  0.5546930000000  0.4725930000000 1.0
C      1  0.4650550000000  0.4457520000000  0.4726040000000 1.0
C      1  0.5350320000000  0.5547670000000  0.5275020000000 1.0
C      1  0.4648730000000  0.4453130000000  0.5274970000000 1.0
C      1  0.5348450000000  0.4453570000000  0.4733150000000 1.0
C      1  0.4653220000000  0.5541720000000  0.4733960000000 1.0
C      1  0.5346990000000  0.4452810000000  0.5267910000000 1.0
C      1  0.4652330000000  0.5546740000000  0.5268120000000 1.0
C      1  0.5125230000000  0.4307170000000  0.5201530000000 1.0
C      1  0.4873970000000  0.5692020000000  0.5200510000000 1.0
C      1  0.5126160000000  0.4308790000000  0.4799710000000 1.0
C      1  0.4874350000000  0.5689100000000  0.4798670000000 1.0
C      1  0.5141590000000  0.5676270000000  0.5144890000000 1.0
C      1  0.4857850000000  0.4324830000000  0.5145170000000 1.0
C      1  0.5141930000000  0.5674930000000  0.4854870000000 1.0
C      1  0.4858640000000  0.4326680000000  0.4855140000000 1.0
C      1  0.5594310000000  0.4335970000000  0.5290420000000 1.0
C      1  0.4404990000000  0.5663640000000  0.5289930000000 1.0
C      1  0.5595840000000  0.4336590000000  0.4713010000000 1.0
C      1  0.4405000000000  0.5657060000000  0.4712620000000 1.0
C      1  0.5581290000000  0.5679690000000  0.5341030000000 1.0
C      1  0.4416960000000  0.4321340000000  0.5338520000000 1.0
C      1  0.5583760000000  0.5678840000000  0.4663560000000 1.0
C      1  0.4418880000000  0.4326980000000  0.4659190000000 1.0
C      1  0.5169310000000  0.4999900000000  0.4828090000000 1.0
C      1  0.4821590000000  0.4999850000000  0.4818980000000 1.0
C      1  0.5167020000000  0.4999970000000  0.5171540000000 1.0
C      1  0.4831860000000  0.5000110000000  0.5173960000000 1.0
END
