TITL C-2323482-8828-195 0.00660152301486719 125000 -358.639321825512 0 0 60 (C1) n - 1
REM
REM in /home/bkarasulu/CARBON/AIRSS/Generating-Clusters/LCBOP/Higher-Symm/Only-C60/SD-CG/FIRE-HFTN
REM
REM
REM
REM
REM
REM ./C.cell (50c204cfd26239f34c78669fe23a5462)
REM
REM compiler GCC version 9.2.1 20190827 (Red Hat 9.2.1-1)
REM options -cpp -mtune=generic -march=x86-64 -g -O0 -fpre-include=/usr/include/finclude/math-vector-fortran.h
REM seed -2089359479 97607804 1417376745 -2115458875 779600616 -819245615 537650142 1857937728 -1941929817 565139117 1301052391 -717084326 1465386854 37589341 1427942332 -1100981546 -2067421041 -1378250815 1943840379 -618301844 180871115 -855610240 -2145008435 -1467292781 -79618552 -213620626 885482725 2049364464 1055152108 -1396905386 -1379107928 251906811 -658024932
REM
CELL 1.54180   50.00000   50.00000   50.00000   90.00000   90.00000   90.00000
LATT -1
SFAC C  
C      1  0.5541760000000  0.5227160000000  0.4489760000000 1.0
C      1  0.5469920000000  0.4853940000000  0.5577070000000 1.0
C      1  0.4729070000000  0.5667150000000  0.5672340000000 1.0
C      1  0.4055070000000  0.4137410000000  0.4305660000000 1.0
C      1  0.4957370000000  0.4977760000000  0.5644840000000 1.0
C      1  0.4947760000000  0.5088660000000  0.4381330000000 1.0
C      1  0.5649370000000  0.4989520000000  0.4542490000000 1.0
C      1  0.5530220000000  0.5099390000000  0.5488270000000 1.0
C      1  0.4291730000000  0.5569560000000  0.5521880000000 1.0
C      1  0.4350350000000  0.4483890000000  0.4568400000000 1.0
C      1  0.5096580000000  0.5211940000000  0.4877650000000 1.0
C      1  0.5143880000000  0.5039900000000  0.5077030000000 1.0
C      1  0.4933750000000  0.4880380000000  0.5176040000000 1.0
C      1  0.4834130000000  0.5289890000000  0.4797820000000 1.0
C      1  0.4900940000000  0.5536520000000  0.5215870000000 1.0
C      1  0.5098290000000  0.4564510000000  0.4837580000000 1.0
C      1  0.5056910000000  0.5438600000000  0.4053790000000 1.0
C      1  0.4795820000000  0.4528880000000  0.5615290000000 1.0
C      1  0.4393690000000  0.5365850000000  0.5355870000000 1.0
C      1  0.4502370000000  0.4665610000000  0.4714840000000 1.0
C      1  0.4243050000000  0.5200960000000  0.4947710000000 1.0
C      1  0.4452130000000  0.4584960000000  0.5206890000000 1.0
C      1  0.5043380000000  0.4822660000000  0.4379850000000 1.0
C      1  0.5025810000000  0.5258640000000  0.5679830000000 1.0
C      1  0.5077740000000  0.4628420000000  0.4562220000000 1.0
C      1  0.4847160000000  0.5444560000000  0.5512380000000 1.0
C      1  0.4581580000000  0.4505170000000  0.5449050000000 1.0
C      1  0.5010120000000  0.5560420000000  0.3828220000000 1.0
C      1  0.5503330000000  0.5818840000000  0.5426960000000 1.0
C      1  0.5793450000000  0.4322200000000  0.4882390000000 1.0
C      1  0.4614120000000  0.4592700000000  0.4968760000000 1.0
C      1  0.4424630000000  0.5378830000000  0.5071530000000 1.0
C      1  0.4461060000000  0.5718900000000  0.5673870000000 1.0
C      1  0.4201770000000  0.4309320000000  0.4435630000000 1.0
C      1  0.4886970000000  0.4651690000000  0.5011750000000 1.0
C      1  0.4703230000000  0.5440700000000  0.5003710000000 1.0
C      1  0.5167060000000  0.6026570000000  0.4859580000000 1.0
C      1  0.5674750000000  0.4214710000000  0.5122190000000 1.0
C      1  0.5488560000000  0.5341640000000  0.5382740000000 1.0
C      1  0.5658490000000  0.4738450000000  0.4629530000000 1.0
C      1  0.5284970000000  0.5608890000000  0.4653490000000 1.0
C      1  0.5335870000000  0.4411410000000  0.5433930000000 1.0
C      1  0.4626950000000  0.5229470000000  0.5445530000000 1.0
C      1  0.4555390000000  0.4925690000000  0.4615370000000 1.0
C      1  0.5599100000000  0.4514780000000  0.4783820000000 1.0
C      1  0.5387140000000  0.5596430000000  0.5315790000000 1.0
C      1  0.4787980000000  0.4990230000000  0.5398750000000 1.0
C      1  0.4741350000000  0.5134900000000  0.4577950000000 1.0
C      1  0.6266300000000  0.4196650000000  0.4662240000000 1.0
C      1  0.6036800000000  0.4255530000000  0.4770780000000 1.0
C      1  0.4149910000000  0.4964750000000  0.5042870000000 1.0
C      1  0.4219520000000  0.4745020000000  0.5183910000000 1.0
C      1  0.5349690000000  0.4480600000000  0.4934890000000 1.0
C      1  0.5163730000000  0.5631670000000  0.5138960000000 1.0
C      1  0.5019960000000  0.4700380000000  0.5672940000000 1.0
C      1  0.5106420000000  0.5310580000000  0.4296170000000 1.0
C      1  0.5418510000000  0.4335250000000  0.5179830000000 1.0
C      1  0.5206410000000  0.5755910000000  0.4882450000000 1.0
C      1  0.5287300000000  0.4637210000000  0.5592960000000 1.0
C      1  0.5319320000000  0.5397800000000  0.4468740000000 1.0
END
