TITL C-2323480-5884-53 -1.0840709052044e-06 125000 -357.947496853489 0 0 60 (D3) n - 1
REM
REM in /home/bkarasulu/CARBON/AIRSS/Generating-Clusters/LCBOP/Higher-Symm/Only-C60/SD-CG/FIRE-HFTN
REM
REM
REM
REM
REM
REM ./C.cell (50c204cfd26239f34c78669fe23a5462)
REM
REM compiler GCC version 9.2.1 20190827 (Red Hat 9.2.1-1)
REM options -cpp -mtune=generic -march=x86-64 -g -O0 -fpre-include=/usr/include/finclude/math-vector-fortran.h
REM seed -39117999 -1875883554 -1997386593 720145893 -1701219932 1566528711 -514817114 -1155122199 -1539773163 1675012186 1039435071 -745575809 -1054371147 1438734164 1560360825 -1379089414 -934924823 -1969119506 1023916957 -1946841543 -667465478 1928375119 217754878 845800436 -1097654817 770549865 1106787186 -2070235838 -1104061413 -1098171942 974535040 1095872484 -915361890
REM
CELL 1.54180   50.00000   50.00000   50.00000   90.00000   90.00000   90.00000
LATT -1
SFAC C  
C      1  0.4760360000000  0.5466680000000  0.4146230000000 1.0
C      1  0.4715690000000  0.4556850000000  0.4149970000000 1.0
C      1  0.5527110000000  0.4974730000000  0.4151140000000 1.0
C      1  0.5241600000000  0.5467810000000  0.5850030000000 1.0
C      1  0.5285430000000  0.4556160000000  0.5848870000000 1.0
C      1  0.4476010000000  0.4974200000000  0.5853760000000 1.0
C      1  0.4854420000000  0.4391180000000  0.5644400000000 1.0
C      1  0.5601300000000  0.5178060000000  0.5647100000000 1.0
C      1  0.4545390000000  0.5429520000000  0.5648200000000 1.0
C      1  0.5146470000000  0.4390230000000  0.4352900000000 1.0
C      1  0.4400730000000  0.5178920000000  0.4351790000000 1.0
C      1  0.5454470000000  0.5430480000000  0.4355610000000 1.0
C      1  0.5130420000000  0.4542090000000  0.4986170000000 1.0
C      1  0.5329130000000  0.5344330000000  0.4987080000000 1.0
C      1  0.4532820000000  0.5117270000000  0.4986600000000 1.0
C      1  0.4866370000000  0.4542790000000  0.5012920000000 1.0
C      1  0.4664840000000  0.5345950000000  0.5013390000000 1.0
C      1  0.5461770000000  0.5116020000000  0.5013830000000 1.0
C      1  0.5099570000000  0.4819350000000  0.3775830000000 1.0
C      1  0.5115450000000  0.5178090000000  0.3772880000000 1.0
C      1  0.4789500000000  0.5000420000000  0.3772090000000 1.0
C      1  0.4903470000000  0.4810980000000  0.6227120000000 1.0
C      1  0.4894360000000  0.5182100000000  0.6227910000000 1.0
C      1  0.5206210000000  0.5004120000000  0.6224180000000 1.0
C      1  0.4601500000000  0.4724730000000  0.5835710000000 1.0
C      1  0.5437630000000  0.4790560000000  0.5833720000000 1.0
C      1  0.4962600000000  0.5483790000000  0.5834520000000 1.0
C      1  0.5400220000000  0.4725720000000  0.4166290000000 1.0
C      1  0.4562340000000  0.4790480000000  0.4165470000000 1.0
C      1  0.5039150000000  0.5482730000000  0.4164290000000 1.0
C      1  0.5111580000000  0.5506800000000  0.4916020000000 1.0
C      1  0.4502000000000  0.4847390000000  0.4916100000000 1.0
C      1  0.5380580000000  0.4648310000000  0.4916150000000 1.0
C      1  0.4883160000000  0.5507590000000  0.5083890000000 1.0
C      1  0.5494860000000  0.4846260000000  0.5083860000000 1.0
C      1  0.4616900000000  0.4649960000000  0.5083980000000 1.0
C      1  0.4800240000000  0.5314990000000  0.6009140000000 1.0
C      1  0.4829910000000  0.4666220000000  0.6007960000000 1.0
C      1  0.5371640000000  0.5016250000000  0.6007180000000 1.0
C      1  0.5204030000000  0.5314180000000  0.3992040000000 1.0
C      1  0.5171770000000  0.4670010000000  0.3992830000000 1.0
C      1  0.4627350000000  0.5015490000000  0.3990850000000 1.0
C      1  0.5588090000000  0.4789660000000  0.5342510000000 1.0
C      1  0.4886890000000  0.5614800000000  0.5343290000000 1.0
C      1  0.4522700000000  0.4598690000000  0.5343400000000 1.0
C      1  0.4411030000000  0.4790540000000  0.4656700000000 1.0
C      1  0.5108890000000  0.5614010000000  0.4656590000000 1.0
C      1  0.5476220000000  0.4595880000000  0.4657510000000 1.0
C      1  0.5432630000000  0.5264330000000  0.5863880000000 1.0
C      1  0.4555550000000  0.5241710000000  0.5866250000000 1.0
C      1  0.5013950000000  0.4491310000000  0.5862050000000 1.0
C      1  0.4568460000000  0.5264030000000  0.4133740000000 1.0
C      1  0.5447530000000  0.5242260000000  0.4137950000000 1.0
C      1  0.4987430000000  0.4493160000000  0.4136120000000 1.0
C      1  0.4420680000000  0.4892880000000  0.4398490000000 1.0
C      1  0.5383570000000  0.4551490000000  0.4399230000000 1.0
C      1  0.5195690000000  0.5555120000000  0.4399190000000 1.0
C      1  0.5580190000000  0.4892090000000  0.5600780000000 1.0
C      1  0.4617090000000  0.4552970000000  0.5600810000000 1.0
C      1  0.4803090000000  0.5555270000000  0.5601500000000 1.0
END
