TITL C-2323484-8600-408 -4.27607477939113e-07 125000 -353.414421598077 0 0 60 (D5) n - 1
REM
REM in /home/bkarasulu/CARBON/AIRSS/Generating-Clusters/LCBOP/Higher-Symm/Only-C60/SD-CG/FIRE-HFTN
REM
REM
REM
REM
REM
REM ./C.cell (50c204cfd26239f34c78669fe23a5462)
REM
REM compiler GCC version 9.2.1 20190827 (Red Hat 9.2.1-1)
REM options -cpp -mtune=generic -march=x86-64 -g -O0 -fpre-include=/usr/include/finclude/math-vector-fortran.h
REM seed -1317272688 1094544095 902368543 -1999972060 641072855 -444348138 -1948122752 62441242 925083780 455802617 876041115 -970712059 527986026 848424183 2026390745 -530641736 841415856 673412682 1528261772 1042595542 -2058676097 -1994534002 505993829 1592336203 761238007 1226689873 -1398311433 52619243 -1351524219 1066108423 713322835 -706252673 1404839768
REM
CELL 1.54180   50.00000   50.00000   50.00000   90.00000   90.00000   90.00000
LATT -1
SFAC C  
C      1  0.5416240000000  0.4358630000000  0.5126270000000 1.0
C      1  0.5248710000000  0.4358630000000  0.4643160000000 1.0
C      1  0.4737480000000  0.4358630000000  0.4653190000000 1.0
C      1  0.4589040000000  0.4358630000000  0.5142500000000 1.0
C      1  0.5008540000000  0.4358630000000  0.5434880000000 1.0
C      1  0.5416240000000  0.5641370000000  0.4873730000000 1.0
C      1  0.5248710000000  0.5641370000000  0.5356840000000 1.0
C      1  0.4737480000000  0.5641370000000  0.5346810000000 1.0
C      1  0.4589040000000  0.5641370000000  0.4857500000000 1.0
C      1  0.5008540000000  0.5641370000000  0.4565120000000 1.0
C      1  0.4362600000000  0.5019320000000  0.5287410000000 1.0
C      1  0.5076370000000  0.5019320000000  0.5695020000000 1.0
C      1  0.5684600000000  0.5019320000000  0.5142140000000 1.0
C      1  0.5346730000000  0.5019320000000  0.4392830000000 1.0
C      1  0.4529690000000  0.5019320000000  0.4482610000000 1.0
C      1  0.4362600000000  0.4980680000000  0.4712590000000 1.0
C      1  0.5076370000000  0.4980680000000  0.4304980000000 1.0
C      1  0.5684600000000  0.4980680000000  0.4857860000000 1.0
C      1  0.5346730000000  0.4980680000000  0.5607170000000 1.0
C      1  0.4529690000000  0.4980680000000  0.5517390000000 1.0
C      1  0.4468530000000  0.5191210000000  0.4886670000000 1.0
C      1  0.4727980000000  0.5191210000000  0.5470440000000 1.0
C      1  0.5363360000000  0.5191210000000  0.5404080000000 1.0
C      1  0.5496580000000  0.5191210000000  0.4779290000000 1.0
C      1  0.4943550000000  0.5191210000000  0.4459520000000 1.0
C      1  0.4468530000000  0.4808790000000  0.5113330000000 1.0
C      1  0.4727980000000  0.4808790000000  0.4529560000000 1.0
C      1  0.5363360000000  0.4808790000000  0.4595920000000 1.0
C      1  0.5496580000000  0.4808790000000  0.5220710000000 1.0
C      1  0.4943550000000  0.4808790000000  0.5540480000000 1.0
C      1  0.5418550000000  0.5288120000000  0.4513590000000 1.0
C      1  0.4666730000000  0.5288120000000  0.4451620000000 1.0
C      1  0.4375480000000  0.5288120000000  0.5147500000000 1.0
C      1  0.4947290000000  0.5288110000000  0.5639540000000 1.0
C      1  0.5591950000000  0.5288120000000  0.5247760000000 1.0
C      1  0.5418550000000  0.4711880000000  0.5486410000000 1.0
C      1  0.4666730000000  0.4711880000000  0.5548380000000 1.0
C      1  0.4375480000000  0.4711880000000  0.4852500000000 1.0
C      1  0.4947290000000  0.4711890000000  0.4360460000000 1.0
C      1  0.5591950000000  0.4711880000000  0.4752240000000 1.0
C      1  0.4996610000000  0.5213230000000  0.4751750000000 1.0
C      1  0.4762850000000  0.5213230000000  0.4926520000000 1.0
C      1  0.4856830000000  0.5213230000000  0.5202830000000 1.0
C      1  0.5148660000000  0.5213230000000  0.5198840000000 1.0
C      1  0.5235050000000  0.5213230000000  0.4920060000000 1.0
C      1  0.4996610000000  0.4786770000000  0.5248250000000 1.0
C      1  0.4762850000000  0.4786770000000  0.5073480000000 1.0
C      1  0.4856830000000  0.4786770000000  0.4797170000000 1.0
C      1  0.5148660000000  0.4786770000000  0.4801160000000 1.0
C      1  0.5235050000000  0.4786770000000  0.5079940000000 1.0
C      1  0.5293260000000  0.4439700000000  0.5395410000000 1.0
C      1  0.5466680000000  0.4439700000000  0.4843280000000 1.0
C      1  0.4995170000000  0.4439700000000  0.4507730000000 1.0
C      1  0.4530330000000  0.4439700000000  0.4852480000000 1.0
C      1  0.4714560000000  0.4439700000000  0.5401100000000 1.0
C      1  0.5293260000000  0.5560300000000  0.4604590000000 1.0
C      1  0.5466680000000  0.5560300000000  0.5156720000000 1.0
C      1  0.4995170000000  0.5560300000000  0.5492270000000 1.0
C      1  0.4530330000000  0.5560300000000  0.5147520000000 1.0
C      1  0.4714560000000  0.5560300000000  0.4598900000000 1.0
END
