TITL C-2323479-8056-48 0.000133582231386009 125000 -364.09147014569 0 0 60 (C3) n - 1
REM
REM in /home/bkarasulu/CARBON/AIRSS/Generating-Clusters/LCBOP/Higher-Symm/Only-C60/SD-CG/FIRE-HFTN
REM
REM
REM
REM
REM
REM ./C.cell (50c204cfd26239f34c78669fe23a5462)
REM
REM compiler GCC version 9.2.1 20190827 (Red Hat 9.2.1-1)
REM options -cpp -mtune=generic -march=x86-64 -g -O0 -fpre-include=/usr/include/finclude/math-vector-fortran.h
REM seed 582207158 675973593 1158554114 -1789966029 -1424085859 1456374159 -122609030 439696613 -559657162 1568170174 1513103137 -312088257 -1613003269 1769749033 824687614 1279974894 1839563971 588763298 1281126913 2046797732 -470318329 -839784107 -671817439 2033021777 -1906911080 -416036079 1804363280 1134169870 1475460348 -1770731871 796021688 183907203 1759638322
REM
CELL 1.54180   50.00000   50.00000   50.00000   90.00000   90.00000   90.00000
LATT -1
SFAC C  
C      1  0.5243440000000  0.5043240000000  0.4659170000000 1.0
C      1  0.5173430000000  0.5043280000000  0.5381240000000 1.0
C      1  0.4583110000000  0.5043130000000  0.4959580000000 1.0
C      1  0.4174630000000  0.4584650000000  0.5327810000000 1.0
C      1  0.5128950000000  0.4584750000000  0.4121270000000 1.0
C      1  0.5696680000000  0.4584970000000  0.5551010000000 1.0
C      1  0.5092930000000  0.5280720000000  0.5256670000000 1.0
C      1  0.4731150000000  0.5280630000000  0.4952160000000 1.0
C      1  0.5175750000000  0.5280700000000  0.4791110000000 1.0
C      1  0.4553080000000  0.4740860000000  0.5603280000000 1.0
C      1  0.4701100000000  0.4740790000000  0.4311290000000 1.0
C      1  0.5745980000000  0.4741060000000  0.5085480000000 1.0
C      1  0.3988890000000  0.4561380000000  0.5136070000000 1.0
C      1  0.5387880000000  0.4561580000000  0.4056290000000 1.0
C      1  0.5623500000000  0.4561760000000  0.5807740000000 1.0
C      1  0.4914400000000  0.4585330000000  0.5896290000000 1.0
C      1  0.4266750000000  0.4585090000000  0.4477690000000 1.0
C      1  0.5819110000000  0.4585420000000  0.4626110000000 1.0
C      1  0.5760770000000  0.4542750000000  0.4368250000000 1.0
C      1  0.5166900000000  0.4542750000000  0.5974690000000 1.0
C      1  0.4072610000000  0.4542430000000  0.4657160000000 1.0
C      1  0.5129880000000  0.4847800000000  0.4517930000000 1.0
C      1  0.5352600000000  0.4847910000000  0.5353500000000 1.0
C      1  0.4517610000000  0.4847720000000  0.5128600000000 1.0
C      1  0.5669690000000  0.5186400000000  0.4241500000000 1.0
C      1  0.5321970000000  0.5186460000000  0.5959230000000 1.0
C      1  0.4008230000000  0.5186110000000  0.4799230000000 1.0
C      1  0.5040910000000  0.5197400000000  0.5937220000000 1.0
C      1  0.4167810000000  0.5197130000000  0.4566830000000 1.0
C      1  0.5791160000000  0.5197450000000  0.4495900000000 1.0
C      1  0.4419030000000  0.4719820000000  0.5358810000000 1.0
C      1  0.4979850000000  0.4719850000000  0.4317440000000 1.0
C      1  0.5601290000000  0.4720050000000  0.5323810000000 1.0
C      1  0.4826140000000  0.5052120000000  0.5869480000000 1.0
C      1  0.4333920000000  0.5051920000000  0.4414690000000 1.0
C      1  0.5839910000000  0.5052240000000  0.4715820000000 1.0
C      1  0.5814650000000  0.4790830000000  0.4819200000000 1.0
C      1  0.4749330000000  0.4790680000000  0.5795900000000 1.0
C      1  0.4436140000000  0.4790520000000  0.4384950000000 1.0
C      1  0.4857980000000  0.5487710000000  0.4495170000000 1.0
C      1  0.5508030000000  0.5487890000000  0.5129450000000 1.0
C      1  0.4633700000000  0.5487730000000  0.5375270000000 1.0
C      1  0.5485130000000  0.5380490000000  0.4159280000000 1.0
C      1  0.5485380000000  0.5380620000000  0.5840520000000 1.0
C      1  0.4029260000000  0.5380260000000  0.5000110000000 1.0
C      1  0.5006300000000  0.5535590000000  0.4277040000000 1.0
C      1  0.5622760000000  0.5535790000000  0.5366970000000 1.0
C      1  0.4370620000000  0.5535540000000  0.5355870000000 1.0
C      1  0.4824280000000  0.5361940000000  0.5214360000000 1.0
C      1  0.4902080000000  0.5361920000000  0.4740660000000 1.0
C      1  0.5273420000000  0.5362020000000  0.5044890000000 1.0
C      1  0.5601990000000  0.5496060000000  0.5630310000000 1.0
C      1  0.4152960000000  0.5495740000000  0.5206220000000 1.0
C      1  0.5244750000000  0.5495880000000  0.4163360000000 1.0
C      1  0.5685770000000  0.4939200000000  0.4106550000000 1.0
C      1  0.5430890000000  0.4939290000000  0.6040610000000 1.0
C      1  0.3883380000000  0.4938890000000  0.4852850000000 1.0
C      1  0.5420060000000  0.4666080000000  0.5970880000000 1.0
C      1  0.3949280000000  0.4665700000000  0.4878320000000 1.0
C      1  0.5630860000000  0.4665990000000  0.4150870000000 1.0
END
