TITL C-2323491-8878-418 -439021.857724581 125000 -337.658958041385 0 0 60 (Cs) n - 1
REM
REM in /home/bkarasulu/CARBON/AIRSS/Generating-Clusters/LCBOP/Higher-Symm/Only-C60/SD-CG/FIRE-HFTN
REM
REM
REM
REM
REM
REM ./C.cell (50c204cfd26239f34c78669fe23a5462)
REM
REM compiler GCC version 9.2.1 20190827 (Red Hat 9.2.1-1)
REM options -cpp -mtune=generic -march=x86-64 -g -O0 -fpre-include=/usr/include/finclude/math-vector-fortran.h
REM seed -339537403 -1757675333 -1831683200 -640413089 -101052107 1923205534 -1779524240 912423190 734523957 865049898 -1537150657 -1376799555 -1168075476 580688287 1622657820 -1933619828 -1098337125 -2072931470 89217849 2103820320 -1344607816 -688797451 1915866484 -534405597 -1951964096 -1309325802 -1220039324 -1441150078 -373843975 549944906 -230724319 -609014764 -1922762014
REM
CELL 1.54180   50.00000   50.00000   50.00000   90.00000   90.00000   90.00000
LATT -1
SFAC C  
C      1  0.4769610000000  0.5639770000000  0.4687200000000 1.0
C      1  0.4762320000000  0.4357810000000  0.5292780000000 1.0
C      1  0.5246730000000  0.5659560000000  0.4702990000000 1.0
C      1  0.5239280000000  0.4375730000000  0.5316040000000 1.0
C      1  0.4762360000000  0.5642280000000  0.5292660000000 1.0
C      1  0.4769590000000  0.4360170000000  0.4687330000000 1.0
C      1  0.5239320000000  0.5624290000000  0.5315900000000 1.0
C      1  0.5246710000000  0.4340360000000  0.4703130000000 1.0
C      1  0.4657280000000  0.4817080000000  0.5563460000000 1.0
C      1  0.4704550000000  0.5196840000000  0.4432910000000 1.0
C      1  0.5323590000000  0.4828350000000  0.5585380000000 1.0
C      1  0.5290350000000  0.5182850000000  0.4441660000000 1.0
C      1  0.4704550000000  0.4803050000000  0.4432960000000 1.0
C      1  0.4657280000000  0.5183070000000  0.5563430000000 1.0
C      1  0.5290340000000  0.4817020000000  0.4441690000000 1.0
C      1  0.5323480000000  0.5171820000000  0.5585580000000 1.0
C      1  0.4528210000000  0.4771200000000  0.5303940000000 1.0
C      1  0.4592350000000  0.5157410000000  0.4710740000000 1.0
C      1  0.5483610000000  0.4842480000000  0.5299440000000 1.0
C      1  0.5397720000000  0.5216180000000  0.4705930000000 1.0
C      1  0.4592350000000  0.4842550000000  0.4710770000000 1.0
C      1  0.4528210000000  0.5228920000000  0.5303910000000 1.0
C      1  0.5397710000000  0.4783740000000  0.4705980000000 1.0
C      1  0.5483610000000  0.5157430000000  0.5299350000000 1.0
C      1  0.5138050000000  0.4563090000000  0.4430910000000 1.0
C      1  0.5153730000000  0.5418220000000  0.5536640000000 1.0
C      1  0.4848100000000  0.4550910000000  0.4459880000000 1.0
C      1  0.4855970000000  0.5408360000000  0.5552110000000 1.0
C      1  0.5153730000000  0.4581910000000  0.5536710000000 1.0
C      1  0.5138060000000  0.5436780000000  0.4430820000000 1.0
C      1  0.4855960000000  0.4591790000000  0.5552180000000 1.0
C      1  0.4848110000000  0.5448990000000  0.4459790000000 1.0
C      1  0.4345780000000  0.4742690000000  0.4853240000000 1.0
C      1  0.4309780000000  0.5278650000000  0.5127680000000 1.0
C      1  0.5643660000000  0.4740610000000  0.4844680000000 1.0
C      1  0.5699810000000  0.5250550000000  0.5115500000000 1.0
C      1  0.4309780000000  0.4721410000000  0.5127730000000 1.0
C      1  0.4345780000000  0.5257300000000  0.4853190000000 1.0
C      1  0.5699800000000  0.4749390000000  0.5115560000000 1.0
C      1  0.5643680000000  0.5259310000000  0.4844610000000 1.0
C      1  0.5469950000000  0.4284720000000  0.4873670000000 1.0
C      1  0.5466300000000  0.5701540000000  0.5151470000000 1.0
C      1  0.4541540000000  0.4291420000000  0.4849760000000 1.0
C      1  0.4539580000000  0.5711150000000  0.5127080000000 1.0
C      1  0.5466260000000  0.4298430000000  0.5151630000000 1.0
C      1  0.5469980000000  0.5715210000000  0.4873510000000 1.0
C      1  0.4539540000000  0.4288910000000  0.5127210000000 1.0
C      1  0.4541570000000  0.5708570000000  0.4849630000000 1.0
C      1  0.5244340000000  0.5234350000000  0.5135820000000 1.0
C      1  0.5144910000000  0.4843830000000  0.4873380000000 1.0
C      1  0.4746440000000  0.5141730000000  0.5138920000000 1.0
C      1  0.4846330000000  0.4778340000000  0.4886060000000 1.0
C      1  0.5144920000000  0.5156150000000  0.4873350000000 1.0
C      1  0.5244290000000  0.4765640000000  0.5135850000000 1.0
C      1  0.4846350000000  0.5221670000000  0.4886000000000 1.0
C      1  0.4746440000000  0.4858390000000  0.5138950000000 1.0
C      1  0.5004420000000  0.4309310000000  0.5149740000000 1.0
C      1  0.5005720000000  0.4300490000000  0.4851060000000 1.0
C      1  0.5005750000000  0.5699480000000  0.4850920000000 1.0
C      1  0.5004460000000  0.5690720000000  0.5149600000000 1.0
END
