TITL C-2323478-8180-132 5.56383918097687 125000 -359.345249778233 0 0 60 (C1) n - 1
REM
REM in /home/bkarasulu/CARBON/AIRSS/Generating-Clusters/LCBOP/Higher-Symm/Only-C60/SD-CG/FIRE-HFTN
REM
REM
REM
REM
REM
REM ./C.cell (50c204cfd26239f34c78669fe23a5462)
REM
REM compiler GCC version 9.2.1 20190827 (Red Hat 9.2.1-1)
REM options -cpp -mtune=generic -march=x86-64 -g -O0 -fpre-include=/usr/include/finclude/math-vector-fortran.h
REM seed -1397294713 -1744564078 -657134861 1034670747 -1248696431 -654777015 819115211 -1467063149 -1899982779 1112269887 1049956545 -1420776728 -719188669 718779853 231563693 -1056991073 -1143842493 1728002191 342592836 -361100527 -1936636682 2118455868 1296433152 -1348963708 -2011178040 -1079584841 -1392554575 -148074965 174535570 759301190 661066337 -154761906 -603695298
REM
CELL 1.54180   50.00000   50.00000   50.00000   90.00000   90.00000   90.00000
LATT -1
SFAC C  
C      1  0.4631900000000  0.5257110000000  0.5800770000000 1.0
C      1  0.4892030000000  0.4678050000000  0.4237090000000 1.0
C      1  0.4343720000000  0.4709770000000  0.5042230000000 1.0
C      1  0.4752140000000  0.5932620000000  0.4622990000000 1.0
C      1  0.5206110000000  0.3746620000000  0.5133720000000 1.0
C      1  0.4847480000000  0.5674250000000  0.5679380000000 1.0
C      1  0.5621500000000  0.5857820000000  0.5066710000000 1.0
C      1  0.4654960000000  0.4710760000000  0.4356860000000 1.0
C      1  0.5588710000000  0.4980670000000  0.5117830000000 1.0
C      1  0.5138380000000  0.4570960000000  0.4148770000000 1.0
C      1  0.5250440000000  0.5985260000000  0.5347730000000 1.0
C      1  0.5243920000000  0.5563210000000  0.4886010000000 1.0
C      1  0.4984450000000  0.4574070000000  0.5529380000000 1.0
C      1  0.4804070000000  0.5760630000000  0.5411860000000 1.0
C      1  0.4874850000000  0.5403410000000  0.5763770000000 1.0
C      1  0.5471000000000  0.5200000000000  0.4670700000000 1.0
C      1  0.4789210000000  0.5773010000000  0.4846010000000 1.0
C      1  0.4473030000000  0.5194780000000  0.5574690000000 1.0
C      1  0.5471820000000  0.5090500000000  0.4408830000000 1.0
C      1  0.5262010000000  0.3946910000000  0.5300400000000 1.0
C      1  0.4905440000000  0.4349340000000  0.4672970000000 1.0
C      1  0.5159550000000  0.5179960000000  0.5382410000000 1.0
C      1  0.5086020000000  0.5061620000000  0.4930270000000 1.0
C      1  0.5104020000000  0.4769990000000  0.4925510000000 1.0
C      1  0.5088200000000  0.3700070000000  0.4898650000000 1.0
C      1  0.5087000000000  0.5262370000000  0.5640700000000 1.0
C      1  0.5671250000000  0.4581850000000  0.4876400000000 1.0
C      1  0.4544690000000  0.5351070000000  0.5351380000000 1.0
C      1  0.5260940000000  0.4635840000000  0.5130690000000 1.0
C      1  0.4723260000000  0.4629820000000  0.5980850000000 1.0
C      1  0.4585270000000  0.5631710000000  0.5273170000000 1.0
C      1  0.4180270000000  0.4647260000000  0.4356900000000 1.0
C      1  0.4345890000000  0.4952480000000  0.5507610000000 1.0
C      1  0.5243320000000  0.4205530000000  0.5358330000000 1.0
C      1  0.5538580000000  0.4689400000000  0.5108620000000 1.0
C      1  0.5507940000000  0.5995670000000  0.5268980000000 1.0
C      1  0.5029650000000  0.5839570000000  0.5253060000000 1.0
C      1  0.4313880000000  0.4789530000000  0.5296130000000 1.0
C      1  0.4686720000000  0.5210640000000  0.5138900000000 1.0
C      1  0.4398590000000  0.4686530000000  0.4781470000000 1.0
C      1  0.5651100000000  0.5040580000000  0.4835700000000 1.0
C      1  0.5688960000000  0.4783350000000  0.4671180000000 1.0
C      1  0.4969090000000  0.4593890000000  0.4756620000000 1.0
C      1  0.5140920000000  0.4400440000000  0.3934310000000 1.0
C      1  0.4510770000000  0.5242020000000  0.4656650000000 1.0
C      1  0.4960800000000  0.5147110000000  0.5172180000000 1.0
C      1  0.4586800000000  0.5622440000000  0.4974580000000 1.0
C      1  0.4412370000000  0.4681790000000  0.4499090000000 1.0
C      1  0.4720020000000  0.6079990000000  0.4410480000000 1.0
C      1  0.5547750000000  0.4810810000000  0.4415860000000 1.0
C      1  0.5381540000000  0.4634900000000  0.4277190000000 1.0
C      1  0.5504320000000  0.5678700000000  0.4903240000000 1.0
C      1  0.5431880000000  0.5127970000000  0.5304210000000 1.0
C      1  0.4901700000000  0.4086760000000  0.4633230000000 1.0
C      1  0.5235800000000  0.5283190000000  0.4804730000000 1.0
C      1  0.5036260000000  0.5736810000000  0.4981240000000 1.0
C      1  0.4967390000000  0.3838950000000  0.4705260000000 1.0
C      1  0.4845410000000  0.4616610000000  0.5750900000000 1.0
C      1  0.4584970000000  0.5340840000000  0.4897050000000 1.0
C      1  0.5159930000000  0.4472190000000  0.5337600000000 1.0
END
