TITL C-2323490-8774-415 1.57391475641036e-06 125000 -366.664001506875 0 0 60 (C1) n - 1
REM
REM in /home/bkarasulu/CARBON/AIRSS/Generating-Clusters/LCBOP/Higher-Symm/Only-C60/SD-CG/FIRE-HFTN
REM
REM
REM
REM
REM
REM ./C.cell (50c204cfd26239f34c78669fe23a5462)
REM
REM compiler GCC version 9.2.1 20190827 (Red Hat 9.2.1-1)
REM options -cpp -mtune=generic -march=x86-64 -g -O0 -fpre-include=/usr/include/finclude/math-vector-fortran.h
REM seed -362160075 -229302029 -1363290925 2011610702 534203523 367103974 -1129914288 -1853034317 -907064019 -503140107 -1948615852 1655171639 293638543 -1820727983 676503948 -388721040 1267261669 1069562322 422792674 607481487 1187440483 -1480409010 369574486 192901110 -1628546246 1707862158 1153956789 205799289 459552743 -2874411 414294627 -980944200 1524284302
REM
CELL 1.54180   50.00000   50.00000   50.00000   90.00000   90.00000   90.00000
LATT -1
SFAC C  
C      1  0.5492250000000  0.5181450000000  0.4970430000000 1.0
C      1  0.4627490000000  0.4863000000000  0.5166000000000 1.0
C      1  0.5134030000000  0.5283620000000  0.5222120000000 1.0
C      1  0.4555330000000  0.4451070000000  0.4986460000000 1.0
C      1  0.5237210000000  0.5550710000000  0.5200080000000 1.0
C      1  0.4334140000000  0.4448580000000  0.5168950000000 1.0
C      1  0.4767890000000  0.4615090000000  0.5098060000000 1.0
C      1  0.5206090000000  0.5136950000000  0.4981680000000 1.0
C      1  0.5315410000000  0.4440150000000  0.5737510000000 1.0
C      1  0.4914730000000  0.5043150000000  0.4219690000000 1.0
C      1  0.4873770000000  0.5105290000000  0.5602710000000 1.0
C      1  0.5753530000000  0.5291730000000  0.4419550000000 1.0
C      1  0.4678920000000  0.3993740000000  0.5593820000000 1.0
C      1  0.4832650000000  0.5902970000000  0.4745330000000 1.0
C      1  0.5121440000000  0.5121790000000  0.5456350000000 1.0
C      1  0.4525450000000  0.4440700000000  0.4709030000000 1.0
C      1  0.5384810000000  0.4457990000000  0.5459660000000 1.0
C      1  0.4725230000000  0.5035000000000  0.4430820000000 1.0
C      1  0.5815690000000  0.4790320000000  0.4958770000000 1.0
C      1  0.4079340000000  0.5182930000000  0.4589730000000 1.0
C      1  0.5542230000000  0.5434590000000  0.4839640000000 1.0
C      1  0.4501320000000  0.4826370000000  0.5427600000000 1.0
C      1  0.5921970000000  0.5066820000000  0.4500780000000 1.0
C      1  0.4041080000000  0.5477060000000  0.5018270000000 1.0
C      1  0.4152210000000  0.5559950000000  0.5244940000000 1.0
C      1  0.6147060000000  0.5018020000000  0.4331970000000 1.0
C      1  0.4011920000000  0.5344330000000  0.4789910000000 1.0
C      1  0.5878080000000  0.4906710000000  0.4726760000000 1.0
C      1  0.6059030000000  0.5375660000000  0.4040530000000 1.0
C      1  0.4529540000000  0.5499930000000  0.5599110000000 1.0
C      1  0.4346780000000  0.4576960000000  0.5429230000000 1.0
C      1  0.5401550000000  0.5646020000000  0.4978350000000 1.0
C      1  0.5060770000000  0.4521900000000  0.5794950000000 1.0
C      1  0.5165390000000  0.5144700000000  0.4250870000000 1.0
C      1  0.6214540000000  0.5164180000000  0.4112680000000 1.0
C      1  0.4323890000000  0.5573130000000  0.5447340000000 1.0
C      1  0.5168120000000  0.4348370000000  0.5299340000000 1.0
C      1  0.4808360000000  0.5188410000000  0.4660160000000 1.0
C      1  0.5085790000000  0.5984200000000  0.4774830000000 1.0
C      1  0.4488210000000  0.4160120000000  0.5681620000000 1.0
C      1  0.4486990000000  0.4883480000000  0.4439550000000 1.0
C      1  0.5487320000000  0.4714170000000  0.5380470000000 1.0
C      1  0.4677330000000  0.5685790000000  0.4747480000000 1.0
C      1  0.4898780000000  0.3951830000000  0.5446350000000 1.0
C      1  0.4893170000000  0.4621270000000  0.5587470000000 1.0
C      1  0.5267310000000  0.5230770000000  0.4500840000000 1.0
C      1  0.4358220000000  0.4392470000000  0.5642850000000 1.0
C      1  0.5321010000000  0.5885910000000  0.4857780000000 1.0
C      1  0.5086090000000  0.5168810000000  0.4725760000000 1.0
C      1  0.4941490000000  0.4525000000000  0.5309160000000 1.0
C      1  0.4242720000000  0.5019870000000  0.4457530000000 1.0
C      1  0.5689820000000  0.4735650000000  0.5187840000000 1.0
C      1  0.5339740000000  0.4938950000000  0.5479090000000 1.0
C      1  0.4499480000000  0.4610580000000  0.4504210000000 1.0
C      1  0.5098590000000  0.4075070000000  0.5314030000000 1.0
C      1  0.4669280000000  0.5419330000000  0.4736460000000 1.0
C      1  0.4731760000000  0.4854720000000  0.5603870000000 1.0
C      1  0.5518270000000  0.5359530000000  0.4559880000000 1.0
C      1  0.5839190000000  0.5435400000000  0.4189190000000 1.0
C      1  0.4730200000000  0.5337750000000  0.5664540000000 1.0
END
