TITL C-2323482-8828-284 5.36967949114165e-05 125000 -358.899232084654 0 0 60 (C1) n - 1
REM
REM in /home/bkarasulu/CARBON/AIRSS/Generating-Clusters/LCBOP/Higher-Symm/Only-C60/SD-CG/FIRE-HFTN
REM
REM
REM
REM
REM
REM ./C.cell (50c204cfd26239f34c78669fe23a5462)
REM
REM compiler GCC version 9.2.1 20190827 (Red Hat 9.2.1-1)
REM options -cpp -mtune=generic -march=x86-64 -g -O0 -fpre-include=/usr/include/finclude/math-vector-fortran.h
REM seed 1660769151 1540023334 703390202 -730269459 1087278877 1616887504 -749157767 100177850 -593652640 -1584731129 -446651745 1460359787 -301411100 -1556143042 1295068065 1197915247 892421188 -1294959923 -2055307688 -155030967 181790841 -853917817 -1185836382 1352224555 860561440 537413103 1124814716 -1251360690 1020873201 1071678403 -306900774 633250545 158417794
REM
CELL 1.54180   50.00000   50.00000   50.00000   90.00000   90.00000   90.00000
LATT -1
SFAC C  
C      1  0.5732210000000  0.4581200000000  0.4570910000000 1.0
C      1  0.4389180000000  0.5538680000000  0.4802760000000 1.0
C      1  0.5568760000000  0.5200670000000  0.5572310000000 1.0
C      1  0.4258000000000  0.4553710000000  0.5311890000000 1.0
C      1  0.4714120000000  0.5065770000000  0.4125880000000 1.0
C      1  0.5148160000000  0.5882630000000  0.5019270000000 1.0
C      1  0.4824180000000  0.5033440000000  0.5777010000000 1.0
C      1  0.5168360000000  0.4181380000000  0.5090370000000 1.0
C      1  0.4907060000000  0.5264740000000  0.4102580000000 1.0
C      1  0.4927560000000  0.5902750000000  0.5186470000000 1.0
C      1  0.5043000000000  0.4874040000000  0.5839080000000 1.0
C      1  0.4950270000000  0.4202210000000  0.4908210000000 1.0
C      1  0.4435000000000  0.4700300000000  0.5753860000000 1.0
C      1  0.5561830000000  0.4154580000000  0.4756460000000 1.0
C      1  0.4343380000000  0.5342160000000  0.4337510000000 1.0
C      1  0.5479780000000  0.5642790000000  0.5326000000000 1.0
C      1  0.4777420000000  0.4784100000000  0.4159470000000 1.0
C      1  0.5120600000000  0.5889330000000  0.4731580000000 1.0
C      1  0.4847790000000  0.5285730000000  0.5634260000000 1.0
C      1  0.5177490000000  0.4302440000000  0.5362710000000 1.0
C      1  0.4517310000000  0.5395870000000  0.5007980000000 1.0
C      1  0.5552670000000  0.4961960000000  0.5420550000000 1.0
C      1  0.4284910000000  0.4709720000000  0.5097300000000 1.0
C      1  0.5656490000000  0.4802580000000  0.4721300000000 1.0
C      1  0.5776260000000  0.4895300000000  0.4967160000000 1.0
C      1  0.4583930000000  0.5125520000000  0.4944840000000 1.0
C      1  0.5579970000000  0.5012070000000  0.5142200000000 1.0
C      1  0.4392340000000  0.4923770000000  0.4981590000000 1.0
C      1  0.4382170000000  0.4842600000000  0.4367100000000 1.0
C      1  0.5481050000000  0.5632100000000  0.4817060000000 1.0
C      1  0.4413630000000  0.5169910000000  0.5602660000000 1.0
C      1  0.5601110000000  0.4336840000000  0.5213650000000 1.0
C      1  0.5537310000000  0.5460590000000  0.5512610000000 1.0
C      1  0.4318420000000  0.4541860000000  0.5572110000000 1.0
C      1  0.5683820000000  0.4317620000000  0.4581830000000 1.0
C      1  0.4324400000000  0.5509000000000  0.4545060000000 1.0
C      1  0.4711730000000  0.5764910000000  0.5259460000000 1.0
C      1  0.5268610000000  0.4758780000000  0.5755130000000 1.0
C      1  0.4792590000000  0.4340680000000  0.4734680000000 1.0
C      1  0.5095790000000  0.5428860000000  0.4193890000000 1.0
C      1  0.4846860000000  0.5051330000000  0.4866460000000 1.0
C      1  0.5347270000000  0.5086670000000  0.4972570000000 1.0
C      1  0.5044610000000  0.4859910000000  0.5231830000000 1.0
C      1  0.5162150000000  0.4707800000000  0.4793570000000 1.0
C      1  0.4901710000000  0.4806090000000  0.4713260000000 1.0
C      1  0.5380620000000  0.4886940000000  0.4746920000000 1.0
C      1  0.5067820000000  0.5098170000000  0.5062560000000 1.0
C      1  0.5121650000000  0.4644700000000  0.5075950000000 1.0
C      1  0.4592530000000  0.5511110000000  0.5258100000000 1.0
C      1  0.5441110000000  0.4716950000000  0.5534050000000 1.0
C      1  0.4742060000000  0.4592850000000  0.4608140000000 1.0
C      1  0.5242480000000  0.5571960000000  0.4363800000000 1.0
C      1  0.4603190000000  0.5358660000000  0.5493340000000 1.0
C      1  0.5428010000000  0.4457200000000  0.5412500000000 1.0
C      1  0.4610890000000  0.4661340000000  0.4368320000000 1.0
C      1  0.5300990000000  0.5703970000000  0.4600130000000 1.0
C      1  0.5453660000000  0.4186030000000  0.5011830000000 1.0
C      1  0.4450090000000  0.5100510000000  0.4250520000000 1.0
C      1  0.5390030000000  0.5727930000000  0.5076990000000 1.0
C      1  0.4543630000000  0.4956650000000  0.5752410000000 1.0
END
