TITL C-2323483-8886-419 0.385063064678073 125000 -363.155534280369 0 0 60 (C1) n - 1
REM
REM in /home/bkarasulu/CARBON/AIRSS/Generating-Clusters/LCBOP/Higher-Symm/Only-C60/SD-CG/FIRE-HFTN
REM
REM
REM
REM
REM
REM ./C.cell (50c204cfd26239f34c78669fe23a5462)
REM
REM compiler GCC version 9.2.1 20190827 (Red Hat 9.2.1-1)
REM options -cpp -mtune=generic -march=x86-64 -g -O0 -fpre-include=/usr/include/finclude/math-vector-fortran.h
REM seed -175018863 686740986 -696415306 828828302 2122479137 -360236467 825774948 1904277619 -1700704082 -1201383094 1899113437 -1551765641 1481393320 -2111625364 -1208593096 567179055 -1939523625 1195889758 -1879866839 1822091301 -59513449 -344744973 -1748302422 1097479680 -1261784126 1893307370 1074026015 -1871347640 735546872 -1852481484 -1918382325 608973523 235329376
REM
CELL 1.54180   50.00000   50.00000   50.00000   90.00000   90.00000   90.00000
LATT -1
SFAC C  
C      1  0.4670230000000  0.5555540000000  0.5346610000000 1.0
C      1  0.5331590000000  0.5335680000000  0.4782820000000 1.0
C      1  0.5747960000000  0.5016820000000  0.5629190000000 1.0
C      1  0.4981170000000  0.4396280000000  0.5088130000000 1.0
C      1  0.3700800000000  0.4606020000000  0.5399130000000 1.0
C      1  0.5631430000000  0.5212420000000  0.5793980000000 1.0
C      1  0.4311890000000  0.5078610000000  0.4953750000000 1.0
C      1  0.4201870000000  0.4764110000000  0.5467280000000 1.0
C      1  0.5839570000000  0.5720350000000  0.5322050000000 1.0
C      1  0.4865360000000  0.4521710000000  0.5311930000000 1.0
C      1  0.4664130000000  0.5178490000000  0.5765590000000 1.0
C      1  0.5937700000000  0.5587470000000  0.4597000000000 1.0
C      1  0.5674620000000  0.5033080000000  0.4895830000000 1.0
C      1  0.5231900000000  0.4470050000000  0.4985000000000 1.0
C      1  0.4333520000000  0.5320660000000  0.5094550000000 1.0
C      1  0.5225600000000  0.5063600000000  0.4790760000000 1.0
C      1  0.5165460000000  0.5214880000000  0.5385400000000 1.0
C      1  0.4929080000000  0.5616360000000  0.5250100000000 1.0
C      1  0.5399750000000  0.5162480000000  0.5942580000000 1.0
C      1  0.4471780000000  0.5738290000000  0.4835820000000 1.0
C      1  0.5543810000000  0.4327430000000  0.4060830000000 1.0
C      1  0.5823380000000  0.4960070000000  0.5120350000000 1.0
C      1  0.5053440000000  0.5030540000000  0.5225830000000 1.0
C      1  0.4753610000000  0.4936840000000  0.4843390000000 1.0
C      1  0.4961030000000  0.5680780000000  0.4971590000000 1.0
C      1  0.3454700000000  0.4529050000000  0.5360670000000 1.0
C      1  0.5740870000000  0.4185290000000  0.3935430000000 1.0
C      1  0.4735710000000  0.5787470000000  0.4840300000000 1.0
C      1  0.5796590000000  0.5656470000000  0.5576510000000 1.0
C      1  0.5172090000000  0.5560750000000  0.4828160000000 1.0
C      1  0.4344720000000  0.4776790000000  0.4353990000000 1.0
C      1  0.5103170000000  0.4545110000000  0.3834570000000 1.0
C      1  0.4384840000000  0.4711110000000  0.4622790000000 1.0
C      1  0.5509220000000  0.4451160000000  0.4585750000000 1.0
C      1  0.4624630000000  0.4735260000000  0.3922030000000 1.0
C      1  0.5617720000000  0.5311230000000  0.4828730000000 1.0
C      1  0.4408510000000  0.4441090000000  0.4695800000000 1.0
C      1  0.4524910000000  0.5126390000000  0.5526320000000 1.0
C      1  0.4489520000000  0.5336610000000  0.5335210000000 1.0
C      1  0.4303940000000  0.5559850000000  0.4946150000000 1.0
C      1  0.5830200000000  0.4943540000000  0.5386410000000 1.0
C      1  0.4807090000000  0.4239970000000  0.4932020000000 1.0
C      1  0.3951090000000  0.4684300000000  0.5437540000000 1.0
C      1  0.5137710000000  0.5482950000000  0.5385540000000 1.0
C      1  0.5405650000000  0.4595380000000  0.4801680000000 1.0
C      1  0.5721600000000  0.5475730000000  0.5757010000000 1.0
C      1  0.4878600000000  0.5176170000000  0.5923220000000 1.0
C      1  0.5000130000000  0.5005380000000  0.4950200000000 1.0
C      1  0.4438010000000  0.4782440000000  0.4105130000000 1.0
C      1  0.5551480000000  0.4367220000000  0.4337850000000 1.0
C      1  0.5801710000000  0.5524020000000  0.4825460000000 1.0
C      1  0.4676440000000  0.4669880000000  0.5428050000000 1.0
C      1  0.4477150000000  0.4907410000000  0.4805800000000 1.0
C      1  0.5446230000000  0.4873930000000  0.4812700000000 1.0
C      1  0.5137010000000  0.5160390000000  0.5985130000000 1.0
C      1  0.4466680000000  0.4852490000000  0.5470620000000 1.0
C      1  0.4578430000000  0.4261650000000  0.4796070000000 1.0
C      1  0.4859460000000  0.4650160000000  0.3831920000000 1.0
C      1  0.5842370000000  0.5669310000000  0.5061510000000 1.0
C      1  0.5331160000000  0.4435510000000  0.3914220000000 1.0
END
