TITL C-2323489-8765-84 -2.78147072073861 125000 -358.354291281607 0 0 60 (D2) n - 1
REM
REM in /home/bkarasulu/CARBON/AIRSS/Generating-Clusters/LCBOP/Higher-Symm/Only-C60/SD-CG/FIRE-HFTN
REM
REM
REM
REM
REM
REM ./C.cell (50c204cfd26239f34c78669fe23a5462)
REM
REM compiler GCC version 9.2.1 20190827 (Red Hat 9.2.1-1)
REM options -cpp -mtune=generic -march=x86-64 -g -O0 -fpre-include=/usr/include/finclude/math-vector-fortran.h
REM seed -1995147190 -994285427 1605694708 1770852925 -604976739 814318871 866283830 2022744566 990885818 743571996 -708621232 1237795535 809785082 171442100 -479387241 376387464 526442069 -1771119540 938225514 992104980 1363648862 1190412532 -229775287 -502646971 2029279504 911324540 -716177145 -644938747 259064304 -710273222 -391138569 163379891 1591974960
REM
CELL 1.54180   50.00000   50.00000   50.00000   90.00000   90.00000   90.00000
LATT -1
SFAC C  
C      1  0.4455880000000  0.4238990000000  0.3179870000000 1.0
C      1  0.5553740000000  0.5758780000000  0.3181850000000 1.0
C      1  0.5549730000000  0.4245320000000  0.6821090000000 1.0
C      1  0.4440650000000  0.5756920000000  0.6817180000000 1.0
C      1  0.5241770000000  0.5183280000000  0.6740570000000 1.0
C      1  0.4749030000000  0.4818860000000  0.6739500000000 1.0
C      1  0.4756890000000  0.5179310000000  0.3259200000000 1.0
C      1  0.5252310000000  0.4818560000000  0.3260730000000 1.0
C      1  0.4594360000000  0.5052240000000  0.6723190000000 1.0
C      1  0.5396520000000  0.4949880000000  0.6725380000000 1.0
C      1  0.5405250000000  0.5053090000000  0.3276740000000 1.0
C      1  0.4603870000000  0.4944800000000  0.3274690000000 1.0
C      1  0.3183470000000  0.4981350000000  0.4348050000000 1.0
C      1  0.6819950000000  0.5017850000000  0.4357650000000 1.0
C      1  0.6816610000000  0.4995620000000  0.5651960000000 1.0
C      1  0.3179970000000  0.5005160000000  0.5642340000000 1.0
C      1  0.3103140000000  0.4985810000000  0.4600580000000 1.0
C      1  0.6898950000000  0.5013710000000  0.4610600000000 1.0
C      1  0.6896920000000  0.5000350000000  0.5399430000000 1.0
C      1  0.3101000000000  0.5000120000000  0.5389390000000 1.0
C      1  0.5271420000000  0.5303710000000  0.3246640000000 1.0
C      1  0.4737860000000  0.4694150000000  0.3245600000000 1.0
C      1  0.4726330000000  0.5303870000000  0.6752970000000 1.0
C      1  0.5264390000000  0.4698280000000  0.6754790000000 1.0
C      1  0.4594870000000  0.4457280000000  0.3210770000000 1.0
C      1  0.5414590000000  0.5540530000000  0.3212280000000 1.0
C      1  0.5409140000000  0.4462530000000  0.6789920000000 1.0
C      1  0.4581410000000  0.5539670000000  0.6787030000000 1.0
C      1  0.3447830000000  0.5015530000000  0.6097840000000 1.0
C      1  0.6546340000000  0.4985810000000  0.6106060000000 1.0
C      1  0.6552020000000  0.5025670000000  0.3902130000000 1.0
C      1  0.3453810000000  0.4972980000000  0.3893970000000 1.0
C      1  0.5670390000000  0.4963830000000  0.6674740000000 1.0
C      1  0.4320760000000  0.5038220000000  0.6671120000000 1.0
C      1  0.4329910000000  0.4956780000000  0.3325310000000 1.0
C      1  0.5678940000000  0.5041170000000  0.3328830000000 1.0
C      1  0.4080750000000  0.4961700000000  0.3415180000000 1.0
C      1  0.5927610000000  0.5036370000000  0.3420020000000 1.0
C      1  0.5919500000000  0.4970480000000  0.6584860000000 1.0
C      1  0.4072130000000  0.5031460000000  0.6579940000000 1.0
C      1  0.3630490000000  0.5020810000000  0.6289810000000 1.0
C      1  0.6362670000000  0.4980770000000  0.6297060000000 1.0
C      1  0.6369320000000  0.5029350000000  0.3710160000000 1.0
C      1  0.3637520000000  0.4969060000000  0.3702970000000 1.0
C      1  0.6938570000000  0.5009410000000  0.4872620000000 1.0
C      1  0.3062130000000  0.4990430000000  0.4862380000000 1.0
C      1  0.3061410000000  0.4995200000000  0.5127370000000 1.0
C      1  0.6937890000000  0.5004950000000  0.5137620000000 1.0
C      1  0.6152080000000  0.4975660000000  0.6457910000000 1.0
C      1  0.3840220000000  0.5026120000000  0.6451760000000 1.0
C      1  0.3848140000000  0.4965320000000  0.3542130000000 1.0
C      1  0.6159560000000  0.5032900000000  0.3548200000000 1.0
C      1  0.5018270000000  0.4692670000000  0.3250940000000 1.0
C      1  0.4990990000000  0.5305190000000  0.3250500000000 1.0
C      1  0.4984000000000  0.4694720000000  0.6749450000000 1.0
C      1  0.5006750000000  0.5307430000000  0.6749110000000 1.0
C      1  0.3296480000000  0.5010310000000  0.5880330000000 1.0
C      1  0.6698840000000  0.4990770000000  0.5889350000000 1.0
C      1  0.6703400000000  0.5021840000000  0.4119650000000 1.0
C      1  0.3301280000000  0.4977080000000  0.4110670000000 1.0
END
