TITL C-2323488-8613-474 2.6413212293004e-06 125000 -377.391318189716 0 0 60 (C5v) n - 1
REM
REM in /home/bkarasulu/CARBON/AIRSS/Generating-Clusters/LCBOP/Higher-Symm/Only-C60/SD-CG/FIRE-HFTN
REM
REM
REM
REM
REM
REM ./C.cell (50c204cfd26239f34c78669fe23a5462)
REM
REM compiler GCC version 9.2.1 20190827 (Red Hat 9.2.1-1)
REM options -cpp -mtune=generic -march=x86-64 -g -O0 -fpre-include=/usr/include/finclude/math-vector-fortran.h
REM seed -1638860480 -1384087084 -1309374344 800614345 606616214 1561942714 433452305 2142990613 2030907712 -539105345 -1466067253 493985863 1450332606 -1329910300 989160249 1741345942 -882180642 -2037480205 -1464041568 147583785 -378548148 -44532637 1365290400 1510119413 -1245829287 -1179334758 1822466331 125744182 -1540556539 2003588405 -231162592 -1778061363 658084560
REM
CELL 1.54180   50.00000   50.00000   50.00000   90.00000   90.00000   90.00000
LATT -1
SFAC C  
C      1  0.5240720000000  0.4918240000000  0.5886620000000 1.0
C      1  0.4996650000000  0.4745790000000  0.5886620000000 1.0
C      1  0.4757220000000  0.4924620000000  0.5886620000000 1.0
C      1  0.4853310000000  0.5207590000000  0.5886630000000 1.0
C      1  0.5152120000000  0.5203650000000  0.5886630000000 1.0
C      1  0.4857390000000  0.5201840000000  0.4035590000000 1.0
C      1  0.5147870000000  0.5198010000000  0.4035590000000 1.0
C      1  0.5233990000000  0.4920570000000  0.4035580000000 1.0
C      1  0.4996740000000  0.4752930000000  0.4035580000000 1.0
C      1  0.4763980000000  0.4926770000000  0.4035580000000 1.0
C      1  0.5234930000000  0.4920230000000  0.4750460000000 1.0
C      1  0.4996730000000  0.4751920000000  0.4750460000000 1.0
C      1  0.4763040000000  0.4926450000000  0.4750460000000 1.0
C      1  0.4856820000000  0.5202640000000  0.4750470000000 1.0
C      1  0.5148470000000  0.5198790000000  0.4750470000000 1.0
C      1  0.4761490000000  0.4925950000000  0.5422730000000 1.0
C      1  0.4855890000000  0.5203950000000  0.5422740000000 1.0
C      1  0.5149450000000  0.5200080000000  0.5422740000000 1.0
C      1  0.5236480000000  0.4919690000000  0.5422730000000 1.0
C      1  0.4996710000000  0.4750270000000  0.5422730000000 1.0
C      1  0.5508200000000  0.5680420000000  0.5116600000000 1.0
C      1  0.5804170000000  0.4726930000000  0.5116580000000 1.0
C      1  0.4988800000000  0.4150810000000  0.5116570000000 1.0
C      1  0.4188920000000  0.4748230000000  0.5116590000000 1.0
C      1  0.4509920000000  0.5693590000000  0.5116610000000 1.0
C      1  0.4434780000000  0.4824570000000  0.4413610000000 1.0
C      1  0.4658480000000  0.5483350000000  0.4413620000000 1.0
C      1  0.5354140000000  0.5474180000000  0.4413620000000 1.0
C      1  0.5560390000000  0.4809730000000  0.4413600000000 1.0
C      1  0.4992190000000  0.4408250000000  0.4413590000000 1.0
C      1  0.5421690000000  0.5564580000000  0.5602880000000 1.0
C      1  0.5667270000000  0.4773410000000  0.5602850000000 1.0
C      1  0.4990710000000  0.4295360000000  0.5602850000000 1.0
C      1  0.4326990000000  0.4791080000000  0.5602860000000 1.0
C      1  0.4593350000000  0.5575500000000  0.5602880000000 1.0
C      1  0.4583520000000  0.5589430000000  0.4883440000000 1.0
C      1  0.5431880000000  0.5578250000000  0.4883430000000 1.0
C      1  0.5683400000000  0.4767950000000  0.4883410000000 1.0
C      1  0.4990480000000  0.4278340000000  0.4883410000000 1.0
C      1  0.4310720000000  0.4786050000000  0.4883420000000 1.0
C      1  0.4714540000000  0.5404010000000  0.4164790000000 1.0
C      1  0.5296000000000  0.5396340000000  0.4164780000000 1.0
C      1  0.5468390000000  0.4840970000000  0.4164770000000 1.0
C      1  0.4993470000000  0.4505410000000  0.4164760000000 1.0
C      1  0.4527570000000  0.4853380000000  0.4164780000000 1.0
C      1  0.5811440000000  0.4724460000000  0.5382980000000 1.0
C      1  0.4988700000000  0.4143120000000  0.5382970000000 1.0
C      1  0.4181580000000  0.4745950000000  0.5382990000000 1.0
C      1  0.4505490000000  0.5699850000000  0.5383010000000 1.0
C      1  0.5512800000000  0.5686570000000  0.5383010000000 1.0
C      1  0.5258370000000  0.5345910000000  0.5653970000000 1.0
C      1  0.5408840000000  0.4861160000000  0.5653960000000 1.0
C      1  0.4994310000000  0.4568260000000  0.5653950000000 1.0
C      1  0.4587650000000  0.4871990000000  0.5653960000000 1.0
C      1  0.4750850000000  0.5352600000000  0.5653970000000 1.0
C      1  0.5496120000000  0.4831540000000  0.4686370000000 1.0
C      1  0.4993090000000  0.4476110000000  0.4686370000000 1.0
C      1  0.4499610000000  0.4844690000000  0.4686380000000 1.0
C      1  0.4697650000000  0.5427910000000  0.4686400000000 1.0
C      1  0.5313530000000  0.5419790000000  0.4686390000000 1.0
END
