TITL C-2323483-8886-365 4.58942938752033e-06 125000 -367.701814868377 0 0 60 (C2v) n - 1
REM
REM in /home/bkarasulu/CARBON/AIRSS/Generating-Clusters/LCBOP/Higher-Symm/Only-C60/SD-CG/FIRE-HFTN
REM
REM
REM
REM
REM
REM ./C.cell (50c204cfd26239f34c78669fe23a5462)
REM
REM compiler GCC version 9.2.1 20190827 (Red Hat 9.2.1-1)
REM options -cpp -mtune=generic -march=x86-64 -g -O0 -fpre-include=/usr/include/finclude/math-vector-fortran.h
REM seed -1047813167 -1889097153 1845923563 1087163183 -894589648 1538847899 -1700455531 -995997576 542604645 -1058229206 -1974086232 155824714 -1808360203 411533551 -17035974 141198721 922926296 -1228775730 683072528 -1496343576 1776281517 1419982381 -1458596270 -779253040 -1663269575 286084008 202721427 -308432230 -1676991333 85454101 -938826524 756569625 955016405
REM
CELL 1.54180   50.00000   50.00000   50.00000   90.00000   90.00000   90.00000
LATT -1
SFAC C  
C      1  0.5143540000000  0.5062950000000  0.5240050000000 1.0
C      1  0.4856460000000  0.5062940000000  0.4759950000000 1.0
C      1  0.4856460000000  0.5062950000000  0.5240050000000 1.0
C      1  0.5143540000000  0.5062950000000  0.4759950000000 1.0
C      1  0.4450780000000  0.5298270000000  0.4684040000000 1.0
C      1  0.5549220000000  0.5298280000000  0.5315950000000 1.0
C      1  0.5549220000000  0.5298280000000  0.4684040000000 1.0
C      1  0.4450780000000  0.5298280000000  0.5315960000000 1.0
C      1  0.5252070000000  0.4807790000000  0.4855220000000 1.0
C      1  0.4747930000000  0.4807790000000  0.5144780000000 1.0
C      1  0.4747930000000  0.4807790000000  0.4855220000000 1.0
C      1  0.5252070000000  0.4807790000000  0.5144780000000 1.0
C      1  0.4302760000000  0.4693630000000  0.5612590000000 1.0
C      1  0.5697250000000  0.4693630000000  0.4387420000000 1.0
C      1  0.5697250000000  0.4693640000000  0.5612590000000 1.0
C      1  0.4302750000000  0.4693620000000  0.4387420000000 1.0
C      1  0.5269440000000  0.5808340000000  0.4862570000000 1.0
C      1  0.4730550000000  0.5808340000000  0.5137410000000 1.0
C      1  0.4730550000000  0.5808330000000  0.4862570000000 1.0
C      1  0.5269440000000  0.5808340000000  0.5137410000000 1.0
C      1  0.5135650000000  0.4198870000000  0.5569350000000 1.0
C      1  0.4864360000000  0.4198860000000  0.4430660000000 1.0
C      1  0.4864370000000  0.4198870000000  0.5569350000000 1.0
C      1  0.5135640000000  0.4198860000000  0.4430660000000 1.0
C      1  0.5291380000000  0.4407370000000  0.5458160000000 1.0
C      1  0.4708630000000  0.4407350000000  0.4541850000000 1.0
C      1  0.4708630000000  0.4407360000000  0.5458170000000 1.0
C      1  0.5291380000000  0.4407360000000  0.4541840000000 1.0
C      1  0.5574590000000  0.5198500000000  0.5581080000000 1.0
C      1  0.4425410000000  0.5198480000000  0.4418910000000 1.0
C      1  0.4425420000000  0.5198490000000  0.5581090000000 1.0
C      1  0.5574580000000  0.5198490000000  0.4418910000000 1.0
C      1  0.5543340000000  0.4484770000000  0.4449690000000 1.0
C      1  0.4456660000000  0.4484780000000  0.5550320000000 1.0
C      1  0.4456660000000  0.4484760000000  0.4449690000000 1.0
C      1  0.5543350000000  0.4484780000000  0.5550320000000 1.0
C      1  0.4853670000000  0.4582670000000  0.5286510000000 1.0
C      1  0.5146330000000  0.4582660000000  0.4713500000000 1.0
C      1  0.5146340000000  0.4582670000000  0.5286510000000 1.0
C      1  0.4853670000000  0.4582660000000  0.4713500000000 1.0
C      1  0.4616070000000  0.5285680000000  0.5769880000000 1.0
C      1  0.5383930000000  0.5285670000000  0.4230120000000 1.0
C      1  0.5383930000000  0.5285690000000  0.5769870000000 1.0
C      1  0.4616060000000  0.5285670000000  0.4230120000000 1.0
C      1  0.4707300000000  0.5318480000000  0.4838230000000 1.0
C      1  0.5292690000000  0.5318490000000  0.5161770000000 1.0
C      1  0.5292690000000  0.5318490000000  0.4838230000000 1.0
C      1  0.4707310000000  0.5318490000000  0.5161770000000 1.0
C      1  0.4855210000000  0.5573650000000  0.5250690000000 1.0
C      1  0.5144780000000  0.5573650000000  0.4749300000000 1.0
C      1  0.5144780000000  0.5573650000000  0.5250690000000 1.0
C      1  0.4855210000000  0.5573650000000  0.4749300000000 1.0
C      1  0.5714270000000  0.4959620000000  0.5625380000000 1.0
C      1  0.4285730000000  0.4959590000000  0.4374620000000 1.0
C      1  0.4285740000000  0.4959610000000  0.5625390000000 1.0
C      1  0.5714260000000  0.4959600000000  0.4374620000000 1.0
C      1  0.4866620000000  0.5319440000000  0.4144520000000 1.0
C      1  0.5133380000000  0.5319450000000  0.5855470000000 1.0
C      1  0.5133370000000  0.5319440000000  0.4144520000000 1.0
C      1  0.4866620000000  0.5319450000000  0.5855470000000 1.0
END
