TITL C-2323487-9546-290 3.0232756187341e-06 125000 -376.756541291616 0 0 60 (C5) n - 1
REM
REM in /home/bkarasulu/CARBON/AIRSS/Generating-Clusters/LCBOP/Higher-Symm/Only-C60/SD-CG/FIRE-HFTN
REM
REM
REM
REM
REM
REM ./C.cell (50c204cfd26239f34c78669fe23a5462)
REM
REM compiler GCC version 9.2.1 20190827 (Red Hat 9.2.1-1)
REM options -cpp -mtune=generic -march=x86-64 -g -O0 -fpre-include=/usr/include/finclude/math-vector-fortran.h
REM seed 1122729464 1067565698 -1749991684 1844892970 -1396942149 -2021847171 -2029363756 -501262768 -1447301472 -63259012 1706928075 -1030828561 -1463613106 1635297414 -1906031916 1864601119 -1901868080 1690565406 -839017520 847863973 -1661616985 -506298339 1390821673 -1767073341 314918526 -906894079 -311590794 1035841599 -1279014668 -472074513 -1282272211 -290688851 365171629
REM
CELL 1.54180   50.00000   50.00000   50.00000   90.00000   90.00000   90.00000
LATT -1
SFAC C  
C      1  0.5455040000000  0.5368320000000  0.4569540000000 1.0
C      1  0.5549990000000  0.5368370000000  0.5299730000000 1.0
C      1  0.4884880000000  0.5368390000000  0.5615670000000 1.0
C      1  0.4378860000000  0.5368360000000  0.5080740000000 1.0
C      1  0.4731250000000  0.5368310000000  0.4434200000000 1.0
C      1  0.5112340000000  0.4987650000000  0.4523340000000 1.0
C      1  0.5488040000000  0.4987680000000  0.4959550000000 1.0
C      1  0.5189290000000  0.4987720000000  0.5451660000000 1.0
C      1  0.4628940000000  0.4987710000000  0.5319590000000 1.0
C      1  0.4581390000000  0.4987670000000  0.4745860000000 1.0
C      1  0.5765840000000  0.4923190000000  0.4839050000000 1.0
C      1  0.5389740000000  0.4923250000000  0.5678620000000 1.0
C      1  0.4475030000000  0.4923250000000  0.5580370000000 1.0
C      1  0.4285820000000  0.4923190000000  0.4680070000000 1.0
C      1  0.5083580000000  0.4923150000000  0.4221910000000 1.0
C      1  0.5706540000000  0.5243950000000  0.5500320000000 1.0
C      1  0.4742490000000  0.5243980000000  0.5826550000000 1.0
C      1  0.4134310000000  0.5243930000000  0.5010500000000 1.0
C      1  0.4722490000000  0.5243870000000  0.4179910000000 1.0
C      1  0.5694180000000  0.5243880000000  0.4482640000000 1.0
C      1  0.5361080000000  0.4570550000000  0.5207580000000 1.0
C      1  0.4914190000000  0.4570570000000  0.5407580000000 1.0
C      1  0.4585880000000  0.4570550000000  0.5044360000000 1.0
C      1  0.4829870000000  0.4570520000000  0.4619880000000 1.0
C      1  0.5308970000000  0.4570520000000  0.4720750000000 1.0
C      1  0.4861150000000  0.5642180000000  0.5207300000000 1.0
C      1  0.4759900000000  0.5642160000000  0.4931970000000 1.0
C      1  0.4990460000000  0.5642150000000  0.4750590000000 1.0
C      1  0.5234210000000  0.5642160000000  0.4913820000000 1.0
C      1  0.5154300000000  0.5642180000000  0.5196090000000 1.0
C      1  0.4537340000000  0.5474480000000  0.4867950000000 1.0
C      1  0.4982590000000  0.5474450000000  0.4519160000000 1.0
C      1  0.5451900000000  0.5474470000000  0.4834820000000 1.0
C      1  0.5296710000000  0.5474510000000  0.5378710000000 1.0
C      1  0.4731480000000  0.5474510000000  0.5399190000000 1.0
C      1  0.5631430000000  0.5050920000000  0.5676680000000 1.0
C      1  0.4551550000000  0.5050930000000  0.5809630000000 1.0
C      1  0.4091420000000  0.5050870000000  0.4823690000000 1.0
C      1  0.4886910000000  0.5050810000000  0.4081400000000 1.0
C      1  0.5838690000000  0.5050840000000  0.4608580000000 1.0
C      1  0.4781550000000  0.4169450000000  0.4874460000000 1.0
C      1  0.5051940000000  0.4169440000000  0.4753500000000 1.0
C      1  0.5250540000000  0.4169450000000  0.4973270000000 1.0
C      1  0.5102900000000  0.4169470000000  0.5230060000000 1.0
C      1  0.4813040000000  0.4169470000000  0.5169000000000 1.0
C      1  0.4550420000000  0.5282830000000  0.5290290000000 1.0
C      1  0.4584980000000  0.5282790000000  0.4662110000000 1.0
C      1  0.5193080000000  0.5282770000000  0.4500860000000 1.0
C      1  0.5534360000000  0.5282800000000  0.5029380000000 1.0
C      1  0.5137170000000  0.5282840000000  0.5517270000000 1.0
C      1  0.4831280000000  0.4858290000000  0.4620770000000 1.0
C      1  0.5308540000000  0.4858290000000  0.4722360000000 1.0
C      1  0.5359400000000  0.4858330000000  0.5207650000000 1.0
C      1  0.4913580000000  0.4858340000000  0.5405990000000 1.0
C      1  0.4587190000000  0.4858320000000  0.5043280000000 1.0
C      1  0.5397920000000  0.4428190000000  0.4957510000000 1.0
C      1  0.5163410000000  0.4428220000000  0.5365340000000 1.0
C      1  0.4703070000000  0.4428220000000  0.5268340000000 1.0
C      1  0.4653070000000  0.4428180000000  0.4800560000000 1.0
C      1  0.5082510000000  0.4428170000000  0.4608450000000 1.0
END
