TITL C-2323492-8884-174 3.40307751925932 125000 -355.032288414311 0 0 60 (C3) n - 1
REM
REM in /home/bkarasulu/CARBON/AIRSS/Generating-Clusters/LCBOP/Higher-Symm/Only-C60/SD-CG/FIRE-HFTN
REM
REM
REM
REM
REM
REM ./C.cell (50c204cfd26239f34c78669fe23a5462)
REM
REM compiler GCC version 9.2.1 20190827 (Red Hat 9.2.1-1)
REM options -cpp -mtune=generic -march=x86-64 -g -O0 -fpre-include=/usr/include/finclude/math-vector-fortran.h
REM seed 1580177293 675119226 905409263 1294836263 -1262708355 1853439335 1237741016 344571553 566824242 1712674580 1337427063 -1323808540 -366674669 -265357205 1417706258 1533206802 -1351180097 814183380 -1969425299 1646418746 316940495 -391308527 -818453250 353197733 -629331039 -1622125468 -1026667115 -526805083 -894783537 22085981 -259581981 -711373530 -1049566485
REM
CELL 1.54180   50.00000   50.00000   50.00000   90.00000   90.00000   90.00000
LATT -1
SFAC C  
C      1  0.3957440000000  0.5323860000000  0.4714120000000 1.0
C      1  0.5240770000000  0.3935110000000  0.4714370000000 1.0
C      1  0.5801790000000  0.5740880000000  0.4714050000000 1.0
C      1  0.5432160000000  0.4744520000000  0.5676990000000 1.0
C      1  0.5005280000000  0.5502190000000  0.5676860000000 1.0
C      1  0.4562560000000  0.4753660000000  0.5676990000000 1.0
C      1  0.5146360000000  0.3784670000000  0.4517900000000 1.0
C      1  0.5979260000000  0.5734290000000  0.4517550000000 1.0
C      1  0.3874380000000  0.5480790000000  0.4517590000000 1.0
C      1  0.6077970000000  0.5310140000000  0.5216750000000 1.0
C      1  0.4192460000000  0.5778530000000  0.5216660000000 1.0
C      1  0.4729570000000  0.3911440000000  0.5217000000000 1.0
C      1  0.4904170000000  0.4120700000000  0.5193770000000 1.0
C      1  0.5809440000000  0.5356710000000  0.5193550000000 1.0
C      1  0.4286390000000  0.5522690000000  0.5193520000000 1.0
C      1  0.5360360000000  0.5825170000000  0.4894120000000 1.0
C      1  0.4105190000000  0.4899470000000  0.4894280000000 1.0
C      1  0.5534460000000  0.4275310000000  0.4894400000000 1.0
C      1  0.5175540000000  0.5281000000000  0.5273710000000 1.0
C      1  0.4668920000000  0.5011600000000  0.5273760000000 1.0
C      1  0.5155540000000  0.4707550000000  0.5273810000000 1.0
C      1  0.5705000000000  0.4763820000000  0.4866600000000 1.0
C      1  0.4852020000000  0.5728610000000  0.4866420000000 1.0
C      1  0.4442980000000  0.4507500000000  0.4866640000000 1.0
C      1  0.6334550000000  0.5715510000000  0.4130460000000 1.0
C      1  0.3712940000000  0.5797760000000  0.4130440000000 1.0
C      1  0.4952510000000  0.3486260000000  0.4130860000000 1.0
C      1  0.4811180000000  0.4386570000000  0.5183760000000 1.0
C      1  0.5625690000000  0.5143250000000  0.5183630000000 1.0
C      1  0.4563130000000  0.5470290000000  0.5183570000000 1.0
C      1  0.5136600000000  0.4765730000000  0.4984280000000 1.0
C      1  0.5134580000000  0.5235430000000  0.4984190000000 1.0
C      1  0.4728820000000  0.4998830000000  0.4984240000000 1.0
C      1  0.4706670000000  0.4786080000000  0.5447330000000 1.0
C      1  0.5331990000000  0.4853050000000  0.5447320000000 1.0
C      1  0.4961330000000  0.5361110000000  0.5447220000000 1.0
C      1  0.4857430000000  0.4755970000000  0.4897960000000 1.0
C      1  0.5282610000000  0.4998520000000  0.4897920000000 1.0
C      1  0.4859960000000  0.5245460000000  0.4897880000000 1.0
C      1  0.5675870000000  0.4498250000000  0.4859700000000 1.0
C      1  0.5096570000000  0.5836160000000  0.4859460000000 1.0
C      1  0.4227560000000  0.4665510000000  0.4859670000000 1.0
C      1  0.6158340000000  0.5724870000000  0.4322370000000 1.0
C      1  0.3792970000000  0.5640540000000  0.4322380000000 1.0
C      1  0.5048690000000  0.3634230000000  0.4322740000000 1.0
C      1  0.4695240000000  0.5285440000000  0.5364130000000 1.0
C      1  0.4905240000000  0.4593450000000  0.5364250000000 1.0
C      1  0.5399510000000  0.5121310000000  0.5364160000000 1.0
C      1  0.5321470000000  0.4095760000000  0.4928330000000 1.0
C      1  0.5622340000000  0.5730500000000  0.4928040000000 1.0
C      1  0.4056180000000  0.5173700000000  0.4928140000000 1.0
C      1  0.5325360000000  0.4007920000000  0.5404620000000 1.0
C      1  0.5696550000000  0.5777920000000  0.5404300000000 1.0
C      1  0.3978090000000  0.5214380000000  0.5404400000000 1.0
C      1  0.4711290000000  0.4512870000000  0.4945660000000 1.0
C      1  0.5566210000000  0.4993520000000  0.4945570000000 1.0
C      1  0.4722500000000  0.5493580000000  0.4945480000000 1.0
C      1  0.5185750000000  0.4074020000000  0.5178220000000 1.0
C      1  0.5709080000000  0.5623900000000  0.5177940000000 1.0
C      1  0.4105170000000  0.5302180000000  0.5178000000000 1.0
END
