TITL C-2323487-9546-405 3.98744604416721e-05 125000 -370.048043870844 0 0 60 (C1) n - 1
REM
REM in /home/bkarasulu/CARBON/AIRSS/Generating-Clusters/LCBOP/Higher-Symm/Only-C60/SD-CG/FIRE-HFTN
REM
REM
REM
REM
REM
REM ./C.cell (50c204cfd26239f34c78669fe23a5462)
REM
REM compiler GCC version 9.2.1 20190827 (Red Hat 9.2.1-1)
REM options -cpp -mtune=generic -march=x86-64 -g -O0 -fpre-include=/usr/include/finclude/math-vector-fortran.h
REM seed 1235188356 488389216 443064026 713824754 -1170708455 1781629610 1401010338 1788845934 1017851714 -1839036282 1117678709 60558521 -876550362 -1678746445 -470389433 -1396901237 -2112216345 575965954 -464201500 -1781071228 -1490095260 -183561011 716508450 68273229 -1525358325 1836892526 -1290144475 1569853116 730349574 1595867947 820886320 2021688213 1085128165
REM
CELL 1.54180   50.00000   50.00000   50.00000   90.00000   90.00000   90.00000
LATT -1
SFAC C  
C      1  0.5365520000000  0.4890690000000  0.4728880000000 1.0
C      1  0.5068460000000  0.4901250000000  0.4656820000000 1.0
C      1  0.4986610000000  0.4908310000000  0.5164330000000 1.0
C      1  0.5258710000000  0.4897290000000  0.5221990000000 1.0
C      1  0.5489060000000  0.5123290000000  0.4869970000000 1.0
C      1  0.4931300000000  0.5143750000000  0.4746650000000 1.0
C      1  0.4911720000000  0.5149320000000  0.5029910000000 1.0
C      1  0.5391810000000  0.5132010000000  0.5139990000000 1.0
C      1  0.5081730000000  0.5457900000000  0.5347100000000 1.0
C      1  0.5852170000000  0.5368610000000  0.5094230000000 1.0
C      1  0.4726360000000  0.5415800000000  0.4360070000000 1.0
C      1  0.4653410000000  0.5550290000000  0.5092130000000 1.0
C      1  0.5179490000000  0.4494920000000  0.5510390000000 1.0
C      1  0.5707100000000  0.4623560000000  0.5027650000000 1.0
C      1  0.4835360000000  0.4596260000000  0.4327660000000 1.0
C      1  0.4725670000000  0.4497320000000  0.5099380000000 1.0
C      1  0.4466590000000  0.5286020000000  0.4741260000000 1.0
C      1  0.4713500000000  0.5294260000000  0.5605840000000 1.0
C      1  0.5684140000000  0.5324050000000  0.5571220000000 1.0
C      1  0.4576410000000  0.5360240000000  0.3897310000000 1.0
C      1  0.4579460000000  0.4718800000000  0.4714810000000 1.0
C      1  0.4764060000000  0.4711400000000  0.5536380000000 1.0
C      1  0.5594760000000  0.4725720000000  0.5495770000000 1.0
C      1  0.4674690000000  0.4694870000000  0.3874150000000 1.0
C      1  0.4347930000000  0.4754470000000  0.5178360000000 1.0
C      1  0.5171370000000  0.4804050000000  0.5855510000000 1.0
C      1  0.6068680000000  0.4728810000000  0.5360030000000 1.0
C      1  0.4380120000000  0.4747730000000  0.4259500000000 1.0
C      1  0.4341120000000  0.5219880000000  0.5227660000000 1.0
C      1  0.5195510000000  0.5266940000000  0.5780170000000 1.0
C      1  0.6136240000000  0.5205290000000  0.5445830000000 1.0
C      1  0.4296740000000  0.5214180000000  0.4273400000000 1.0
C      1  0.4993450000000  0.5375840000000  0.5605420000000 1.0
C      1  0.5893090000000  0.5331380000000  0.5375070000000 1.0
C      1  0.4517510000000  0.5370960000000  0.4172000000000 1.0
C      1  0.4437350000000  0.5384830000000  0.5011810000000 1.0
C      1  0.5004630000000  0.4639050000000  0.5691720000000 1.0
C      1  0.5801020000000  0.4674870000000  0.5298690000000 1.0
C      1  0.4621680000000  0.4641670000000  0.4145110000000 1.0
C      1  0.4506470000000  0.4622300000000  0.4975510000000 1.0
C      1  0.4856920000000  0.4680230000000  0.5261430000000 1.0
C      1  0.5348980000000  0.4666190000000  0.5361070000000 1.0
C      1  0.5531690000000  0.4667590000000  0.4820070000000 1.0
C      1  0.4853390000000  0.4705800000000  0.4590620000000 1.0
C      1  0.4890670000000  0.5412150000000  0.5146940000000 1.0
C      1  0.5337380000000  0.5381760000000  0.5260290000000 1.0
C      1  0.5730430000000  0.5273700000000  0.4868930000000 1.0
C      1  0.4735990000000  0.5306740000000  0.4619860000000 1.0
C      1  0.4316830000000  0.5123560000000  0.4559600000000 1.0
C      1  0.4508870000000  0.5145750000000  0.5466980000000 1.0
C      1  0.5473870000000  0.5182970000000  0.5701790000000 1.0
C      1  0.4648110000000  0.5172460000000  0.3719580000000 1.0
C      1  0.4385100000000  0.4835740000000  0.4542930000000 1.0
C      1  0.4520530000000  0.4852720000000  0.5488640000000 1.0
C      1  0.5496920000000  0.4888980000000  0.5717020000000 1.0
C      1  0.4687550000000  0.4907420000000  0.3711130000000 1.0
C      1  0.4242590000000  0.4967130000000  0.4130240000000 1.0
C      1  0.4197590000000  0.4986300000000  0.5142470000000 1.0
C      1  0.5097140000000  0.5056240000000  0.5950840000000 1.0
C      1  0.6208450000000  0.4946850000000  0.5429880000000 1.0
END
