TITL C-2323484-8600-48 0.000914082209742319 125000 -350.536663775318 0 0 60 (C1) n - 1
REM
REM in /home/bkarasulu/CARBON/AIRSS/Generating-Clusters/LCBOP/Higher-Symm/Only-C60/SD-CG/FIRE-HFTN
REM
REM
REM
REM
REM
REM ./C.cell (50c204cfd26239f34c78669fe23a5462)
REM
REM compiler GCC version 9.2.1 20190827 (Red Hat 9.2.1-1)
REM options -cpp -mtune=generic -march=x86-64 -g -O0 -fpre-include=/usr/include/finclude/math-vector-fortran.h
REM seed 55904159 1536558463 1758729685 718005663 -2022350368 952685671 62443634 1594866328 1296244404 -258576889 -1945468222 1779724326 1877113936 -1606935118 -1405204492 -286271220 -1749558395 1968661234 57374346 1423293528 2139974295 1748702637 -1439464765 -1460496594 1521022209 -2146501069 215859178 -1048171315 -1642542820 1674374837 -871542773 -2072482784 504393277
REM
CELL 1.54180   50.00000   50.00000   50.00000   90.00000   90.00000   90.00000
LATT -1
SFAC C  
C      1  0.5267130000000  0.3857900000000  0.4747730000000 1.0
C      1  0.4709760000000  0.4261810000000  0.5412160000000 1.0
C      1  0.4754830000000  0.4410660000000  0.4596250000000 1.0
C      1  0.5146400000000  0.4092750000000  0.4811650000000 1.0
C      1  0.4954690000000  0.4198580000000  0.5261520000000 1.0
C      1  0.4704470000000  0.4260320000000  0.4855730000000 1.0
C      1  0.4409340000000  0.5809420000000  0.4740780000000 1.0
C      1  0.5605050000000  0.5830000000000  0.4696690000000 1.0
C      1  0.4862040000000  0.5830180000000  0.5592320000000 1.0
C      1  0.4625480000000  0.4670570000000  0.4643470000000 1.0
C      1  0.5602250000000  0.4661100000000  0.4791130000000 1.0
C      1  0.4977610000000  0.4667780000000  0.5706380000000 1.0
C      1  0.4611150000000  0.5313020000000  0.4824660000000 1.0
C      1  0.5376060000000  0.5343640000000  0.4759370000000 1.0
C      1  0.4988690000000  0.5333850000000  0.5416840000000 1.0
C      1  0.5404290000000  0.4487330000000  0.4890650000000 1.0
C      1  0.5132070000000  0.4472120000000  0.5604140000000 1.0
C      1  0.4709940000000  0.4704410000000  0.4926200000000 1.0
C      1  0.4051420000000  0.4892030000000  0.4858010000000 1.0
C      1  0.5588870000000  0.4949020000000  0.4225240000000 1.0
C      1  0.5424850000000  0.5050870000000  0.5878620000000 1.0
C      1  0.5413380000000  0.5069160000000  0.5211030000000 1.0
C      1  0.4568700000000  0.5021890000000  0.5308420000000 1.0
C      1  0.4995990000000  0.5054890000000  0.4510490000000 1.0
C      1  0.4598990000000  0.4466550000000  0.5036540000000 1.0
C      1  0.5227940000000  0.4350840000000  0.4713590000000 1.0
C      1  0.5173330000000  0.4369150000000  0.5342130000000 1.0
C      1  0.4529020000000  0.5577630000000  0.4787330000000 1.0
C      1  0.5475050000000  0.5602480000000  0.4736070000000 1.0
C      1  0.4930200000000  0.5596960000000  0.5486600000000 1.0
C      1  0.4502390000000  0.4922670000000  0.4602390000000 1.0
C      1  0.5584430000000  0.4935640000000  0.4738640000000 1.0
C      1  0.4971900000000  0.4943530000000  0.5657190000000 1.0
C      1  0.4314690000000  0.4973250000000  0.4833770000000 1.0
C      1  0.5486190000000  0.5012650000000  0.4473560000000 1.0
C      1  0.5241230000000  0.5064420000000  0.5672880000000 1.0
C      1  0.4549730000000  0.4481030000000  0.5313660000000 1.0
C      1  0.5034220000000  0.4490810000000  0.4546430000000 1.0
C      1  0.5340780000000  0.4527720000000  0.5168890000000 1.0
C      1  0.4482350000000  0.4750090000000  0.5387630000000 1.0
C      1  0.5044090000000  0.4766640000000  0.4460150000000 1.0
C      1  0.5422480000000  0.4785710000000  0.5260490000000 1.0
C      1  0.5262530000000  0.5212580000000  0.5419760000000 1.0
C      1  0.4475950000000  0.5133770000000  0.5028050000000 1.0
C      1  0.5255380000000  0.5190500000000  0.4536380000000 1.0
C      1  0.4793740000000  0.6062540000000  0.5688750000000 1.0
C      1  0.4296860000000  0.6040730000000  0.4698340000000 1.0
C      1  0.5728530000000  0.6056700000000  0.4660390000000 1.0
C      1  0.5494220000000  0.5139790000000  0.4939790000000 1.0
C      1  0.4800940000000  0.5110940000000  0.5471930000000 1.0
C      1  0.4712680000000  0.5138940000000  0.4596060000000 1.0
C      1  0.3808080000000  0.4804380000000  0.4889720000000 1.0
C      1  0.5679830000000  0.4881290000000  0.3990620000000 1.0
C      1  0.5600370000000  0.5029270000000  0.6070020000000 1.0
C      1  0.5007210000000  0.5410170000000  0.4983450000000 1.0
C      1  0.5013950000000  0.5937250000000  0.4960020000000 1.0
C      1  0.4992880000000  0.5141200000000  0.4997940000000 1.0
C      1  0.4921290000000  0.4120240000000  0.4983260000000 1.0
C      1  0.4907660000000  0.4887050000000  0.4997920000000 1.0
C      1  0.5011930000000  0.5676530000000  0.4970310000000 1.0
END
