TITL C-2323481-8605-188 0.244899405217161 125000 -353.698552260372 0 0 60 (C1) n - 1
REM
REM in /home/bkarasulu/CARBON/AIRSS/Generating-Clusters/LCBOP/Higher-Symm/Only-C60/SD-CG/FIRE-HFTN
REM
REM
REM
REM
REM
REM ./C.cell (50c204cfd26239f34c78669fe23a5462)
REM
REM compiler GCC version 9.2.1 20190827 (Red Hat 9.2.1-1)
REM options -cpp -mtune=generic -march=x86-64 -g -O0 -fpre-include=/usr/include/finclude/math-vector-fortran.h
REM seed -934635054 1874417552 1253758689 1980373636 -2009046816 -2027715442 -2013338510 -2020194766 -1167446390 -541360964 2008172692 -1322015738 -1526562206 -2030411100 -866407748 -838773532 -272737548 -197169647 211571930 -716548001 -988251470 -953147185 962955273 1303128581 -62214257 -990740138 -1849835254 640215169 -1883343054 1171406942 998948535 -1176834076 335520793
REM
CELL 1.54180   50.00000   50.00000   50.00000   90.00000   90.00000   90.00000
LATT -1
SFAC C  
C      1  0.5110830000000  0.5158510000000  0.5476760000000 1.0
C      1  0.5677230000000  0.5355560000000  0.5412260000000 1.0
C      1  0.4472760000000  0.5743280000000  0.4926720000000 1.0
C      1  0.5203210000000  0.4338270000000  0.5962740000000 1.0
C      1  0.4808630000000  0.5494890000000  0.5229040000000 1.0
C      1  0.4802650000000  0.4874170000000  0.4849010000000 1.0
C      1  0.5075970000000  0.4850090000000  0.4806970000000 1.0
C      1  0.5299790000000  0.5119060000000  0.4316840000000 1.0
C      1  0.4369320000000  0.5302630000000  0.4446870000000 1.0
C      1  0.5153800000000  0.4715700000000  0.4565700000000 1.0
C      1  0.4748040000000  0.4639060000000  0.5327060000000 1.0
C      1  0.5608830000000  0.5112970000000  0.5531430000000 1.0
C      1  0.4441900000000  0.4738570000000  0.4408300000000 1.0
C      1  0.5702840000000  0.4686200000000  0.5786030000000 1.0
C      1  0.5020360000000  0.5342050000000  0.5899190000000 1.0
C      1  0.5514400000000  0.5283910000000  0.4453660000000 1.0
C      1  0.4282680000000  0.5645700000000  0.4767760000000 1.0
C      1  0.4924640000000  0.4252560000000  0.4402950000000 1.0
C      1  0.5216880000000  0.4923870000000  0.5293820000000 1.0
C      1  0.4033060000000  0.5233090000000  0.4795680000000 1.0
C      1  0.5278610000000  0.4275300000000  0.5712140000000 1.0
C      1  0.5048950000000  0.4469530000000  0.4490220000000 1.0
C      1  0.5423700000000  0.5609970000000  0.5087970000000 1.0
C      1  0.3977050000000  0.5063380000000  0.4993400000000 1.0
C      1  0.4804730000000  0.5569570000000  0.4114990000000 1.0
C      1  0.4674120000000  0.5671400000000  0.5084270000000 1.0
C      1  0.4895490000000  0.5355200000000  0.5450410000000 1.0
C      1  0.4827890000000  0.5349850000000  0.4278690000000 1.0
C      1  0.4571500000000  0.4919160000000  0.4235360000000 1.0
C      1  0.4593980000000  0.5190640000000  0.4320730000000 1.0
C      1  0.4567880000000  0.4730510000000  0.4894850000000 1.0
C      1  0.5561850000000  0.4875920000000  0.5950900000000 1.0
C      1  0.5617710000000  0.5115400000000  0.4675220000000 1.0
C      1  0.4516450000000  0.4672830000000  0.5168740000000 1.0
C      1  0.4799410000000  0.4752230000000  0.3776980000000 1.0
C      1  0.5581980000000  0.4628240000000  0.5530580000000 1.0
C      1  0.5603690000000  0.5606150000000  0.5305330000000 1.0
C      1  0.4778350000000  0.4052000000000  0.4310110000000 1.0
C      1  0.5482670000000  0.5104210000000  0.5796490000000 1.0
C      1  0.4629540000000  0.3858930000000  0.4217710000000 1.0
C      1  0.5609500000000  0.4852640000000  0.4554720000000 1.0
C      1  0.5352950000000  0.4846860000000  0.4413350000000 1.0
C      1  0.5702910000000  0.5838170000000  0.5409810000000 1.0
C      1  0.4054340000000  0.4884310000000  0.5175640000000 1.0
C      1  0.5077300000000  0.5293720000000  0.4390690000000 1.0
C      1  0.5250250000000  0.4533900000000  0.6141490000000 1.0
C      1  0.5437790000000  0.5170550000000  0.4898380000000 1.0
C      1  0.5212490000000  0.5179610000000  0.5761810000000 1.0
C      1  0.4257490000000  0.4730670000000  0.5258410000000 1.0
C      1  0.4210070000000  0.5399220000000  0.4655610000000 1.0
C      1  0.5502080000000  0.4872000000000  0.5399750000000 1.0
C      1  0.4677380000000  0.4834820000000  0.3991910000000 1.0
C      1  0.5398210000000  0.4759440000000  0.6148880000000 1.0
C      1  0.4421260000000  0.4665750000000  0.4665420000000 1.0
C      1  0.5251280000000  0.4976820000000  0.4996210000000 1.0
C      1  0.5340260000000  0.5444300000000  0.4879430000000 1.0
C      1  0.5006560000000  0.4711060000000  0.5344600000000 1.0
C      1  0.5263420000000  0.5496370000000  0.4615990000000 1.0
C      1  0.5435850000000  0.4387370000000  0.5523500000000 1.0
C      1  0.4835250000000  0.5441850000000  0.5720510000000 1.0
END
