TITL C-2323483-8886-410 2.14868007173892e-06 125000 -364.279900220617 0 0 60 (C1) n - 1
REM
REM in /home/bkarasulu/CARBON/AIRSS/Generating-Clusters/LCBOP/Higher-Symm/Only-C60/SD-CG/FIRE-HFTN
REM
REM
REM
REM
REM
REM ./C.cell (50c204cfd26239f34c78669fe23a5462)
REM
REM compiler GCC version 9.2.1 20190827 (Red Hat 9.2.1-1)
REM options -cpp -mtune=generic -march=x86-64 -g -O0 -fpre-include=/usr/include/finclude/math-vector-fortran.h
REM seed 41670761 688851480 -1429257757 -2058164588 -1707448584 -349606985 -1065215798 2033021215 1257567227 512167809 750669471 -361386816 1733552870 -1319058917 1073434688 1609751540 731883214 -1372367499 124868262 -859561835 1478371375 -40953158 -1444659584 -1281841045 -351178891 -1950589116 -355678693 773823585 843263530 -1587355044 124434183 1304064537 76151196
REM
CELL 1.54180   50.00000   50.00000   50.00000   90.00000   90.00000   90.00000
LATT -1
SFAC C  
C      1  0.5717450000000  0.5140590000000  0.4794670000000 1.0
C      1  0.5713050000000  0.5236260000000  0.5072860000000 1.0
C      1  0.5713220000000  0.5000560000000  0.5248950000000 1.0
C      1  0.5724350000000  0.4758650000000  0.5080970000000 1.0
C      1  0.5727210000000  0.4845260000000  0.4798130000000 1.0
C      1  0.4593690000000  0.5303490000000  0.4684700000000 1.0
C      1  0.4576780000000  0.5391050000000  0.5195010000000 1.0
C      1  0.4593470000000  0.4932770000000  0.5432610000000 1.0
C      1  0.4566100000000  0.4563410000000  0.5077300000000 1.0
C      1  0.4568690000000  0.4796380000000  0.4607570000000 1.0
C      1  0.4807170000000  0.4377480000000  0.5566610000000 1.0
C      1  0.4806290000000  0.4276010000000  0.4585460000000 1.0
C      1  0.4808120000000  0.5174210000000  0.4172960000000 1.0
C      1  0.4807120000000  0.5833240000000  0.4909850000000 1.0
C      1  0.4803960000000  0.5344210000000  0.5769790000000 1.0
C      1  0.4355280000000  0.5181610000000  0.4816590000000 1.0
C      1  0.4344870000000  0.5233270000000  0.5115580000000 1.0
C      1  0.4354750000000  0.4964460000000  0.5255910000000 1.0
C      1  0.4337720000000  0.4747040000000  0.5046370000000 1.0
C      1  0.4338990000000  0.4883100000000  0.4771160000000 1.0
C      1  0.5167240000000  0.4527380000000  0.4378270000000 1.0
C      1  0.5171410000000  0.5449690000000  0.4341350000000 1.0
C      1  0.5166040000000  0.5753850000000  0.5227380000000 1.0
C      1  0.5167180000000  0.5022460000000  0.5797290000000 1.0
C      1  0.5164660000000  0.4261290000000  0.5258440000000 1.0
C      1  0.5418840000000  0.4342240000000  0.5222720000000 1.0
C      1  0.5422180000000  0.4582210000000  0.4445330000000 1.0
C      1  0.5420240000000  0.5398700000000  0.4429130000000 1.0
C      1  0.5419150000000  0.5664730000000  0.5205530000000 1.0
C      1  0.5415380000000  0.5008440000000  0.5695740000000 1.0
C      1  0.4783680000000  0.4749810000000  0.5036760000000 1.0
C      1  0.4785520000000  0.4874730000000  0.4782610000000 1.0
C      1  0.4841170000000  0.5172230000000  0.4810640000000 1.0
C      1  0.4782640000000  0.5214830000000  0.5106660000000 1.0
C      1  0.4842430000000  0.4953230000000  0.5252930000000 1.0
C      1  0.5248450000000  0.4910540000000  0.4788210000000 1.0
C      1  0.5142250000000  0.5179810000000  0.4822180000000 1.0
C      1  0.5213460000000  0.5223990000000  0.5113240000000 1.0
C      1  0.5144840000000  0.4959490000000  0.5241450000000 1.0
C      1  0.5246070000000  0.4779210000000  0.5034120000000 1.0
C      1  0.4750680000000  0.4589910000000  0.5722810000000 1.0
C      1  0.4744030000000  0.4194540000000  0.4834790000000 1.0
C      1  0.4745570000000  0.4912210000000  0.4179900000000 1.0
C      1  0.4751750000000  0.5752370000000  0.4658770000000 1.0
C      1  0.4743740000000  0.5552530000000  0.5609770000000 1.0
C      1  0.5627590000000  0.4685410000000  0.4586450000000 1.0
C      1  0.5615940000000  0.5291890000000  0.4579290000000 1.0
C      1  0.5617450000000  0.5490680000000  0.5150410000000 1.0
C      1  0.5610650000000  0.5003470000000  0.5511390000000 1.0
C      1  0.5623740000000  0.4508110000000  0.5166220000000 1.0
C      1  0.4707210000000  0.4867890000000  0.5689680000000 1.0
C      1  0.4694640000000  0.4307390000000  0.5090460000000 1.0
C      1  0.4697790000000  0.4705870000000  0.4368230000000 1.0
C      1  0.4709780000000  0.5509540000000  0.4519320000000 1.0
C      1  0.4698880000000  0.5607130000000  0.5335150000000 1.0
C      1  0.4887470000000  0.4488640000000  0.4414430000000 1.0
C      1  0.4891900000000  0.5403710000000  0.4318770000000 1.0
C      1  0.4886680000000  0.5760500000000  0.5173120000000 1.0
C      1  0.4887890000000  0.5073060000000  0.5788130000000 1.0
C      1  0.4885480000000  0.4283270000000  0.5309850000000 1.0
END
