TITL C-2323491-8878-508 6.80460659552312e-05 125000 -369.313945779006 0 0 60 (S4) n - 1
REM
REM in /home/bkarasulu/CARBON/AIRSS/Generating-Clusters/LCBOP/Higher-Symm/Only-C60/SD-CG/FIRE-HFTN
REM
REM
REM
REM
REM
REM ./C.cell (50c204cfd26239f34c78669fe23a5462)
REM
REM compiler GCC version 9.2.1 20190827 (Red Hat 9.2.1-1)
REM options -cpp -mtune=generic -march=x86-64 -g -O0 -fpre-include=/usr/include/finclude/math-vector-fortran.h
REM seed 1352323193 -73441613 1715104728 15119081 1675766364 -4250211 722510903 -1760670409 -926623957 -1486707941 1799484062 -761896998 233074685 451560343 -916170504 1263398938 -267627933 -1662411352 1385714799 1091703237 -759195147 -1810747262 1073840152 -107703562 636481728 1729748625 -806459285 624707276 1770377117 -98645430 -2051087516 2002031357 -1570931190
REM
CELL 1.54180   50.00000   50.00000   50.00000   90.00000   90.00000   90.00000
LATT -1
SFAC C  
C      1  0.5455570000000  0.4120760000000  0.5098950000000 1.0
C      1  0.4120730000000  0.4544430000000  0.4901320000000 1.0
C      1  0.4544450000000  0.5879270000000  0.5098730000000 1.0
C      1  0.5879250000000  0.5455540000000  0.4901000000000 1.0
C      1  0.4393460000000  0.5200080000000  0.5422600000000 1.0
C      1  0.5199970000000  0.5606500000000  0.4577300000000 1.0
C      1  0.5606610000000  0.4800060000000  0.5422560000000 1.0
C      1  0.4799950000000  0.4393350000000  0.4577540000000 1.0
C      1  0.5430050000000  0.4660500000000  0.4708820000000 1.0
C      1  0.4660580000000  0.4569970000000  0.5291300000000 1.0
C      1  0.4569890000000  0.5339400000000  0.4708780000000 1.0
C      1  0.5339480000000  0.5430130000000  0.5291090000000 1.0
C      1  0.5008240000000  0.4289830000000  0.5094370000000 1.0
C      1  0.4289810000000  0.4991760000000  0.4905820000000 1.0
C      1  0.4991780000000  0.5710200000000  0.5094130000000 1.0
C      1  0.5710180000000  0.5008210000000  0.4905680000000 1.0
C      1  0.5769420000000  0.5152620000000  0.4309310000000 1.0
C      1  0.5152810000000  0.4230640000000  0.5690720000000 1.0
C      1  0.4230460000000  0.4847140000000  0.4309500000000 1.0
C      1  0.4847320000000  0.5769600000000  0.5690480000000 1.0
C      1  0.4050560000000  0.4513130000000  0.4643900000000 1.0
C      1  0.4513220000000  0.5949470000000  0.5356160000000 1.0
C      1  0.5949370000000  0.5486750000000  0.4643550000000 1.0
C      1  0.5486840000000  0.4050650000000  0.5356400000000 1.0
C      1  0.4417380000000  0.4718530000000  0.5278770000000 1.0
C      1  0.4718460000000  0.5582600000000  0.4721260000000 1.0
C      1  0.5582670000000  0.5281560000000  0.5278560000000 1.0
C      1  0.5281490000000  0.4417310000000  0.4721410000000 1.0
C      1  0.5243870000000  0.5585740000000  0.5072680000000 1.0
C      1  0.5585720000000  0.4756120000000  0.4927190000000 1.0
C      1  0.4756140000000  0.4414290000000  0.5072920000000 1.0
C      1  0.4414270000000  0.5243850000000  0.4927210000000 1.0
C      1  0.5620900000000  0.5067120000000  0.5461580000000 1.0
C      1  0.5067000000000  0.4379060000000  0.4538450000000 1.0
C      1  0.4379180000000  0.4933040000000  0.5461720000000 1.0
C      1  0.4932920000000  0.5620780000000  0.4538250000000 1.0
C      1  0.4959130000000  0.4410150000000  0.5653210000000 1.0
C      1  0.4409970000000  0.5040820000000  0.4346940000000 1.0
C      1  0.5040990000000  0.5590080000000  0.5653000000000 1.0
C      1  0.5589910000000  0.4958960000000  0.4346850000000 1.0
C      1  0.4095520000000  0.4640860000000  0.4412720000000 1.0
C      1  0.4641020000000  0.5904530000000  0.5587300000000 1.0
C      1  0.5904370000000  0.5358930000000  0.4412430000000 1.0
C      1  0.5359090000000  0.4095680000000  0.5587550000000 1.0
C      1  0.4419460000000  0.5340380000000  0.5193070000000 1.0
C      1  0.5340330000000  0.5580530000000  0.4806790000000 1.0
C      1  0.5580580000000  0.4659690000000  0.5193080000000 1.0
C      1  0.4659640000000  0.4419410000000  0.4807050000000 1.0
C      1  0.5731970000000  0.5258680000000  0.5035580000000 1.0
C      1  0.5258670000000  0.4268030000000  0.4964410000000 1.0
C      1  0.4268030000000  0.4741330000000  0.5035810000000 1.0
C      1  0.4741330000000  0.5731960000000  0.4964200000000 1.0
C      1  0.4880590000000  0.5057900000000  0.4453020000000 1.0
C      1  0.5058050000000  0.5119450000000  0.5546960000000 1.0
C      1  0.5119310000000  0.4941910000000  0.4453020000000 1.0
C      1  0.4942050000000  0.4880740000000  0.5547010000000 1.0
C      1  0.4844420000000  0.4620620000000  0.5506950000000 1.0
C      1  0.4620490000000  0.5155540000000  0.4493140000000 1.0
C      1  0.5155670000000  0.5379560000000  0.5506790000000 1.0
C      1  0.5379420000000  0.4844280000000  0.4493120000000 1.0
END
