TITL C-2323486-8761-512 59212.478344523 125000 -328.744006391923 0 0 60 (C1) n - 1
REM
REM in /home/bkarasulu/CARBON/AIRSS/Generating-Clusters/LCBOP/Higher-Symm/Only-C60/SD-CG/FIRE-HFTN
REM
REM
REM
REM
REM
REM ./C.cell (50c204cfd26239f34c78669fe23a5462)
REM
REM compiler GCC version 9.2.1 20190827 (Red Hat 9.2.1-1)
REM options -cpp -mtune=generic -march=x86-64 -g -O0 -fpre-include=/usr/include/finclude/math-vector-fortran.h
REM seed -350146629 -2062469661 -1219460559 -1377106839 -834736378 592027257 -1846471174 -1098893279 -1927508618 -491978457 724608924 -1209486387 1899906462 -965541431 -143502898 -1144573840 793936913 -786697046 -452730034 -1226300807 -1276432527 -913902864 -1121884118 1337573099 1901045760 1005496531 404988925 -861201776 1848528343 -801736705 361402385 454344282 -1027673932
REM
CELL 1.54180   50.00000   50.00000   50.00000   90.00000   90.00000   90.00000
LATT -1
SFAC C  
C      1  0.4583810000000  0.5043730000000  0.4770290000000 1.0
C      1  0.5016180000000  0.4759730000000  0.4549590000000 1.0
C      1  0.4741450000000  0.4552750000000  0.4985120000000 1.0
C      1  0.4548380000000  0.4986870000000  0.5253760000000 1.0
C      1  0.5417840000000  0.5017790000000  0.5234140000000 1.0
C      1  0.5455950000000  0.5011920000000  0.4744660000000 1.0
C      1  0.4995830000000  0.5252390000000  0.5453120000000 1.0
C      1  0.4965230000000  0.4765590000000  0.5415510000000 1.0
C      1  0.4986100000000  0.5247910000000  0.4579610000000 1.0
C      1  0.4740820000000  0.5454530000000  0.5003530000000 1.0
C      1  0.5228540000000  0.4586990000000  0.4965540000000 1.0
C      1  0.5226220000000  0.5424640000000  0.5045180000000 1.0
C      1  0.4548880000000  0.4747470000000  0.4987710000000 1.0
C      1  0.5032160000000  0.4587960000000  0.4760070000000 1.0
C      1  0.4781940000000  0.5046540000000  0.4581490000000 1.0
C      1  0.4577700000000  0.5236730000000  0.4982320000000 1.0
C      1  0.5420360000000  0.5231250000000  0.5042190000000 1.0
C      1  0.5446570000000  0.4748790000000  0.4986680000000 1.0
C      1  0.5017360000000  0.5424910000000  0.5242650000000 1.0
C      1  0.5002080000000  0.5457630000000  0.4753460000000 1.0
C      1  0.4987000000000  0.4554560000000  0.5244920000000 1.0
C      1  0.4763540000000  0.4966560000000  0.5419620000000 1.0
C      1  0.5267420000000  0.5014080000000  0.4546070000000 1.0
C      1  0.5250230000000  0.4996240000000  0.5448280000000 1.0
C      1  0.5051100000000  0.5758470000000  0.4728250000000 1.0
C      1  0.5748050000000  0.4710630000000  0.5037820000000 1.0
C      1  0.4747130000000  0.5071090000000  0.5782380000000 1.0
C      1  0.5038360000000  0.4253670000000  0.5275500000000 1.0
C      1  0.4908470000000  0.5786100000000  0.5259020000000 1.0
C      1  0.4928180000000  0.4224920000000  0.4737040000000 1.0
C      1  0.5782170000000  0.5252370000000  0.4943270000000 1.0
C      1  0.4247590000000  0.4722330000000  0.4933250000000 1.0
C      1  0.4217860000000  0.5248030000000  0.5089840000000 1.0
C      1  0.4757720000000  0.4936780000000  0.4224600000000 1.0
C      1  0.5293250000000  0.5061450000000  0.4242740000000 1.0
C      1  0.5281260000000  0.4944730000000  0.5748670000000 1.0
C      1  0.5075950000000  0.4742200000000  0.5777250000000 1.0
C      1  0.5758060000000  0.5061340000000  0.4725850000000 1.0
C      1  0.4708780000000  0.5756210000000  0.5050410000000 1.0
C      1  0.5087980000000  0.5264820000000  0.4215740000000 1.0
C      1  0.4949320000000  0.5277140000000  0.5754480000000 1.0
C      1  0.4960840000000  0.4729870000000  0.4249600000000 1.0
C      1  0.5777470000000  0.4904300000000  0.5252380000000 1.0
C      1  0.4222450000000  0.4938910000000  0.4741840000000 1.0
C      1  0.4246240000000  0.5033770000000  0.5284530000000 1.0
C      1  0.4716790000000  0.4250810000000  0.4933780000000 1.0
C      1  0.5246930000000  0.4226200000000  0.5075580000000 1.0
C      1  0.5247690000000  0.5785770000000  0.4940050000000 1.0
C      1  0.5874670000000  0.4802840000000  0.4792220000000 1.0
C      1  0.4836710000000  0.4829860000000  0.5896040000000 1.0
C      1  0.4795480000000  0.5877710000000  0.4800400000000 1.0
C      1  0.5896490000000  0.5148380000000  0.5179100000000 1.0
C      1  0.4125170000000  0.4786480000000  0.5189700000000 1.0
C      1  0.4103230000000  0.5172850000000  0.4843850000000 1.0
C      1  0.4845880000000  0.5175680000000  0.4103400000000 1.0
C      1  0.5211700000000  0.4808110000000  0.4124150000000 1.0
C      1  0.4789080000000  0.4130210000000  0.5189010000000 1.0
C      1  0.5151180000000  0.5902630000000  0.5177430000000 1.0
C      1  0.5166110000000  0.4109240000000  0.4832860000000 1.0
C      1  0.5203100000000  0.5196550000000  0.5872440000000 1.0
END
