TITL C-2323482-8828-501 0.109465224843214 125000 -362.019299482525 0 0 60 (C1) n - 1
REM
REM in /home/bkarasulu/CARBON/AIRSS/Generating-Clusters/LCBOP/Higher-Symm/Only-C60/SD-CG/FIRE-HFTN
REM
REM
REM
REM
REM
REM ./C.cell (50c204cfd26239f34c78669fe23a5462)
REM
REM compiler GCC version 9.2.1 20190827 (Red Hat 9.2.1-1)
REM options -cpp -mtune=generic -march=x86-64 -g -O0 -fpre-include=/usr/include/finclude/math-vector-fortran.h
REM seed -880908930 1578244283 1084647505 1295550329 -1554830412 -2103123244 890825687 459162337 -1800305570 2072700730 -1678008027 1214149260 915672244 656552339 2121767643 1327501611 1881792261 68184854 -741586662 128804075 -603382755 -1326789280 1658110876 -1220929318 881947753 -344857214 -2005026192 567204343 -1739487664 -1155524859 -1470309879 -1569338666 -1548068809
REM
CELL 1.54180   50.00000   50.00000   50.00000   90.00000   90.00000   90.00000
LATT -1
SFAC C  
C      1  0.5098700000000  0.5241520000000  0.5253030000000 1.0
C      1  0.4740700000000  0.5526340000000  0.5014870000000 1.0
C      1  0.4801160000000  0.4608850000000  0.5554520000000 1.0
C      1  0.4656830000000  0.5025130000000  0.5452770000000 1.0
C      1  0.5270330000000  0.5518060000000  0.4190620000000 1.0
C      1  0.4938340000000  0.4129260000000  0.5539350000000 1.0
C      1  0.4664120000000  0.5246520000000  0.4390580000000 1.0
C      1  0.5102680000000  0.5383620000000  0.4755580000000 1.0
C      1  0.5511160000000  0.5289310000000  0.5476470000000 1.0
C      1  0.5749240000000  0.5383160000000  0.5011120000000 1.0
C      1  0.4835090000000  0.4867460000000  0.4120250000000 1.0
C      1  0.5247510000000  0.3728170000000  0.5561170000000 1.0
C      1  0.4964700000000  0.4401390000000  0.5641820000000 1.0
C      1  0.5225980000000  0.5648970000000  0.4789020000000 1.0
C      1  0.5873270000000  0.5301390000000  0.4273020000000 1.0
C      1  0.5243750000000  0.4462540000000  0.5702810000000 1.0
C      1  0.5097120000000  0.5725840000000  0.5257260000000 1.0
C      1  0.5706430000000  0.5421750000000  0.4461020000000 1.0
C      1  0.5467890000000  0.4716310000000  0.5361510000000 1.0
C      1  0.4827440000000  0.5330550000000  0.4825910000000 1.0
C      1  0.6019250000000  0.5180390000000  0.4094250000000 1.0
C      1  0.4632780000000  0.4977830000000  0.4278320000000 1.0
C      1  0.4374230000000  0.4931430000000  0.5032890000000 1.0
C      1  0.4937800000000  0.5491740000000  0.5231240000000 1.0
C      1  0.5285510000000  0.4871960000000  0.4339070000000 1.0
C      1  0.4062910000000  0.5162770000000  0.5355870000000 1.0
C      1  0.4421550000000  0.4987720000000  0.4725200000000 1.0
C      1  0.4482810000000  0.4818520000000  0.4474450000000 1.0
C      1  0.4545840000000  0.4845600000000  0.5241170000000 1.0
C      1  0.5189040000000  0.3995750000000  0.5595590000000 1.0
C      1  0.5230680000000  0.5059860000000  0.5054250000000 1.0
C      1  0.4107980000000  0.5041370000000  0.5108250000000 1.0
C      1  0.5228950000000  0.5795670000000  0.5031520000000 1.0
C      1  0.5299600000000  0.3470860000000  0.5525510000000 1.0
C      1  0.5476500000000  0.5572780000000  0.4378240000000 1.0
C      1  0.5383790000000  0.5746240000000  0.4579730000000 1.0
C      1  0.4494190000000  0.5223930000000  0.5564760000000 1.0
C      1  0.3969650000000  0.5109430000000  0.4869270000000 1.0
C      1  0.5386690000000  0.4839980000000  0.5137070000000 1.0
C      1  0.5367950000000  0.4201430000000  0.5696730000000 1.0
C      1  0.5335390000000  0.4989310000000  0.4573100000000 1.0
C      1  0.4999930000000  0.5539990000000  0.4196980000000 1.0
C      1  0.5149250000000  0.4949030000000  0.5628570000000 1.0
C      1  0.4621090000000  0.4578850000000  0.5326140000000 1.0
C      1  0.4633230000000  0.5199140000000  0.4677990000000 1.0
C      1  0.4134210000000  0.5094670000000  0.4652320000000 1.0
C      1  0.4758180000000  0.5514430000000  0.4344680000000 1.0
C      1  0.4672650000000  0.5707800000000  0.4550450000000 1.0
C      1  0.5350550000000  0.3217630000000  0.5490240000000 1.0
C      1  0.4869360000000  0.4887660000000  0.5596280000000 1.0
C      1  0.5251500000000  0.5147030000000  0.4786680000000 1.0
C      1  0.5675050000000  0.5354300000000  0.5269350000000 1.0
C      1  0.4643470000000  0.5730610000000  0.4828210000000 1.0
C      1  0.5761610000000  0.5397230000000  0.4741770000000 1.0
C      1  0.4592490000000  0.4311250000000  0.5242350000000 1.0
C      1  0.5326370000000  0.4716020000000  0.5607340000000 1.0
C      1  0.5243910000000  0.5190580000000  0.5500800000000 1.0
C      1  0.5097220000000  0.4824660000000  0.4155450000000 1.0
C      1  0.4734450000000  0.4102490000000  0.5346000000000 1.0
C      1  0.4229940000000  0.5265930000000  0.5539250000000 1.0
END
