TITL C-2323477-5056-285 5.01621594441471e-05 125000 -353.227871165794 0 0 60 (C1) n - 1
REM
REM in /home/bkarasulu/CARBON/AIRSS/Generating-Clusters/LCBOP/Higher-Symm/Only-C60/SD-CG/FIRE-HFTN
REM
REM
REM
REM
REM
REM ./C.cell (50c204cfd26239f34c78669fe23a5462)
REM
REM compiler GCC version 9.2.1 20190827 (Red Hat 9.2.1-1)
REM options -cpp -mtune=generic -march=x86-64 -g -O0 -fpre-include=/usr/include/finclude/math-vector-fortran.h
REM seed -1811980779 1970503039 -846423008 2003796841 -336552159 -1340375974 508293864 -1058413233 -1279273003 41694637 -124500764 -470972841 -110901332 -195517383 -446090549 361961983 -1046831792 -479524153 -2009392438 69762721 1926957020 -796484726 -1189699438 -754637696 389187063 -1989513856 -1302497797 1016120662 -1434872163 -490902367 493785481 -98877286 -171893435
REM
CELL 1.54180   50.00000   50.00000   50.00000   90.00000   90.00000   90.00000
LATT -1
SFAC C  
C      1  0.5617040000000  0.4607350000000  0.5266710000000 1.0
C      1  0.5109390000000  0.4375680000000  0.5950530000000 1.0
C      1  0.4997930000000  0.4350250000000  0.4582480000000 1.0
C      1  0.5288940000000  0.5134350000000  0.4708650000000 1.0
C      1  0.4312210000000  0.4736160000000  0.5179870000000 1.0
C      1  0.5013240000000  0.4856260000000  0.5831690000000 1.0
C      1  0.4437560000000  0.4712240000000  0.4660340000000 1.0
C      1  0.4748050000000  0.5090570000000  0.5518600000000 1.0
C      1  0.5807160000000  0.5263100000000  0.4923650000000 1.0
C      1  0.5406990000000  0.4644640000000  0.4680740000000 1.0
C      1  0.4223360000000  0.5005660000000  0.5160500000000 1.0
C      1  0.5329150000000  0.5851410000000  0.5142970000000 1.0
C      1  0.4410810000000  0.4609910000000  0.4941130000000 1.0
C      1  0.5453130000000  0.4983160000000  0.5691210000000 1.0
C      1  0.5406650000000  0.6035890000000  0.5330310000000 1.0
C      1  0.4629420000000  0.5066720000000  0.4353670000000 1.0
C      1  0.4395260000000  0.5477860000000  0.5126610000000 1.0
C      1  0.4552050000000  0.4501580000000  0.4494060000000 1.0
C      1  0.5177750000000  0.4455070000000  0.4111850000000 1.0
C      1  0.4297410000000  0.5237730000000  0.5017910000000 1.0
C      1  0.4560970000000  0.4680880000000  0.5645750000000 1.0
C      1  0.5307660000000  0.4865840000000  0.5086570000000 1.0
C      1  0.5055600000000  0.5825290000000  0.5080050000000 1.0
C      1  0.4927150000000  0.5898140000000  0.4827820000000 1.0
C      1  0.4363110000000  0.5189020000000  0.4747240000000 1.0
C      1  0.4844210000000  0.5707410000000  0.5242440000000 1.0
C      1  0.5183200000000  0.4621810000000  0.5864340000000 1.0
C      1  0.5069590000000  0.5234410000000  0.5146710000000 1.0
C      1  0.4701800000000  0.4480360000000  0.4251060000000 1.0
C      1  0.5716510000000  0.4887270000000  0.5250800000000 1.0
C      1  0.5459880000000  0.4910400000000  0.4822890000000 1.0
C      1  0.5306540000000  0.5109040000000  0.5247950000000 1.0
C      1  0.5154870000000  0.5341740000000  0.5883740000000 1.0
C      1  0.5169400000000  0.4903710000000  0.3895720000000 1.0
C      1  0.5202860000000  0.4449530000000  0.4753310000000 1.0
C      1  0.5727900000000  0.4994410000000  0.4964280000000 1.0
C      1  0.5448520000000  0.4707070000000  0.5785380000000 1.0
C      1  0.4723260000000  0.4348290000000  0.4691880000000 1.0
C      1  0.4651880000000  0.4437860000000  0.4956470000000 1.0
C      1  0.5132190000000  0.4467850000000  0.5038300000000 1.0
C      1  0.4761350000000  0.4873820000000  0.5700830000000 1.0
C      1  0.5709020000000  0.5511000000000  0.4951270000000 1.0
C      1  0.4778900000000  0.5120850000000  0.4140810000000 1.0
C      1  0.4977660000000  0.4401550000000  0.4296960000000 1.0
C      1  0.5041840000000  0.5197620000000  0.4844660000000 1.0
C      1  0.5200230000000  0.5085610000000  0.5803820000000 1.0
C      1  0.4390660000000  0.4643170000000  0.5438040000000 1.0
C      1  0.4812500000000  0.4864960000000  0.5072200000000 1.0
C      1  0.4844420000000  0.5085460000000  0.5260000000000 1.0
C      1  0.4595810000000  0.5668710000000  0.5095220000000 1.0
C      1  0.5532290000000  0.5056230000000  0.5427250000000 1.0
C      1  0.5340180000000  0.4593890000000  0.5184970000000 1.0
C      1  0.4653490000000  0.5807420000000  0.4845590000000 1.0
C      1  0.4561500000000  0.4995860000000  0.4633440000000 1.0
C      1  0.5252570000000  0.4655600000000  0.3951330000000 1.0
C      1  0.5041770000000  0.6025400000000  0.4617430000000 1.0
C      1  0.4980360000000  0.5075860000000  0.3972600000000 1.0
C      1  0.4814380000000  0.5008970000000  0.4809400000000 1.0
C      1  0.5525130000000  0.5692720000000  0.5017470000000 1.0
C      1  0.4865320000000  0.4579370000000  0.5080520000000 1.0
END
