TITL C-2323485-8600-154 1.48168096939335 125000 -348.815848723517 0 0 60 (C1) n - 1
REM
REM in /home/bkarasulu/CARBON/AIRSS/Generating-Clusters/LCBOP/Higher-Symm/Only-C60/SD-CG/FIRE-HFTN
REM
REM
REM
REM
REM
REM ./C.cell (50c204cfd26239f34c78669fe23a5462)
REM
REM compiler GCC version 9.2.1 20190827 (Red Hat 9.2.1-1)
REM options -cpp -mtune=generic -march=x86-64 -g -O0 -fpre-include=/usr/include/finclude/math-vector-fortran.h
REM seed 2112424571 880662430 1569004561 262102259 1804683234 181237784 -1708240884 2102974698 -2015654654 -1677789213 349550785 -2047468721 -523811189 -1277188446 -1117220477 965269523 -1491861674 1970176751 -1790915564 623243698 253451900 117055050 -424453756 1411729834 -982191330 1921617512 1978451692 1975558901 -1655109135 -732689072 -173442098 -1224889790 44206607
REM
CELL 1.54180   50.00000   50.00000   50.00000   90.00000   90.00000   90.00000
LATT -1
SFAC C  
C      1  0.4541530000000  0.5173150000000  0.4707420000000 1.0
C      1  0.4721400000000  0.5676230000000  0.5087090000000 1.0
C      1  0.5165390000000  0.5195230000000  0.5510940000000 1.0
C      1  0.4612280000000  0.4873350000000  0.5682520000000 1.0
C      1  0.5872530000000  0.5293930000000  0.4826500000000 1.0
C      1  0.4769060000000  0.4790380000000  0.4235500000000 1.0
C      1  0.5804690000000  0.4600830000000  0.4562730000000 1.0
C      1  0.5535110000000  0.4207290000000  0.4463340000000 1.0
C      1  0.5060760000000  0.4915590000000  0.4731290000000 1.0
C      1  0.5358810000000  0.4582180000000  0.4724180000000 1.0
C      1  0.5565850000000  0.4452840000000  0.4576980000000 1.0
C      1  0.5930270000000  0.5552390000000  0.4822080000000 1.0
C      1  0.5189360000000  0.5554670000000  0.5226570000000 1.0
C      1  0.4743560000000  0.3796300000000  0.5350640000000 1.0
C      1  0.4902100000000  0.4494490000000  0.5500070000000 1.0
C      1  0.4902520000000  0.4904860000000  0.5194370000000 1.0
C      1  0.5374510000000  0.5365370000000  0.5358080000000 1.0
C      1  0.4699810000000  0.5298610000000  0.4498080000000 1.0
C      1  0.4872350000000  0.4605770000000  0.4435190000000 1.0
C      1  0.5880470000000  0.4832090000000  0.4674200000000 1.0
C      1  0.4443140000000  0.4463050000000  0.5363770000000 1.0
C      1  0.4258610000000  0.5340900000000  0.4409200000000 1.0
C      1  0.4415000000000  0.5529590000000  0.5435920000000 1.0
C      1  0.6067170000000  0.6331080000000  0.4835120000000 1.0
C      1  0.5570940000000  0.4979160000000  0.5531550000000 1.0
C      1  0.5977160000000  0.5813170000000  0.4825620000000 1.0
C      1  0.4516730000000  0.5249060000000  0.4273400000000 1.0
C      1  0.5210520000000  0.5132060000000  0.4660670000000 1.0
C      1  0.6022550000000  0.6074270000000  0.4830400000000 1.0
C      1  0.4862400000000  0.5502250000000  0.4896670000000 1.0
C      1  0.5111480000000  0.4670250000000  0.4593940000000 1.0
C      1  0.5604720000000  0.4366530000000  0.5298100000000 1.0
C      1  0.4453070000000  0.5571480000000  0.5154810000000 1.0
C      1  0.4604570000000  0.4942870000000  0.4835310000000 1.0
C      1  0.5564470000000  0.5130550000000  0.5277960000000 1.0
C      1  0.4189360000000  0.5150250000000  0.5138580000000 1.0
C      1  0.5025170000000  0.5349740000000  0.5077890000000 1.0
C      1  0.4685820000000  0.4327780000000  0.5414900000000 1.0
C      1  0.4424450000000  0.5026530000000  0.5540450000000 1.0
C      1  0.4667240000000  0.4456450000000  0.4566450000000 1.0
C      1  0.5579280000000  0.4959750000000  0.5038090000000 1.0
C      1  0.4712760000000  0.4052840000000  0.5384580000000 1.0
C      1  0.4294250000000  0.4934430000000  0.5296510000000 1.0
C      1  0.4272010000000  0.5389240000000  0.4992040000000 1.0
C      1  0.5432210000000  0.4698940000000  0.4993840000000 1.0
C      1  0.5149680000000  0.4497910000000  0.5364880000000 1.0
C      1  0.4409560000000  0.5306020000000  0.5586420000000 1.0
C      1  0.4983060000000  0.5150210000000  0.5290700000000 1.0
C      1  0.5781880000000  0.5030880000000  0.4846140000000 1.0
C      1  0.4860420000000  0.5492320000000  0.4616940000000 1.0
C      1  0.4966330000000  0.5758050000000  0.5258170000000 1.0
C      1  0.4324160000000  0.4661230000000  0.5200220000000 1.0
C      1  0.5328480000000  0.5011860000000  0.5661720000000 1.0
C      1  0.5391900000000  0.4522970000000  0.5220810000000 1.0
C      1  0.4817510000000  0.4700380000000  0.5674760000000 1.0
C      1  0.4295900000000  0.5329580000000  0.4707180000000 1.0
C      1  0.4857830000000  0.4881700000000  0.4923210000000 1.0
C      1  0.4450450000000  0.4471390000000  0.4725390000000 1.0
C      1  0.4606080000000  0.4998500000000  0.4161710000000 1.0
C      1  0.4309350000000  0.4579230000000  0.4928210000000 1.0
END
