TITL C-2323492-8884-38 0.0443409452985039 125000 -362.468225956584 0 0 60 (C1) n - 1
REM
REM in /home/bkarasulu/CARBON/AIRSS/Generating-Clusters/LCBOP/Higher-Symm/Only-C60/SD-CG/FIRE-HFTN
REM
REM
REM
REM
REM
REM ./C.cell (50c204cfd26239f34c78669fe23a5462)
REM
REM compiler GCC version 9.2.1 20190827 (Red Hat 9.2.1-1)
REM options -cpp -mtune=generic -march=x86-64 -g -O0 -fpre-include=/usr/include/finclude/math-vector-fortran.h
REM seed -2009467669 693651386 -638586697 1469126443 -1558209094 1430046286 377061634 163158941 1545859313 361225026 226430620 -45324367 1262639886 -1689740990 -1142010697 -1545376006 149338520 2003615030 1854250992 2003458270 1027779979 1430430445 -296806879 -748867471 -1141127848 1244651471 1776218841 1976401817 -386677401 1749594205 1117739004 793381416 -455716767
REM
CELL 1.54180   50.00000   50.00000   50.00000   90.00000   90.00000   90.00000
LATT -1
SFAC C  
C      1  0.4375540000000  0.4948200000000  0.5356260000000 1.0
C      1  0.5625700000000  0.4329260000000  0.4983940000000 1.0
C      1  0.5428340000000  0.4783200000000  0.4300190000000 1.0
C      1  0.5500310000000  0.5471840000000  0.4919420000000 1.0
C      1  0.4960680000000  0.5779180000000  0.5237810000000 1.0
C      1  0.5235700000000  0.4598780000000  0.5645950000000 1.0
C      1  0.4702100000000  0.4539560000000  0.5204200000000 1.0
C      1  0.4780140000000  0.5032720000000  0.5020260000000 1.0
C      1  0.5232820000000  0.5903040000000  0.4859300000000 1.0
C      1  0.4550470000000  0.4412600000000  0.4993800000000 1.0
C      1  0.5118500000000  0.5450630000000  0.4317790000000 1.0
C      1  0.5118220000000  0.4691650000000  0.5057620000000 1.0
C      1  0.4760190000000  0.4235010000000  0.4579550000000 1.0
C      1  0.5233590000000  0.4450620000000  0.5170030000000 1.0
C      1  0.5376270000000  0.4980730000000  0.4738980000000 1.0
C      1  0.5043790000000  0.4247020000000  0.5230090000000 1.0
C      1  0.4852180000000  0.4768060000000  0.5106680000000 1.0
C      1  0.4530180000000  0.4801080000000  0.4691370000000 1.0
C      1  0.5377360000000  0.4829400000000  0.5539160000000 1.0
C      1  0.5401730000000  0.5730410000000  0.5017330000000 1.0
C      1  0.5179020000000  0.4193170000000  0.4758830000000 1.0
C      1  0.4797870000000  0.5658800000000  0.4826890000000 1.0
C      1  0.5396090000000  0.5286840000000  0.4701040000000 1.0
C      1  0.4953080000000  0.5056910000000  0.5661200000000 1.0
C      1  0.5468050000000  0.5310470000000  0.5153870000000 1.0
C      1  0.4528790000000  0.4820630000000  0.5563690000000 1.0
C      1  0.5350620000000  0.5336260000000  0.5632410000000 1.0
C      1  0.5333370000000  0.5578730000000  0.5515330000000 1.0
C      1  0.4804970000000  0.5296140000000  0.5624810000000 1.0
C      1  0.4308030000000  0.5646090000000  0.4948040000000 1.0
C      1  0.5054480000000  0.5524860000000  0.3797060000000 1.0
C      1  0.5023440000000  0.5559120000000  0.3540490000000 1.0
C      1  0.4577460000000  0.5049470000000  0.4823840000000 1.0
C      1  0.4969500000000  0.4135880000000  0.4973790000000 1.0
C      1  0.4697320000000  0.4204310000000  0.4861390000000 1.0
C      1  0.4962380000000  0.5871030000000  0.4943980000000 1.0
C      1  0.5226710000000  0.5161790000000  0.5138350000000 1.0
C      1  0.5243750000000  0.5074010000000  0.5627030000000 1.0
C      1  0.5330160000000  0.4898920000000  0.5037070000000 1.0
C      1  0.4571940000000  0.5637850000000  0.5008260000000 1.0
C      1  0.4977950000000  0.5233630000000  0.5012310000000 1.0
C      1  0.4853040000000  0.4390070000000  0.5401020000000 1.0
C      1  0.5086180000000  0.5489660000000  0.4057840000000 1.0
C      1  0.4952540000000  0.4562210000000  0.5612710000000 1.0
C      1  0.4391330000000  0.4636830000000  0.4895860000000 1.0
C      1  0.5272850000000  0.4800030000000  0.4528970000000 1.0
C      1  0.5520650000000  0.4495390000000  0.5189920000000 1.0
C      1  0.5247460000000  0.5717180000000  0.5284110000000 1.0
C      1  0.4757180000000  0.4733640000000  0.4529240000000 1.0
C      1  0.4409930000000  0.5233240000000  0.5361380000000 1.0
C      1  0.4283180000000  0.4797590000000  0.5123560000000 1.0
C      1  0.5512540000000  0.4784080000000  0.5271550000000 1.0
C      1  0.5151410000000  0.5392100000000  0.4586420000000 1.0
C      1  0.4703370000000  0.5629860000000  0.5273880000000 1.0
C      1  0.4801740000000  0.4808050000000  0.5650180000000 1.0
C      1  0.4951150000000  0.5420550000000  0.4787370000000 1.0
C      1  0.5459190000000  0.4201770000000  0.4807280000000 1.0
C      1  0.5031920000000  0.4346120000000  0.4552660000000 1.0
C      1  0.4626090000000  0.5408760000000  0.5437710000000 1.0
C      1  0.5029440000000  0.4634930000000  0.4528900000000 1.0
END
