TITL C-2323478-8180-591 0.136444239128046 125000 -350.812021283604 0 0 60 (C1) n - 1
REM
REM in /home/bkarasulu/CARBON/AIRSS/Generating-Clusters/LCBOP/Higher-Symm/Only-C60/SD-CG/FIRE-HFTN
REM
REM
REM
REM
REM
REM ./C.cell (50c204cfd26239f34c78669fe23a5462)
REM
REM compiler GCC version 9.2.1 20190827 (Red Hat 9.2.1-1)
REM options -cpp -mtune=generic -march=x86-64 -g -O0 -fpre-include=/usr/include/finclude/math-vector-fortran.h
REM seed -680268175 -1749107070 320853327 -1423134184 -1617442704 -2133188843 -747125058 852498352 -1723736599 1219863483 439305998 1800772205 825797009 -464847521 -1572364898 -1965988097 1102539210 -738256149 -667574687 242680208 927867465 1644831121 836549129 -1269846456 -1333879907 -1756522321 1743873531 1878963422 -839844768 298149348 670609522 -1138705979 174706855
REM
CELL 1.54180   50.00000   50.00000   50.00000   90.00000   90.00000   90.00000
LATT -1
SFAC C  
C      1  0.5526030000000  0.5305740000000  0.5147950000000 1.0
C      1  0.4530190000000  0.5311720000000  0.4470540000000 1.0
C      1  0.5024530000000  0.4354640000000  0.5051250000000 1.0
C      1  0.4637290000000  0.5569870000000  0.4586460000000 1.0
C      1  0.4776300000000  0.5173650000000  0.4468490000000 1.0
C      1  0.5354920000000  0.5643820000000  0.4287600000000 1.0
C      1  0.4880580000000  0.4224060000000  0.4101190000000 1.0
C      1  0.5755300000000  0.4669060000000  0.5506710000000 1.0
C      1  0.4742520000000  0.5697380000000  0.5224580000000 1.0
C      1  0.4236100000000  0.5424710000000  0.4808300000000 1.0
C      1  0.4719350000000  0.4926050000000  0.5300800000000 1.0
C      1  0.4465390000000  0.4575100000000  0.5113910000000 1.0
C      1  0.5508410000000  0.5519220000000  0.5340510000000 1.0
C      1  0.4853500000000  0.5193140000000  0.4946860000000 1.0
C      1  0.5488540000000  0.4293500000000  0.4545380000000 1.0
C      1  0.4452280000000  0.5622310000000  0.4809550000000 1.0
C      1  0.5257610000000  0.5490900000000  0.4495610000000 1.0
C      1  0.4557750000000  0.4316340000000  0.5176880000000 1.0
C      1  0.5318690000000  0.4757290000000  0.4798150000000 1.0
C      1  0.5191590000000  0.4962340000000  0.5348850000000 1.0
C      1  0.5798390000000  0.4770690000000  0.4976580000000 1.0
C      1  0.5163180000000  0.4949660000000  0.4630720000000 1.0
C      1  0.5209970000000  0.4995340000000  0.5631780000000 1.0
C      1  0.4518770000000  0.5734370000000  0.5058470000000 1.0
C      1  0.5397160000000  0.4846360000000  0.5772890000000 1.0
C      1  0.4975080000000  0.5482080000000  0.4525250000000 1.0
C      1  0.4104620000000  0.5335970000000  0.5039270000000 1.0
C      1  0.4501500000000  0.4667190000000  0.4846330000000 1.0
C      1  0.5024830000000  0.5447160000000  0.5552220000000 1.0
C      1  0.5038240000000  0.4642050000000  0.4996970000000 1.0
C      1  0.4789350000000  0.5447380000000  0.5369180000000 1.0
C      1  0.4190270000000  0.4979960000000  0.4585260000000 1.0
C      1  0.5278860000000  0.5576070000000  0.5485360000000 1.0
C      1  0.5633760000000  0.4696710000000  0.5757890000000 1.0
C      1  0.4911260000000  0.4065850000000  0.3896280000000 1.0
C      1  0.4780330000000  0.4719240000000  0.4753340000000 1.0
C      1  0.4286150000000  0.4752670000000  0.4688630000000 1.0
C      1  0.4236890000000  0.4943670000000  0.5341930000000 1.0
C      1  0.4807410000000  0.4218880000000  0.5140300000000 1.0
C      1  0.5099180000000  0.5326800000000  0.5004210000000 1.0
C      1  0.4281030000000  0.5243440000000  0.4588020000000 1.0
C      1  0.5580440000000  0.5210260000000  0.4876630000000 1.0
C      1  0.5458180000000  0.5357450000000  0.4658550000000 1.0
C      1  0.5396180000000  0.4506920000000  0.4662860000000 1.0
C      1  0.4853090000000  0.4384320000000  0.4310480000000 1.0
C      1  0.4839430000000  0.4541650000000  0.4523000000000 1.0
C      1  0.4469660000000  0.4790880000000  0.5299280000000 1.0
C      1  0.4722710000000  0.5200700000000  0.5213220000000 1.0
C      1  0.5800900000000  0.4695980000000  0.5246610000000 1.0
C      1  0.4868580000000  0.5008520000000  0.4697690000000 1.0
C      1  0.5744490000000  0.4579370000000  0.5985090000000 1.0
C      1  0.5132910000000  0.5608060000000  0.4979990000000 1.0
C      1  0.4107820000000  0.5152780000000  0.5234550000000 1.0
C      1  0.5062690000000  0.5220080000000  0.5721830000000 1.0
C      1  0.4979090000000  0.4804580000000  0.5244630000000 1.0
C      1  0.5848160000000  0.4469580000000  0.6197510000000 1.0
C      1  0.6008680000000  0.4710100000000  0.4812440000000 1.0
C      1  0.4982420000000  0.5794300000000  0.5106170000000 1.0
C      1  0.5267980000000  0.5177270000000  0.5184210000000 1.0
C      1  0.5573490000000  0.4914810000000  0.4874830000000 1.0
END
