TITL C-2323480-5884-289 0.471835699454703 125000 -346.287052304354 0 0 60 (C1) n - 1
REM
REM in /home/bkarasulu/CARBON/AIRSS/Generating-Clusters/LCBOP/Higher-Symm/Only-C60/SD-CG/FIRE-HFTN
REM
REM
REM
REM
REM
REM ./C.cell (50c204cfd26239f34c78669fe23a5462)
REM
REM compiler GCC version 9.2.1 20190827 (Red Hat 9.2.1-1)
REM options -cpp -mtune=generic -march=x86-64 -g -O0 -fpre-include=/usr/include/finclude/math-vector-fortran.h
REM seed -832807597 -1441986251 494707114 2057734647 -1333799806 -200837946 72388924 -1651770293 -1579481456 -1877028251 -926811954 -53717371 -891942327 -1925908111 -79451542 890703251 -573390233 -421412383 -1088385673 -292525328 -1059073470 1876713441 -1739142420 -158359849 1013394199 1958539709 -427352217 1375291902 1152745399 1260854919 1580723425 -1376909281 1638860762
REM
CELL 1.54180   50.00000   50.00000   50.00000   90.00000   90.00000   90.00000
LATT -1
SFAC C  
C      1  0.5212000000000  0.4980640000000  0.5553860000000 1.0
C      1  0.5223170000000  0.5114360000000  0.4657970000000 1.0
C      1  0.4478750000000  0.4868570000000  0.4278130000000 1.0
C      1  0.4414850000000  0.4730230000000  0.5882280000000 1.0
C      1  0.4725410000000  0.4257470000000  0.4563890000000 1.0
C      1  0.4648960000000  0.4201950000000  0.5445240000000 1.0
C      1  0.4645650000000  0.4871180000000  0.5078390000000 1.0
C      1  0.4369470000000  0.4816650000000  0.5004040000000 1.0
C      1  0.4266210000000  0.5572730000000  0.4466380000000 1.0
C      1  0.4712460000000  0.5672310000000  0.4619050000000 1.0
C      1  0.4665160000000  0.5148120000000  0.5171520000000 1.0
C      1  0.4213200000000  0.5061750000000  0.5041330000000 1.0
C      1  0.4643420000000  0.4388960000000  0.5632820000000 1.0
C      1  0.4723200000000  0.4479180000000  0.4418840000000 1.0
C      1  0.5313250000000  0.5243030000000  0.4889070000000 1.0
C      1  0.5346630000000  0.5059870000000  0.5339860000000 1.0
C      1  0.5979410000000  0.5544800000000  0.5289930000000 1.0
C      1  0.5932510000000  0.5380400000000  0.4513530000000 1.0
C      1  0.5144560000000  0.4852020000000  0.3738670000000 1.0
C      1  0.5059510000000  0.4574460000000  0.6402790000000 1.0
C      1  0.5105270000000  0.4999650000000  0.4450630000000 1.0
C      1  0.5057540000000  0.4864560000000  0.5735120000000 1.0
C      1  0.5608610000000  0.5815630000000  0.5092470000000 1.0
C      1  0.5581540000000  0.5719780000000  0.4618440000000 1.0
C      1  0.4983020000000  0.4639790000000  0.6157700000000 1.0
C      1  0.5057590000000  0.4861180000000  0.3988750000000 1.0
C      1  0.5810210000000  0.5749250000000  0.5255330000000 1.0
C      1  0.5766440000000  0.5587170000000  0.4477380000000 1.0
C      1  0.4897660000000  0.4705730000000  0.5900110000000 1.0
C      1  0.4961630000000  0.4867750000000  0.4250860000000 1.0
C      1  0.4485980000000  0.5191690000000  0.5397310000000 1.0
C      1  0.4222800000000  0.5143230000000  0.5321180000000 1.0
C      1  0.4771660000000  0.5535850000000  0.4858090000000 1.0
C      1  0.4191980000000  0.5393810000000  0.4652980000000 1.0
C      1  0.4319190000000  0.5274120000000  0.4870760000000 1.0
C      1  0.4597080000000  0.5333800000000  0.4953050000000 1.0
C      1  0.4854310000000  0.4697900000000  0.5060340000000 1.0
C      1  0.4267640000000  0.4579060000000  0.4919980000000 1.0
C      1  0.5997270000000  0.5206450000000  0.4706130000000 1.0
C      1  0.6028770000000  0.5306360000000  0.5179000000000 1.0
C      1  0.5229710000000  0.4842670000000  0.3492450000000 1.0
C      1  0.5134290000000  0.4509840000000  0.6644030000000 1.0
C      1  0.4647720000000  0.4609080000000  0.5805140000000 1.0
C      1  0.4716680000000  0.4738760000000  0.4315230000000 1.0
C      1  0.5000460000000  0.5653120000000  0.5488060000000 1.0
C      1  0.4922900000000  0.6035820000000  0.5214880000000 1.0
C      1  0.4714970000000  0.4071100000000  0.4751940000000 1.0
C      1  0.4665830000000  0.4045390000000  0.5232160000000 1.0
C      1  0.4696310000000  0.3639370000000  0.4970210000000 1.0
C      1  0.5707760000000  0.4974430000000  0.5022650000000 1.0
C      1  0.5258830000000  0.5520870000000  0.4924400000000 1.0
C      1  0.5732880000000  0.4702310000000  0.5010000000000 1.0
C      1  0.4699970000000  0.3379120000000  0.4956720000000 1.0
C      1  0.5466380000000  0.5709200000000  0.4874700000000 1.0
C      1  0.5456710000000  0.5095020000000  0.5085420000000 1.0
C      1  0.4692390000000  0.3918230000000  0.4984740000000 1.0
C      1  0.4974380000000  0.5768040000000  0.5240860000000 1.0
C      1  0.4504720000000  0.5697340000000  0.4450480000000 1.0
C      1  0.5930810000000  0.5143620000000  0.4971850000000 1.0
C      1  0.5002120000000  0.5607670000000  0.5007560000000 1.0
END
