TITL C-2323487-9546-144 -7.87989355677912e-07 125000 -415.942885872525 0 0 60 (Ih) n - 1
REM
REM in /home/bkarasulu/CARBON/AIRSS/Generating-Clusters/LCBOP/Higher-Symm/Only-C60/SD-CG/FIRE-HFTN
REM
REM
REM
REM
REM
REM ./C.cell (50c204cfd26239f34c78669fe23a5462)
REM
REM compiler GCC version 9.2.1 20190827 (Red Hat 9.2.1-1)
REM options -cpp -mtune=generic -march=x86-64 -g -O0 -fpre-include=/usr/include/finclude/math-vector-fortran.h
REM seed -257958309 -1972320559 521829264 -1381429386 -1466927014 424945107 -1154211985 1345213539 541830587 -795425666 -1416242188 1421934441 829638453 1116739518 -1649257268 2091301664 1105767842 247421908 -1651405048 -575984345 484893970 -1467278842 1979775451 250725801 1557712729 940281374 680585021 105315845 987141031 -381072671 204489874 -1362364709 -474232897
REM
CELL 1.54180   50.00000   50.00000   50.00000   90.00000   90.00000   90.00000
LATT -1
SFAC C  
C      1  0.4854200000000  0.5464030000000  0.5522850000000 1.0
C      1  0.5464040000000  0.5522850000000  0.4854210000000 1.0
C      1  0.5522840000000  0.4854200000000  0.5464040000000 1.0
C      1  0.5145930000000  0.4535810000000  0.5522680000000 1.0
C      1  0.4854190000000  0.4535930000000  0.4477190000000 1.0
C      1  0.5145680000000  0.5464230000000  0.4477280000000 1.0
C      1  0.4535920000000  0.4477190000000  0.4854180000000 1.0
C      1  0.5464220000000  0.4477280000000  0.5145670000000 1.0
C      1  0.4535820000000  0.5522680000000  0.5145940000000 1.0
C      1  0.4477280000000  0.5145670000000  0.5464220000000 1.0
C      1  0.5522690000000  0.5145940000000  0.4535820000000 1.0
C      1  0.4477190000000  0.4854190000000  0.4535920000000 1.0
C      1  0.5286960000000  0.4764030000000  0.5609860000000 1.0
C      1  0.5609870000000  0.5286960000000  0.4764050000000 1.0
C      1  0.4764040000000  0.5609860000000  0.5286970000000 1.0
C      1  0.4713200000000  0.5235790000000  0.5610010000000 1.0
C      1  0.4713100000000  0.4764130000000  0.4390070000000 1.0
C      1  0.5286740000000  0.5236040000000  0.4390060000000 1.0
C      1  0.4390070000000  0.4713110000000  0.4764120000000 1.0
C      1  0.4390060000000  0.5286730000000  0.5236040000000 1.0
C      1  0.5610000000000  0.4713200000000  0.5235800000000 1.0
C      1  0.5236040000000  0.4390050000000  0.5286730000000 1.0
C      1  0.5235800000000  0.5610010000000  0.4713210000000 1.0
C      1  0.4764130000000  0.4390080000000  0.4713090000000 1.0
C      1  0.5235870000000  0.5609920000000  0.5286910000000 1.0
C      1  0.5609930000000  0.5286890000000  0.5235880000000 1.0
C      1  0.5286900000000  0.5235870000000  0.5609930000000 1.0
C      1  0.4764200000000  0.4389990000000  0.5286790000000 1.0
C      1  0.5235960000000  0.4390140000000  0.4713030000000 1.0
C      1  0.4763960000000  0.5609950000000  0.4713270000000 1.0
C      1  0.4390130000000  0.4713040000000  0.5235950000000 1.0
C      1  0.5609940000000  0.4713270000000  0.4763960000000 1.0
C      1  0.4390000000000  0.5286800000000  0.4764200000000 1.0
C      1  0.4713260000000  0.4763960000000  0.5609940000000 1.0
C      1  0.5286800000000  0.4764210000000  0.4389990000000 1.0
C      1  0.4713040000000  0.5235970000000  0.4390140000000 1.0
C      1  0.5522810000000  0.5145810000000  0.5464080000000 1.0
C      1  0.5464080000000  0.5522810000000  0.5145820000000 1.0
C      1  0.5145810000000  0.5464070000000  0.5522810000000 1.0
C      1  0.4477310000000  0.4854060000000  0.5464180000000 1.0
C      1  0.4477160000000  0.5145800000000  0.4535960000000 1.0
C      1  0.5522720000000  0.4854330000000  0.4535780000000 1.0
C      1  0.4535960000000  0.4477150000000  0.5145790000000 1.0
C      1  0.4535780000000  0.5522720000000  0.4854330000000 1.0
C      1  0.5464180000000  0.4477320000000  0.4854060000000 1.0
C      1  0.4854320000000  0.4535770000000  0.5522720000000 1.0
C      1  0.4854070000000  0.5464190000000  0.4477320000000 1.0
C      1  0.5145800000000  0.4535970000000  0.4477150000000 1.0
C      1  0.4999890000000  0.5700070000000  0.4859060000000 1.0
C      1  0.5000070000000  0.4299970000000  0.4858850000000 1.0
C      1  0.4299930000000  0.5140950000000  0.5000110000000 1.0
C      1  0.4299970000000  0.4858860000000  0.5000070000000 1.0
C      1  0.5700070000000  0.4859050000000  0.4999890000000 1.0
C      1  0.4859050000000  0.4999880000000  0.5700060000000 1.0
C      1  0.5000110000000  0.4299930000000  0.5140940000000 1.0
C      1  0.4999930000000  0.5700030000000  0.5141150000000 1.0
C      1  0.5700030000000  0.5141140000000  0.4999930000000 1.0
C      1  0.5141130000000  0.4999920000000  0.5700030000000 1.0
C      1  0.4858870000000  0.5000080000000  0.4299970000000 1.0
C      1  0.5140950000000  0.5000120000000  0.4299940000000 1.0
END
