TITL C-2323478-8180-152 5.1882567401882e-07 125000 -345.201514325797 0 0 60 (C5) n - 1
REM
REM in /home/bkarasulu/CARBON/AIRSS/Generating-Clusters/LCBOP/Higher-Symm/Only-C60/SD-CG/FIRE-HFTN
REM
REM
REM
REM
REM
REM ./C.cell (50c204cfd26239f34c78669fe23a5462)
REM
REM compiler GCC version 9.2.1 20190827 (Red Hat 9.2.1-1)
REM options -cpp -mtune=generic -march=x86-64 -g -O0 -fpre-include=/usr/include/finclude/math-vector-fortran.h
REM seed 2078070299 1021328284 -344659176 1820762223 1535427090 156104178 1654705370 -1229515407 -407359474 -532022046 706700817 -1145947009 -165591526 493504045 -1631387447 -1375639052 545187848 -2137181876 413740678 549173004 304402034 1477712386 -845622849 -2008059112 -286429514 2050729532 -231814649 -60410099 784495457 -1891283071 -184476803 -2294445 -1893600955
REM
CELL 1.54180   50.00000   50.00000   50.00000   90.00000   90.00000   90.00000
LATT -1
SFAC C  
C      1  0.4513560000000  0.5171070000000  0.4533480000000 1.0
C      1  0.4513550000000  0.4609240000000  0.4693070000000 1.0
C      1  0.4513450000000  0.4587400000000  0.5276710000000 1.0
C      1  0.4513400000000  0.5135740000000  0.5477830000000 1.0
C      1  0.4513460000000  0.5496460000000  0.5018490000000 1.0
C      1  0.4451530000000  0.4886270000000  0.4584490000000 1.0
C      1  0.4451480000000  0.5359930000000  0.4763390000000 1.0
C      1  0.4451390000000  0.5336150000000  0.5269150000000 1.0
C      1  0.4451390000000  0.4847800000000  0.5402820000000 1.0
C      1  0.4451480000000  0.4569750000000  0.4979680000000 1.0
C      1  0.4917730000000  0.4591080000000  0.5007620000000 1.0
C      1  0.4917650000000  0.4880900000000  0.5391250000000 1.0
C      1  0.4917660000000  0.5335310000000  0.5234160000000 1.0
C      1  0.4917750000000  0.5326330000000  0.4753450000000 1.0
C      1  0.4917790000000  0.4866370000000  0.4613440000000 1.0
C      1  0.5029960000000  0.5382080000000  0.4991380000000 1.0
C      1  0.5029910000000  0.5126270000000  0.5360720000000 1.0
C      1  0.5029950000000  0.4695960000000  0.5231560000000 1.0
C      1  0.5030030000000  0.4685820000000  0.4782400000000 1.0
C      1  0.5030040000000  0.5109870000000  0.4633960000000 1.0
C      1  0.4989260000000  0.5136890000000  0.4200690000000 1.0
C      1  0.4989220000000  0.4282110000000  0.4622810000000 1.0
C      1  0.4989050000000  0.4419440000000  0.5566190000000 1.0
C      1  0.4988980000000  0.5359080000000  0.5727110000000 1.0
C      1  0.4989110000000  0.5802490000000  0.4883180000000 1.0
C      1  0.5031500000000  0.4836560000000  0.4179620000000 1.0
C      1  0.5031390000000  0.5729730000000  0.4591050000000 1.0
C      1  0.5031220000000  0.5614440000000  0.5567650000000 1.0
C      1  0.5031230000000  0.4650010000000  0.5759780000000 1.0
C      1  0.5031400000000  0.4169260000000  0.4901930000000 1.0
C      1  0.5323970000000  0.4216530000000  0.4978890000000 1.0
C      1  0.5323810000000  0.4737780000000  0.5738660000000 1.0
C      1  0.5323820000000  0.5621430000000  0.5477700000000 1.0
C      1  0.5323980000000  0.5646300000000  0.4556660000000 1.0
C      1  0.5324070000000  0.4778030000000  0.4248380000000 1.0
C      1  0.5195410000000  0.5616160000000  0.4997090000000 1.0
C      1  0.5195320000000  0.5193210000000  0.5585120000000 1.0
C      1  0.5195390000000  0.4503260000000  0.5364590000000 1.0
C      1  0.5195510000000  0.4499790000000  0.4640250000000 1.0
C      1  0.5195530000000  0.5187610000000  0.4413120000000 1.0
C      1  0.5491440000000  0.4842940000000  0.4512160000000 1.0
C      1  0.5491370000000  0.4487430000000  0.4998700000000 1.0
C      1  0.5491270000000  0.4840310000000  0.5487160000000 1.0
C      1  0.5491280000000  0.5413900000000  0.5302500000000 1.0
C      1  0.5491380000000  0.5415520000000  0.4699910000000 1.0
C      1  0.5464660000000  0.5152880000000  0.4539110000000 1.0
C      1  0.5464560000000  0.5485660000000  0.5003020000000 1.0
C      1  0.5464500000000  0.5147300000000  0.5462860000000 1.0
C      1  0.5464550000000  0.4605400000000  0.5283160000000 1.0
C      1  0.5464650000000  0.4608850000000  0.4712250000000 1.0
C      1  0.4853970000000  0.5506410000000  0.4526520000000 1.0
C      1  0.4854030000000  0.4706210000000  0.4372040000000 1.0
C      1  0.4853920000000  0.4312010000000  0.5085340000000 1.0
C      1  0.4853800000000  0.4868580000000  0.5680670000000 1.0
C      1  0.4853830000000  0.5606760000000  0.5335300000000 1.0
C      1  0.4737790000000  0.4459510000000  0.4518590000000 1.0
C      1  0.4737790000000  0.5290770000000  0.4337170000000 1.0
C      1  0.4737650000000  0.5720190000000  0.5071700000000 1.0
C      1  0.4737560000000  0.5154310000000  0.5707070000000 1.0
C      1  0.4737650000000  0.4375170000000  0.5365240000000 1.0
END
