TITL C-2323490-8774-131 3.96809737144355e-06 125000 -371.995912662373 0 0 60 (Td) n - 1
REM
REM in /home/bkarasulu/CARBON/AIRSS/Generating-Clusters/LCBOP/Higher-Symm/Only-C60/SD-CG/FIRE-HFTN
REM
REM
REM
REM
REM
REM ./C.cell (50c204cfd26239f34c78669fe23a5462)
REM
REM compiler GCC version 9.2.1 20190827 (Red Hat 9.2.1-1)
REM options -cpp -mtune=generic -march=x86-64 -g -O0 -fpre-include=/usr/include/finclude/math-vector-fortran.h
REM seed 740271476 -1789813382 -1274537326 -2055867348 -1241334564 883567655 505167610 1721135616 -959372030 -1821444442 104569421 -398522308 2030780562 -1790144327 130018608 1799054429 -246245691 -436225481 1116358774 -1730820068 -1512142867 216945843 1544679834 -874716997 2044823727 1062851372 -1354940579 -1633824877 -183884424 -1037911919 87661635 1842677748 -370035854
REM
CELL 1.54180   50.00000   50.00000   50.00000   90.00000   90.00000   90.00000
LATT -1
SFAC C  
C      1  0.4843810000000  0.4260270000000  0.4641550000000 1.0
C      1  0.4260270000000  0.4641550000000  0.4843810000000 1.0
C      1  0.4641550000000  0.4843810000000  0.4260270000000 1.0
C      1  0.5156190000000  0.5739730000000  0.4641550000000 1.0
C      1  0.4843810000000  0.5739730000000  0.5358450000000 1.0
C      1  0.5156190000000  0.4260270000000  0.5358450000000 1.0
C      1  0.5739730000000  0.5358450000000  0.4843810000000 1.0
C      1  0.4260270000000  0.5358450000000  0.5156190000000 1.0
C      1  0.5739730000000  0.4641550000000  0.5156190000000 1.0
C      1  0.5358450000000  0.5156190000000  0.4260270000000 1.0
C      1  0.4641550000000  0.5156190000000  0.5739730000000 1.0
C      1  0.5358450000000  0.4843810000000  0.5739730000000 1.0
C      1  0.4260270000000  0.4843810000000  0.4641550000000 1.0
C      1  0.4641550000000  0.4260270000000  0.4843810000000 1.0
C      1  0.4843810000000  0.4641550000000  0.4260270000000 1.0
C      1  0.5739730000000  0.5156190000000  0.4641550000000 1.0
C      1  0.5739730000000  0.4843810000000  0.5358450000000 1.0
C      1  0.4260270000000  0.5156190000000  0.5358450000000 1.0
C      1  0.5358450000000  0.5739730000000  0.4843810000000 1.0
C      1  0.5358450000000  0.4260270000000  0.5156190000000 1.0
C      1  0.4641550000000  0.5739730000000  0.5156190000000 1.0
C      1  0.5156190000000  0.5358450000000  0.4260270000000 1.0
C      1  0.5156190000000  0.4641550000000  0.5739730000000 1.0
C      1  0.4843810000000  0.5358450000000  0.5739730000000 1.0
C      1  0.5099100000000  0.4712240000000  0.4165900000000 1.0
C      1  0.4712240000000  0.4165900000000  0.5099100000000 1.0
C      1  0.4165900000000  0.5099100000000  0.4712240000000 1.0
C      1  0.4900900000000  0.5287760000000  0.4165900000000 1.0
C      1  0.5099100000000  0.5287760000000  0.5834100000000 1.0
C      1  0.4900900000000  0.4712240000000  0.5834100000000 1.0
C      1  0.5287760000000  0.5834100000000  0.5099100000000 1.0
C      1  0.4712240000000  0.5834100000000  0.4900900000000 1.0
C      1  0.5287760000000  0.4165900000000  0.4900900000000 1.0
C      1  0.5834100000000  0.4900900000000  0.4712240000000 1.0
C      1  0.4165900000000  0.4900900000000  0.5287760000000 1.0
C      1  0.5834100000000  0.5099100000000  0.5287760000000 1.0
C      1  0.4712240000000  0.5099100000000  0.4165900000000 1.0
C      1  0.4165900000000  0.4712240000000  0.5099100000000 1.0
C      1  0.5099100000000  0.4165900000000  0.4712240000000 1.0
C      1  0.5287760000000  0.4900900000000  0.4165900000000 1.0
C      1  0.5287760000000  0.5099100000000  0.5834100000000 1.0
C      1  0.4712240000000  0.4900900000000  0.5834100000000 1.0
C      1  0.5834100000000  0.5287760000000  0.5099100000000 1.0
C      1  0.5834100000000  0.4712240000000  0.4900900000000 1.0
C      1  0.4165900000000  0.5287760000000  0.4900900000000 1.0
C      1  0.4900900000000  0.5834100000000  0.4712240000000 1.0
C      1  0.4900900000000  0.4165900000000  0.5287760000000 1.0
C      1  0.5099100000000  0.5834100000000  0.5287760000000 1.0
C      1  0.5595590000000  0.4404410000000  0.5189690000000 1.0
C      1  0.4404410000000  0.5189690000000  0.5595590000000 1.0
C      1  0.5189690000000  0.5595590000000  0.4404410000000 1.0
C      1  0.4404410000000  0.5595590000000  0.5189690000000 1.0
C      1  0.5595590000000  0.4810310000000  0.5595590000000 1.0
C      1  0.4404410000000  0.4810310000000  0.4404410000000 1.0
C      1  0.5595590000000  0.5189690000000  0.4404410000000 1.0
C      1  0.4810310000000  0.4404410000000  0.4404410000000 1.0
C      1  0.5189690000000  0.4404410000000  0.5595590000000 1.0
C      1  0.5595590000000  0.5595590000000  0.4810310000000 1.0
C      1  0.4404410000000  0.4404410000000  0.4810310000000 1.0
C      1  0.4810310000000  0.5595590000000  0.5595590000000 1.0
END
