TITL C-2323480-5884-7 25777.0219136259 125000 -339.564909894865 0 0 60 (Cs) n - 1
REM
REM in /home/bkarasulu/CARBON/AIRSS/Generating-Clusters/LCBOP/Higher-Symm/Only-C60/SD-CG/FIRE-HFTN
REM
REM
REM
REM
REM
REM ./C.cell (50c204cfd26239f34c78669fe23a5462)
REM
REM compiler GCC version 9.2.1 20190827 (Red Hat 9.2.1-1)
REM options -cpp -mtune=generic -march=x86-64 -g -O0 -fpre-include=/usr/include/finclude/math-vector-fortran.h
REM seed -800194322 996608448 587437179 1459942841 1005265704 -1897362806 1432939009 614225690 -694180534 153311114 16739940 -1978632062 -346465532 1858161504 851195051 551878002 -1917296910 -1156094270 1224229796 -600542032 1242498462 409760200 611396539 -1078620047 1360291541 -1096898724 -180505701 -41420291 1865605722 -1176601140 -1574768529 83190697 473981273
REM
CELL 1.54180   50.00000   50.00000   50.00000   90.00000   90.00000   90.00000
LATT -1
SFAC C  
C      1  0.5686610000000  0.5262090000000  0.5296350000000 1.0
C      1  0.4257010000000  0.4736600000000  0.5197070000000 1.0
C      1  0.4256740000000  0.5248350000000  0.5196530000000 1.0
C      1  0.5686900000000  0.4724610000000  0.5296910000000 1.0
C      1  0.4699340000000  0.5320010000000  0.5592110000000 1.0
C      1  0.5208910000000  0.4764120000000  0.5395750000000 1.0
C      1  0.5208660000000  0.5222270000000  0.5395260000000 1.0
C      1  0.4699690000000  0.4666250000000  0.5592800000000 1.0
C      1  0.4482460000000  0.4857610000000  0.5605240000000 1.0
C      1  0.5310230000000  0.5131530000000  0.5648200000000 1.0
C      1  0.5310380000000  0.4855510000000  0.5648490000000 1.0
C      1  0.4482310000000  0.5128450000000  0.5604950000000 1.0
C      1  0.5397770000000  0.4760780000000  0.4792820000000 1.0
C      1  0.4896030000000  0.5209630000000  0.4911890000000 1.0
C      1  0.4896280000000  0.4775360000000  0.4912340000000 1.0
C      1  0.5397520000000  0.5224540000000  0.4792320000000 1.0
C      1  0.5233030000000  0.5476590000000  0.5273100000000 1.0
C      1  0.4721410000000  0.4520180000000  0.5337290000000 1.0
C      1  0.4720900000000  0.5465560000000  0.5336290000000 1.0
C      1  0.5233540000000  0.4509570000000  0.5274120000000 1.0
C      1  0.4710190000000  0.4570250000000  0.4433250000000 1.0
C      1  0.5283200000000  0.5347160000000  0.4212970000000 1.0
C      1  0.5283580000000  0.4636810000000  0.4213730000000 1.0
C      1  0.4709730000000  0.5413560000000  0.4432350000000 1.0
C      1  0.5175220000000  0.5535850000000  0.4411750000000 1.0
C      1  0.4929630000000  0.4419970000000  0.4579750000000 1.0
C      1  0.4929020000000  0.5564390000000  0.4578540000000 1.0
C      1  0.5175810000000  0.4448420000000  0.4412900000000 1.0
C      1  0.5545090000000  0.4741500000000  0.4211310000000 1.0
C      1  0.4465580000000  0.5261160000000  0.4506140000000 1.0
C      1  0.4465870000000  0.4722550000000  0.4506710000000 1.0
C      1  0.5544820000000  0.5242740000000  0.4210780000000 1.0
C      1  0.4649240000000  0.4721190000000  0.4936900000000 1.0
C      1  0.5517980000000  0.5441970000000  0.4893110000000 1.0
C      1  0.5518470000000  0.4543690000000  0.4894070000000 1.0
C      1  0.4648960000000  0.5263630000000  0.4936320000000 1.0
C      1  0.5512360000000  0.4522350000000  0.5175280000000 1.0
C      1  0.4508270000000  0.5369930000000  0.5153620000000 1.0
C      1  0.4508680000000  0.4615200000000  0.5154420000000 1.0
C      1  0.5511860000000  0.5463900000000  0.5174280000000 1.0
C      1  0.5081230000000  0.5176590000000  0.4090140000000 1.0
C      1  0.4837900000000  0.4756990000000  0.4243590000000 1.0
C      1  0.4837650000000  0.5226560000000  0.4243090000000 1.0
C      1  0.5081430000000  0.4806900000000  0.4090530000000 1.0
C      1  0.4167460000000  0.4992430000000  0.5196220000000 1.0
C      1  0.5739360000000  0.4993390000000  0.5313480000000 1.0
C      1  0.4970270000000  0.4410740000000  0.5176520000000 1.0
C      1  0.4969640000000  0.5574930000000  0.5175290000000 1.0
C      1  0.4944440000000  0.5640230000000  0.4872280000000 1.0
C      1  0.4945130000000  0.4344820000000  0.4873650000000 1.0
C      1  0.5644060000000  0.4992170000000  0.4210370000000 1.0
C      1  0.4394900000000  0.4991830000000  0.4519010000000 1.0
C      1  0.4873210000000  0.4744490000000  0.5805700000000 1.0
C      1  0.4872950000000  0.5242410000000  0.5805170000000 1.0
C      1  0.5213510000000  0.4992630000000  0.4851290000000 1.0
C      1  0.5066180000000  0.4992250000000  0.4576120000000 1.0
C      1  0.4847420000000  0.4991960000000  0.4406710000000 1.0
C      1  0.4916000000000  0.4993620000000  0.5944500000000 1.0
C      1  0.5183100000000  0.4992990000000  0.5215540000000 1.0
C      1  0.4990340000000  0.4993940000000  0.6208040000000 1.0
END
