TITL C-2323489-8765-98 9.52215306316979e-06 125000 -376.538694110589 0 0 60 (D2h) n - 1
REM
REM in /home/bkarasulu/CARBON/AIRSS/Generating-Clusters/LCBOP/Higher-Symm/Only-C60/SD-CG/FIRE-HFTN
REM
REM
REM
REM
REM
REM ./C.cell (50c204cfd26239f34c78669fe23a5462)
REM
REM compiler GCC version 9.2.1 20190827 (Red Hat 9.2.1-1)
REM options -cpp -mtune=generic -march=x86-64 -g -O0 -fpre-include=/usr/include/finclude/math-vector-fortran.h
REM seed -1288666277 1069536432 764819073 -1826257084 -1662223744 629104766 225367029 1792093551 856257865 -1437528345 -1543893754 1808803489 995926924 -843093254 -1505896917 -531659286 1513684211 110086070 -1543835226 -1144032510 1716654409 -1959100487 -1660811433 206131351 -1979984052 598539764 -1758675364 1010491540 2005040353 -1149107729 1796245600 -899166184 -1586987030
REM
CELL 1.54180   50.00000   50.00000   50.00000   90.00000   90.00000   90.00000
LATT -1
SFAC C  
C      1  0.3975680000000  0.5364030000000  0.5133610000000 1.0
C      1  0.6024190000000  0.4635930000000  0.5134480000000 1.0
C      1  0.3975810000000  0.5364070000000  0.4865520000000 1.0
C      1  0.6024320000000  0.4635970000000  0.4866390000000 1.0
C      1  0.6024210000000  0.5363990000000  0.5134590000000 1.0
C      1  0.3975660000000  0.4635970000000  0.5133500000000 1.0
C      1  0.6024340000000  0.5364030000000  0.4866500000000 1.0
C      1  0.3975790000000  0.4636010000000  0.4865410000000 1.0
C      1  0.4635280000000  0.4460310000000  0.5142840000000 1.0
C      1  0.5364590000000  0.5539650000000  0.5143340000000 1.0
C      1  0.4635410000000  0.4460350000000  0.4856660000000 1.0
C      1  0.5364720000000  0.5539690000000  0.4857160000000 1.0
C      1  0.5364560000000  0.4460290000000  0.5143180000000 1.0
C      1  0.4635300000000  0.5539660000000  0.5142990000000 1.0
C      1  0.5364700000000  0.4460340000000  0.4857010000000 1.0
C      1  0.4635440000000  0.5539710000000  0.4856820000000 1.0
C      1  0.5854300000000  0.4724940000000  0.5321440000000 1.0
C      1  0.4145390000000  0.5274970000000  0.5320710000000 1.0
C      1  0.5854610000000  0.4725030000000  0.4679290000000 1.0
C      1  0.4145700000000  0.5275060000000  0.4678560000000 1.0
C      1  0.4145380000000  0.4724970000000  0.5320630000000 1.0
C      1  0.5854310000000  0.5274930000000  0.5321520000000 1.0
C      1  0.4145690000000  0.4725070000000  0.4678480000000 1.0
C      1  0.5854620000000  0.5275030000000  0.4679370000000 1.0
C      1  0.4749790000000  0.4232120000000  0.5268110000000 1.0
C      1  0.5249960000000  0.5767800000000  0.5268580000000 1.0
C      1  0.4750040000000  0.4232200000000  0.4731420000000 1.0
C      1  0.5250210000000  0.5767880000000  0.4731890000000 1.0
C      1  0.5249920000000  0.4232110000000  0.5268350000000 1.0
C      1  0.4749820000000  0.5767810000000  0.5268340000000 1.0
C      1  0.5250180000000  0.4232190000000  0.4731660000000 1.0
C      1  0.4750080000000  0.5767890000000  0.4731650000000 1.0
C      1  0.4627340000000  0.4696450000000  0.5305420000000 1.0
C      1  0.5372370000000  0.5303460000000  0.5305870000000 1.0
C      1  0.4627630000000  0.4696540000000  0.4694130000000 1.0
C      1  0.5372660000000  0.5303550000000  0.4694580000000 1.0
C      1  0.5372360000000  0.4696430000000  0.5305780000000 1.0
C      1  0.4627350000000  0.5303480000000  0.5305510000000 1.0
C      1  0.5372650000000  0.4696520000000  0.4694490000000 1.0
C      1  0.4627640000000  0.5303570000000  0.4694220000000 1.0
C      1  0.4867030000000  0.5248380000000  0.4558360000000 1.0
C      1  0.5133390000000  0.4751750000000  0.4558410000000 1.0
C      1  0.4866610000000  0.5248250000000  0.5441590000000 1.0
C      1  0.5132970000000  0.4751620000000  0.5441640000000 1.0
C      1  0.5133400000000  0.5248380000000  0.4558490000000 1.0
C      1  0.4867020000000  0.4751750000000  0.4558290000000 1.0
C      1  0.5132980000000  0.5248250000000  0.5441710000000 1.0
C      1  0.4866600000000  0.4751620000000  0.5441510000000 1.0
C      1  0.4394780000000  0.4856530000000  0.5336170000000 1.0
C      1  0.5604900000000  0.5143370000000  0.5336790000000 1.0
C      1  0.4395100000000  0.4856630000000  0.4663210000000 1.0
C      1  0.5605220000000  0.5143470000000  0.4663830000000 1.0
C      1  0.5604890000000  0.4856510000000  0.5336750000000 1.0
C      1  0.4394790000000  0.5143390000000  0.5336210000000 1.0
C      1  0.5605210000000  0.4856610000000  0.4663790000000 1.0
C      1  0.4395110000000  0.5143490000000  0.4663250000000 1.0
C      1  0.5000170000000  0.5853630000000  0.4682860000000 1.0
C      1  0.5000130000000  0.4146460000000  0.4682610000000 1.0
C      1  0.4999870000000  0.5853540000000  0.5317390000000 1.0
C      1  0.4999830000000  0.4146370000000  0.5317140000000 1.0
END
