TITL C-2323488-8613-94 2.61812236331538e-05 125000 -359.467851780424 0 0 60 (C1) n - 1
REM
REM in /home/bkarasulu/CARBON/AIRSS/Generating-Clusters/LCBOP/Higher-Symm/Only-C60/SD-CG/FIRE-HFTN
REM
REM
REM
REM
REM
REM ./C.cell (50c204cfd26239f34c78669fe23a5462)
REM
REM compiler GCC version 9.2.1 20190827 (Red Hat 9.2.1-1)
REM options -cpp -mtune=generic -march=x86-64 -g -O0 -fpre-include=/usr/include/finclude/math-vector-fortran.h
REM seed -838078429 -1099256397 1780554215 -668220598 1745464178 639627886 177056856 -1366167431 -2011464162 1283722998 -921187767 -2110264110 1938674480 1062415674 -1312486888 308377996 -1927011621 -1770362879 -1434656933 -1181894909 -576230718 1085745404 1896030803 -1049653958 -1059851644 -977004229 514833600 -1687375455 -417413350 -1771373138 662936952 1265956107 926057257
REM
CELL 1.54180   50.00000   50.00000   50.00000   90.00000   90.00000   90.00000
LATT -1
SFAC C  
C      1  0.4817790000000  0.5716930000000  0.4814290000000 1.0
C      1  0.5652090000000  0.4829970000000  0.4889740000000 1.0
C      1  0.4806840000000  0.4674350000000  0.5784360000000 1.0
C      1  0.5028550000000  0.5662850000000  0.5302810000000 1.0
C      1  0.4912410000000  0.4316340000000  0.4634750000000 1.0
C      1  0.4973440000000  0.4315420000000  0.5306900000000 1.0
C      1  0.4394990000000  0.4831180000000  0.5168930000000 1.0
C      1  0.4415500000000  0.5271030000000  0.4774230000000 1.0
C      1  0.5488250000000  0.5310410000000  0.5180240000000 1.0
C      1  0.5175530000000  0.4512490000000  0.4138450000000 1.0
C      1  0.5325540000000  0.5090520000000  0.5718020000000 1.0
C      1  0.5036480000000  0.5156490000000  0.4304300000000 1.0
C      1  0.4750450000000  0.4476830000000  0.4804500000000 1.0
C      1  0.5585380000000  0.5426490000000  0.4940900000000 1.0
C      1  0.4780210000000  0.4922870000000  0.5647320000000 1.0
C      1  0.5173610000000  0.4420620000000  0.5135080000000 1.0
C      1  0.5052400000000  0.5869860000000  0.4762620000000 1.0
C      1  0.4780570000000  0.5771940000000  0.5389750000000 1.0
C      1  0.4282210000000  0.5395270000000  0.4991550000000 1.0
C      1  0.4242950000000  0.4725720000000  0.4953990000000 1.0
C      1  0.5782780000000  0.4788720000000  0.5135710000000 1.0
C      1  0.5366660000000  0.4662600000000  0.4283840000000 1.0
C      1  0.5302410000000  0.4867610000000  0.5537450000000 1.0
C      1  0.4858630000000  0.4970720000000  0.4423250000000 1.0
C      1  0.5272940000000  0.4236790000000  0.4939240000000 1.0
C      1  0.4222200000000  0.5290830000000  0.5233350000000 1.0
C      1  0.5437020000000  0.4915930000000  0.4177290000000 1.0
C      1  0.4605710000000  0.4328340000000  0.5003220000000 1.0
C      1  0.4591460000000  0.5870370000000  0.5220740000000 1.0
C      1  0.5233380000000  0.5938570000000  0.4953920000000 1.0
C      1  0.5712850000000  0.5300850000000  0.4738980000000 1.0
C      1  0.5812330000000  0.4967480000000  0.5336020000000 1.0
C      1  0.4186880000000  0.4837500000000  0.4714380000000 1.0
C      1  0.4856820000000  0.5156240000000  0.5790310000000 1.0
C      1  0.4773860000000  0.4754270000000  0.4263270000000 1.0
C      1  0.5267200000000  0.4614340000000  0.5662700000000 1.0
C      1  0.5224900000000  0.5849300000000  0.5211100000000 1.0
C      1  0.4271670000000  0.5038930000000  0.5317880000000 1.0
C      1  0.4909770000000  0.4562140000000  0.4131360000000 1.0
C      1  0.4605580000000  0.5852440000000  0.4949380000000 1.0
C      1  0.4716940000000  0.4257790000000  0.5240850000000 1.0
C      1  0.5140400000000  0.4187710000000  0.4706930000000 1.0
C      1  0.5754090000000  0.5034780000000  0.4721310000000 1.0
C      1  0.5683720000000  0.5204410000000  0.5355420000000 1.0
C      1  0.4264670000000  0.5081380000000  0.4626880000000 1.0
C      1  0.5040800000000  0.4535810000000  0.5791320000000 1.0
C      1  0.5281930000000  0.5136740000000  0.4194870000000 1.0
C      1  0.5116880000000  0.5225450000000  0.5827920000000 1.0
C      1  0.4847350000000  0.4753540000000  0.4901760000000 1.0
C      1  0.4700070000000  0.5235230000000  0.4793340000000 1.0
C      1  0.4812070000000  0.4985160000000  0.4703350000000 1.0
C      1  0.5154580000000  0.4721110000000  0.5034260000000 1.0
C      1  0.5016550000000  0.5418640000000  0.5143920000000 1.0
C      1  0.4858110000000  0.5442530000000  0.4903040000000 1.0
C      1  0.5215230000000  0.5220070000000  0.5190690000000 1.0
C      1  0.5388450000000  0.4738520000000  0.4829120000000 1.0
C      1  0.4679390000000  0.4827180000000  0.5157600000000 1.0
C      1  0.5147810000000  0.4934620000000  0.5278580000000 1.0
C      1  0.5363950000000  0.4643070000000  0.4564400000000 1.0
C      1  0.4846800000000  0.4914700000000  0.5368310000000 1.0
END
