TITL C-2323487-9546-591 0.320564074385734 125000 -356.573449533323 0 0 60 (C2) n - 1
REM
REM in /home/bkarasulu/CARBON/AIRSS/Generating-Clusters/LCBOP/Higher-Symm/Only-C60/SD-CG/FIRE-HFTN
REM
REM
REM
REM
REM
REM ./C.cell (50c204cfd26239f34c78669fe23a5462)
REM
REM compiler GCC version 9.2.1 20190827 (Red Hat 9.2.1-1)
REM options -cpp -mtune=generic -march=x86-64 -g -O0 -fpre-include=/usr/include/finclude/math-vector-fortran.h
REM seed -475839151 378687153 107133477 -1186123170 -187008349 1524575172 -1008848977 200987438 623701911 558585068 -216068619 1013310525 -5490170 1597917361 -1086293444 -923401855 921685915 -210708453 -1810055271 -1238213532 1799814869 996150553 660069811 1867194033 -772436400 -1077375882 1942304237 -1891031655 -478248777 -2027050587 -1780978363 1022065572 793071651
REM
CELL 1.54180   50.00000   50.00000   50.00000   90.00000   90.00000   90.00000
LATT -1
SFAC C  
C      1  0.4966570000000  0.5468090000000  0.4290200000000 1.0
C      1  0.4966350000000  0.4531900000000  0.5709780000000 1.0
C      1  0.5004210000000  0.4264620000000  0.4789210000000 1.0
C      1  0.5003980000000  0.5735380000000  0.5210790000000 1.0
C      1  0.4448940000000  0.4790810000000  0.5306590000000 1.0
C      1  0.4449040000000  0.5209080000000  0.4693170000000 1.0
C      1  0.4609680000000  0.5434750000000  0.5527890000000 1.0
C      1  0.4609990000000  0.4565170000000  0.4471940000000 1.0
C      1  0.5132280000000  0.4779190000000  0.4979500000000 1.0
C      1  0.5132230000000  0.5220830000000  0.5020550000000 1.0
C      1  0.5367260000000  0.4433540000000  0.5162580000000 1.0
C      1  0.5367230000000  0.5566530000000  0.4837580000000 1.0
C      1  0.5231510000000  0.5675630000000  0.3886530000000 1.0
C      1  0.5231150000000  0.4324410000000  0.6113570000000 1.0
C      1  0.4345160000000  0.5028470000000  0.5423080000000 1.0
C      1  0.4345350000000  0.4971410000000  0.4576630000000 1.0
C      1  0.5774940000000  0.5196450000000  0.3960030000000 1.0
C      1  0.5774530000000  0.4803690000000  0.6040310000000 1.0
C      1  0.4527710000000  0.4451680000000  0.4730680000000 1.0
C      1  0.4527490000000  0.5548230000000  0.5269110000000 1.0
C      1  0.5531550000000  0.5083550000000  0.4416490000000 1.0
C      1  0.5531310000000  0.4916550000000  0.5583740000000 1.0
C      1  0.4867560000000  0.5355140000000  0.4508430000000 1.0
C      1  0.4867410000000  0.4644830000000  0.5491510000000 1.0
C      1  0.4854740000000  0.4466680000000  0.4370560000000 1.0
C      1  0.4854370000000  0.5533290000000  0.5629370000000 1.0
C      1  0.5072060000000  0.5609200000000  0.5469920000000 1.0
C      1  0.5072380000000  0.4390810000000  0.4530110000000 1.0
C      1  0.4308960000000  0.4580020000000  0.4870990000000 1.0
C      1  0.4308830000000  0.5419850000000  0.5128700000000 1.0
C      1  0.4184660000000  0.4797830000000  0.4733740000000 1.0
C      1  0.4184510000000  0.5202020000000  0.5265900000000 1.0
C      1  0.4304250000000  0.4605830000000  0.5151450000000 1.0
C      1  0.4304240000000  0.5394040000000  0.4848250000000 1.0
C      1  0.5235510000000  0.5681620000000  0.5062440000000 1.0
C      1  0.5235660000000  0.4318420000000  0.4937660000000 1.0
C      1  0.5094230000000  0.4425620000000  0.5916170000000 1.0
C      1  0.5094520000000  0.5574400000000  0.4083870000000 1.0
C      1  0.5531420000000  0.5706100000000  0.4671400000000 1.0
C      1  0.5531410000000  0.4294000000000  0.5328840000000 1.0
C      1  0.5289270000000  0.5450110000000  0.5395430000000 1.0
C      1  0.5289520000000  0.4549950000000  0.4604700000000 1.0
C      1  0.5373770000000  0.5058880000000  0.4644640000000 1.0
C      1  0.5373630000000  0.4941190000000  0.5355520000000 1.0
C      1  0.4502950000000  0.5182900000000  0.5602360000000 1.0
C      1  0.4503250000000  0.4817000000000  0.4397430000000 1.0
C      1  0.5267390000000  0.4801350000000  0.4726370000000 1.0
C      1  0.5267240000000  0.5198700000000  0.5273750000000 1.0
C      1  0.4866200000000  0.5135010000000  0.4950770000000 1.0
C      1  0.4866200000000  0.4864970000000  0.5049170000000 1.0
C      1  0.4726380000000  0.4280310000000  0.4847450000000 1.0
C      1  0.4726180000000  0.5719640000000  0.5152430000000 1.0
C      1  0.5659720000000  0.4867780000000  0.5810180000000 1.0
C      1  0.5660050000000  0.5132340000000  0.4190110000000 1.0
C      1  0.5882170000000  0.5264990000000  0.3732500000000 1.0
C      1  0.5881670000000  0.4735180000000  0.6267880000000 1.0
C      1  0.5307490000000  0.5287580000000  0.4805620000000 1.0
C      1  0.5307460000000  0.4712480000000  0.5194510000000 1.0
C      1  0.4732200000000  0.5231720000000  0.4719920000000 1.0
C      1  0.4732130000000  0.4768230000000  0.5279960000000 1.0
END
