TITL C-2323483-8886-93 8.99672904886333e-09 125000 -358.406220039408 0 0 60 (C1) n - 1
REM
REM in /home/bkarasulu/CARBON/AIRSS/Generating-Clusters/LCBOP/Higher-Symm/Only-C60/SD-CG/FIRE-HFTN
REM
REM
REM
REM
REM
REM ./C.cell (50c204cfd26239f34c78669fe23a5462)
REM
REM compiler GCC version 9.2.1 20190827 (Red Hat 9.2.1-1)
REM options -cpp -mtune=generic -march=x86-64 -g -O0 -fpre-include=/usr/include/finclude/math-vector-fortran.h
REM seed 202569083 -1554177397 1129084744 1382368386 -1919586169 -816250593 -530207706 1761835950 1388289865 1108253945 1171541771 1055516690 -1939045818 1524126591 1707554657 -1202959410 1221032581 -134354804 2038479839 -1561951857 -1553921072 -1458494777 2106987966 -1432055331 -1144501758 -1874151123 -778896955 -1448417198 -410802300 1590286189 -2133159517 -1318901434 -1043902749
REM
CELL 1.54180   50.00000   50.00000   50.00000   90.00000   90.00000   90.00000
LATT -1
SFAC C  
C      1  0.4742710000000  0.5224140000000  0.5248940000000 1.0
C      1  0.5170520000000  0.4718870000000  0.4768320000000 1.0
C      1  0.5030250000000  0.5639780000000  0.4685910000000 1.0
C      1  0.4954380000000  0.4353970000000  0.5302670000000 1.0
C      1  0.5708700000000  0.5074740000000  0.5396790000000 1.0
C      1  0.4324320000000  0.5008600000000  0.4449400000000 1.0
C      1  0.4312660000000  0.4962870000000  0.5618900000000 1.0
C      1  0.5741760000000  0.5029780000000  0.4664040000000 1.0
C      1  0.5344610000000  0.4989400000000  0.5104450000000 1.0
C      1  0.4534100000000  0.5118470000000  0.4847170000000 1.0
C      1  0.4492990000000  0.5185210000000  0.5636100000000 1.0
C      1  0.5589810000000  0.4806910000000  0.4575100000000 1.0
C      1  0.5385620000000  0.4726630000000  0.5745730000000 1.0
C      1  0.4742950000000  0.4952310000000  0.4241370000000 1.0
C      1  0.4698730000000  0.4934280000000  0.5224670000000 1.0
C      1  0.5019420000000  0.5224360000000  0.4849920000000 1.0
C      1  0.5219080000000  0.5011110000000  0.4246950000000 1.0
C      1  0.4936100000000  0.4905410000000  0.5758320000000 1.0
C      1  0.5215940000000  0.5482250000000  0.4506830000000 1.0
C      1  0.4776620000000  0.4464910000000  0.5508890000000 1.0
C      1  0.5127180000000  0.4810750000000  0.5045330000000 1.0
C      1  0.4758720000000  0.5271850000000  0.4949660000000 1.0
C      1  0.4868370000000  0.4363750000000  0.5020930000000 1.0
C      1  0.5094200000000  0.5673390000000  0.4981670000000 1.0
C      1  0.4905450000000  0.4721840000000  0.5544600000000 1.0
C      1  0.5101810000000  0.5270370000000  0.4339190000000 1.0
C      1  0.4754740000000  0.5621500000000  0.4594160000000 1.0
C      1  0.5243840000000  0.4434920000000  0.5364930000000 1.0
C      1  0.4820830000000  0.4460590000000  0.4468120000000 1.0
C      1  0.5217340000000  0.5429060000000  0.5493080000000 1.0
C      1  0.4627050000000  0.4597280000000  0.4867200000000 1.0
C      1  0.5338190000000  0.5505480000000  0.5064020000000 1.0
C      1  0.5447040000000  0.4872920000000  0.4335320000000 1.0
C      1  0.4737040000000  0.5110580000000  0.5779570000000 1.0
C      1  0.4628250000000  0.5391730000000  0.4474660000000 1.0
C      1  0.5414040000000  0.4659440000000  0.5467020000000 1.0
C      1  0.5092980000000  0.4293400000000  0.4832200000000 1.0
C      1  0.4888220000000  0.5660990000000  0.5213450000000 1.0
C      1  0.4995890000000  0.4853820000000  0.4148500000000 1.0
C      1  0.5192960000000  0.4872490000000  0.5873210000000 1.0
C      1  0.4430950000000  0.5220360000000  0.4605960000000 1.0
C      1  0.5515630000000  0.4886720000000  0.5308260000000 1.0
C      1  0.4331960000000  0.4692690000000  0.5598330000000 1.0
C      1  0.5691970000000  0.5293430000000  0.4624210000000 1.0
C      1  0.4525740000000  0.4819750000000  0.4383110000000 1.0
C      1  0.5683060000000  0.5345350000000  0.5392090000000 1.0
C      1  0.4942230000000  0.4805480000000  0.5268690000000 1.0
C      1  0.4808140000000  0.5234800000000  0.4315620000000 1.0
C      1  0.4558470000000  0.4855250000000  0.4985480000000 1.0
C      1  0.5278390000000  0.5235000000000  0.4972530000000 1.0
C      1  0.4595500000000  0.4602590000000  0.4564810000000 1.0
C      1  0.5448780000000  0.5491930000000  0.5334040000000 1.0
C      1  0.4525550000000  0.5373420000000  0.5408400000000 1.0
C      1  0.5456320000000  0.4616330000000  0.4747890000000 1.0
C      1  0.5496520000000  0.5464980000000  0.4551620000000 1.0
C      1  0.4499510000000  0.4481760000000  0.5560930000000 1.0
C      1  0.4977580000000  0.5402880000000  0.5348760000000 1.0
C      1  0.5039660000000  0.4497840000000  0.4630310000000 1.0
C      1  0.4601350000000  0.5655490000000  0.5316480000000 1.0
C      1  0.5397280000000  0.4333790000000  0.4845140000000 1.0
END
