TITL C-2323483-8886-594 1.28788470148924 125000 -359.279239778633 0 0 60 (C1) n - 1
REM
REM in /home/bkarasulu/CARBON/AIRSS/Generating-Clusters/LCBOP/Higher-Symm/Only-C60/SD-CG/FIRE-HFTN
REM
REM
REM
REM
REM
REM ./C.cell (50c204cfd26239f34c78669fe23a5462)
REM
REM compiler GCC version 9.2.1 20190827 (Red Hat 9.2.1-1)
REM options -cpp -mtune=generic -march=x86-64 -g -O0 -fpre-include=/usr/include/finclude/math-vector-fortran.h
REM seed 398792615 1304443112 1844968131 -114228109 -206218522 -1765399634 -1385682645 1857655729 386348351 -1294078382 1722766358 1170060646 -772417766 383492735 -1040841565 -496111929 1163017838 1545169077 -1193588982 -788823551 1037742079 -1342117651 407430056 -27764817 -1910594437 331577861 -534910 -536452237 125402414 1088296692 1389323735 1413920439 -1129264860
REM
CELL 1.54180   50.00000   50.00000   50.00000   90.00000   90.00000   90.00000
LATT -1
SFAC C  
C      1  0.5556200000000  0.4951140000000  0.5585500000000 1.0
C      1  0.5454910000000  0.4473880000000  0.5634250000000 1.0
C      1  0.4923370000000  0.5167390000000  0.5160990000000 1.0
C      1  0.4615640000000  0.4391420000000  0.4266370000000 1.0
C      1  0.5004670000000  0.5223980000000  0.4877660000000 1.0
C      1  0.4250150000000  0.4967990000000  0.4413080000000 1.0
C      1  0.4769910000000  0.4277520000000  0.5477960000000 1.0
C      1  0.5759100000000  0.5418430000000  0.5216570000000 1.0
C      1  0.5577560000000  0.4682040000000  0.5493910000000 1.0
C      1  0.5076360000000  0.4327580000000  0.4524400000000 1.0
C      1  0.5353200000000  0.4784040000000  0.4443310000000 1.0
C      1  0.5255560000000  0.4301960000000  0.5669370000000 1.0
C      1  0.4195750000000  0.4733130000000  0.4270020000000 1.0
C      1  0.4402340000000  0.4604350000000  0.5639140000000 1.0
C      1  0.5003620000000  0.6320610000000  0.4645060000000 1.0
C      1  0.5190760000000  0.5183520000000  0.4163780000000 1.0
C      1  0.4765040000000  0.4301660000000  0.5194210000000 1.0
C      1  0.4746090000000  0.4764740000000  0.4733440000000 1.0
C      1  0.4372810000000  0.4848500000000  0.5534810000000 1.0
C      1  0.5415120000000  0.5144390000000  0.5431460000000 1.0
C      1  0.3948930000000  0.4693020000000  0.4159200000000 1.0
C      1  0.5009830000000  0.4220600000000  0.5609080000000 1.0
C      1  0.4851370000000  0.4309080000000  0.4357560000000 1.0
C      1  0.5067420000000  0.4206830000000  0.4777810000000 1.0
C      1  0.4571600000000  0.5300080000000  0.4655160000000 1.0
C      1  0.4966710000000  0.5528750000000  0.4492570000000 1.0
C      1  0.5161280000000  0.5088500000000  0.5323940000000 1.0
C      1  0.4552680000000  0.4383960000000  0.5621790000000 1.0
C      1  0.4991740000000  0.6063570000000  0.4581450000000 1.0
C      1  0.4979760000000  0.5804940000000  0.4525570000000 1.0
C      1  0.4673960000000  0.4736710000000  0.4995790000000 1.0
C      1  0.5015360000000  0.6573150000000  0.4708670000000 1.0
C      1  0.5850820000000  0.5121630000000  0.4823120000000 1.0
C      1  0.5674050000000  0.5024790000000  0.5827820000000 1.0
C      1  0.5429780000000  0.4925440000000  0.4678010000000 1.0
C      1  0.4495150000000  0.5035610000000  0.5368670000000 1.0
C      1  0.5375240000000  0.5629330000000  0.5431090000000 1.0
C      1  0.4842170000000  0.5363750000000  0.4689890000000 1.0
C      1  0.4371420000000  0.5162870000000  0.4546710000000 1.0
C      1  0.4697460000000  0.4953200000000  0.5175930000000 1.0
C      1  0.4954730000000  0.4191450000000  0.5019340000000 1.0
C      1  0.5682580000000  0.4897140000000  0.4802250000000 1.0
C      1  0.5274000000000  0.4516390000000  0.4461180000000 1.0
C      1  0.5878990000000  0.5321560000000  0.4998710000000 1.0
C      1  0.4630650000000  0.5737880000000  0.5569640000000 1.0
C      1  0.4317450000000  0.4408720000000  0.5033890000000 1.0
C      1  0.5243460000000  0.5103580000000  0.4789420000000 1.0
C      1  0.5077770000000  0.5401310000000  0.4268320000000 1.0
C      1  0.5784670000000  0.5098550000000  0.6051940000000 1.0
C      1  0.4576840000000  0.4482790000000  0.5078900000000 1.0
C      1  0.5128240000000  0.5729820000000  0.5433920000000 1.0
C      1  0.5529040000000  0.5401730000000  0.5375250000000 1.0
C      1  0.5294160000000  0.4943400000000  0.4219410000000 1.0
C      1  0.4861580000000  0.5656970000000  0.5415030000000 1.0
C      1  0.5721850000000  0.4690260000000  0.4986960000000 1.0
C      1  0.4782560000000  0.5402160000000  0.5299060000000 1.0
C      1  0.4520360000000  0.5313510000000  0.5414810000000 1.0
C      1  0.5692550000000  0.4629590000000  0.5244250000000 1.0
C      1  0.4436980000000  0.5539440000000  0.5570790000000 1.0
C      1  0.4396670000000  0.4539650000000  0.4241810000000 1.0
END
