TITL C-2323482-8828-82 11.2557705482532 125000 -342.988727727534 0 0 60 (C1) n - 1
REM
REM in /home/bkarasulu/CARBON/AIRSS/Generating-Clusters/LCBOP/Higher-Symm/Only-C60/SD-CG/FIRE-HFTN
REM
REM
REM
REM
REM
REM ./C.cell (50c204cfd26239f34c78669fe23a5462)
REM
REM compiler GCC version 9.2.1 20190827 (Red Hat 9.2.1-1)
REM options -cpp -mtune=generic -march=x86-64 -g -O0 -fpre-include=/usr/include/finclude/math-vector-fortran.h
REM seed 57471272 1817835631 -1260199908 -1977826907 2026279252 474150924 -1254784266 1876411546 -1883874669 -1405457589 2034820159 305938178 -588298479 -1099278652 1016874276 -2037382923 -916442908 -1242747388 -877051632 660463006 489469565 1592352446 -1475731421 1108506916 1354144701 -535321552 -2110076378 -579926435 657317122 -472183195 -1561081501 -1436418090 -186690337
REM
CELL 1.54180   50.00000   50.00000   50.00000   90.00000   90.00000   90.00000
LATT -1
SFAC C  
C      1  0.3281500000000  0.4778890000000  0.5552420000000 1.0
C      1  0.6290290000000  0.4597190000000  0.6308150000000 1.0
C      1  0.7086190000000  0.4531200000000  0.3524300000000 1.0
C      1  0.3400780000000  0.4906170000000  0.5052100000000 1.0
C      1  0.5780280000000  0.4724860000000  0.6243450000000 1.0
C      1  0.6746530000000  0.4655930000000  0.3911650000000 1.0
C      1  0.4556540000000  0.5088880000000  0.3919760000000 1.0
C      1  0.4418490000000  0.5127310000000  0.5672630000000 1.0
C      1  0.5981590000000  0.5018590000000  0.5149020000000 1.0
C      1  0.4387660000000  0.5100360000000  0.3711310000000 1.0
C      1  0.4162710000000  0.5195400000000  0.5680850000000 1.0
C      1  0.6035680000000  0.5079910000000  0.5400870000000 1.0
C      1  0.3722430000000  0.5183290000000  0.6128120000000 1.0
C      1  0.6549900000000  0.5015750000000  0.5754890000000 1.0
C      1  0.3993030000000  0.5048750000000  0.4195270000000 1.0
C      1  0.4775240000000  0.5066220000000  0.4866850000000 1.0
C      1  0.5192910000000  0.5031330000000  0.5087110000000 1.0
C      1  0.5173920000000  0.5026460000000  0.4613260000000 1.0
C      1  0.6545930000000  0.4550810000000  0.6329540000000 1.0
C      1  0.7253250000000  0.4469860000000  0.3333790000000 1.0
C      1  0.3234160000000  0.4719480000000  0.5801800000000 1.0
C      1  0.4107640000000  0.5094420000000  0.3678130000000 1.0
C      1  0.3903370000000  0.5289540000000  0.5664870000000 1.0
C      1  0.6074550000000  0.5169270000000  0.5659470000000 1.0
C      1  0.3491590000000  0.4958240000000  0.4808630000000 1.0
C      1  0.5533570000000  0.4804440000000  0.6188490000000 1.0
C      1  0.6576730000000  0.4718290000000  0.4105300000000 1.0
C      1  0.6916340000000  0.4593580000000  0.3718000000000 1.0
C      1  0.3334020000000  0.4843100000000  0.5300680000000 1.0
C      1  0.6032770000000  0.4653730000000  0.6280930000000 1.0
C      1  0.5065970000000  0.4951500000000  0.5990330000000 1.0
C      1  0.6237110000000  0.4843020000000  0.4492590000000 1.0
C      1  0.3778250000000  0.5026530000000  0.4370640000000 1.0
C      1  0.3986970000000  0.5110920000000  0.3428360000000 1.0
C      1  0.3777080000000  0.5417630000000  0.5436210000000 1.0
C      1  0.5885150000000  0.5315510000000  0.5824900000000 1.0
C      1  0.5888260000000  0.4971120000000  0.4889970000000 1.0
C      1  0.4525610000000  0.5065820000000  0.4198920000000 1.0
C      1  0.4687260000000  0.5070270000000  0.5622830000000 1.0
C      1  0.4739610000000  0.5059550000000  0.4375900000000 1.0
C      1  0.4783500000000  0.5070070000000  0.5360700000000 1.0
C      1  0.5614920000000  0.4989780000000  0.4835930000000 1.0
C      1  0.3516590000000  0.5489340000000  0.5499820000000 1.0
C      1  0.6000010000000  0.5374600000000  0.6070590000000 1.0
C      1  0.3871820000000  0.5126640000000  0.3190260000000 1.0
C      1  0.6406920000000  0.4780660000000  0.4298940000000 1.0
C      1  0.3615250000000  0.4997330000000  0.4577480000000 1.0
C      1  0.5293740000000  0.4881970000000  0.6106640000000 1.0
C      1  0.4861510000000  0.5013340000000  0.5833590000000 1.0
C      1  0.6067370000000  0.4905370000000  0.4686140000000 1.0
C      1  0.4258860000000  0.5049930000000  0.4288590000000 1.0
C      1  0.3464050000000  0.5413390000000  0.5761630000000 1.0
C      1  0.6258320000000  0.5273010000000  0.6075590000000 1.0
C      1  0.3758520000000  0.5142110000000  0.2955980000000 1.0
C      1  0.4911670000000  0.5056840000000  0.5115400000000 1.0
C      1  0.5338960000000  0.5014740000000  0.4844080000000 1.0
C      1  0.4891200000000  0.5051510000000  0.4607930000000 1.0
C      1  0.3698050000000  0.5285440000000  0.5878100000000 1.0
C      1  0.6319050000000  0.5140220000000  0.5823860000000 1.0
C      1  0.3958800000000  0.5070550000000  0.3916450000000 1.0
END
