TITL C-2323492-8884-485 15.1233831074873 125000 -348.928037926525 0 0 60 (C1) n - 1
REM
REM in /home/bkarasulu/CARBON/AIRSS/Generating-Clusters/LCBOP/Higher-Symm/Only-C60/SD-CG/FIRE-HFTN
REM
REM
REM
REM
REM
REM ./C.cell (50c204cfd26239f34c78669fe23a5462)
REM
REM compiler GCC version 9.2.1 20190827 (Red Hat 9.2.1-1)
REM options -cpp -mtune=generic -march=x86-64 -g -O0 -fpre-include=/usr/include/finclude/math-vector-fortran.h
REM seed -1485513804 -1393591634 -1080371732 1412662795 21462428 -1491936792 -1247658492 515492661 -79154838 886581494 -592010027 -1132310539 1530882745 -1023726622 -862658849 859127496 -1204970689 2001330420 -1319362453 835436910 -519835346 74256768 1520628209 -336487348 975768721 310565511 837860906 -1878277424 -568439218 -648078550 -1681989298 -1956816545 616723312
REM
CELL 1.54180   50.00000   50.00000   50.00000   90.00000   90.00000   90.00000
LATT -1
SFAC C  
C      1  0.4986520000000  0.5498570000000  0.5207260000000 1.0
C      1  0.4729880000000  0.4467490000000  0.5711160000000 1.0
C      1  0.5277700000000  0.5053210000000  0.4676410000000 1.0
C      1  0.5088140000000  0.5796720000000  0.4576390000000 1.0
C      1  0.5234170000000  0.4890830000000  0.5914950000000 1.0
C      1  0.5126360000000  0.4504460000000  0.5135470000000 1.0
C      1  0.5183970000000  0.5949440000000  0.3606350000000 1.0
C      1  0.5957240000000  0.5553240000000  0.5910100000000 1.0
C      1  0.5135270000000  0.3532550000000  0.5293410000000 1.0
C      1  0.4938350000000  0.5267670000000  0.5357410000000 1.0
C      1  0.4564630000000  0.4464560000000  0.5487070000000 1.0
C      1  0.5273560000000  0.5192480000000  0.4433730000000 1.0
C      1  0.4920550000000  0.4527750000000  0.5884810000000 1.0
C      1  0.5279980000000  0.4886470000000  0.4882290000000 1.0
C      1  0.5030780000000  0.5702990000000  0.5044890000000 1.0
C      1  0.5260220000000  0.3021940000000  0.5361490000000 1.0
C      1  0.5247420000000  0.6144630000000  0.3117640000000 1.0
C      1  0.6397840000000  0.5834300000000  0.5998650000000 1.0
C      1  0.5480010000000  0.5167750000000  0.4255820000000 1.0
C      1  0.4726030000000  0.5105880000000  0.5297700000000 1.0
C      1  0.4297150000000  0.4556540000000  0.5500560000000 1.0
C      1  0.3921990000000  0.4787970000000  0.5273440000000 1.0
C      1  0.4670520000000  0.4510070000000  0.4511700000000 1.0
C      1  0.4333590000000  0.5473350000000  0.4508040000000 1.0
C      1  0.5287140000000  0.5122600000000  0.5768560000000 1.0
C      1  0.4935120000000  0.4310170000000  0.5196350000000 1.0
C      1  0.5086800000000  0.5638440000000  0.4346470000000 1.0
C      1  0.6177520000000  0.5693760000000  0.5954370000000 1.0
C      1  0.5197740000000  0.3277280000000  0.5327440000000 1.0
C      1  0.5215690000000  0.6047020000000  0.3362030000000 1.0
C      1  0.4791430000000  0.5243600000000  0.4345940000000 1.0
C      1  0.3831730000000  0.5230250000000  0.5021700000000 1.0
C      1  0.4491360000000  0.4403280000000  0.4998790000000 1.0
C      1  0.4115690000000  0.5473600000000  0.4659620000000 1.0
C      1  0.4123120000000  0.4596560000000  0.5282150000000 1.0
C      1  0.4727890000000  0.4714550000000  0.4352470000000 1.0
C      1  0.6614550000000  0.5972540000000  0.6042210000000 1.0
C      1  0.5321670000000  0.2770810000000  0.5394980000000 1.0
C      1  0.5278630000000  0.6240630000000  0.2877270000000 1.0
C      1  0.5152260000000  0.5851830000000  0.3850660000000 1.0
C      1  0.5736980000000  0.5412730000000  0.5865820000000 1.0
C      1  0.5072790000000  0.3787810000000  0.5259380000000 1.0
C      1  0.5105380000000  0.6153990000000  0.4896910000000 1.0
C      1  0.5244650000000  0.4536730000000  0.6239680000000 1.0
C      1  0.5533320000000  0.4726890000000  0.5257210000000 1.0
C      1  0.4590370000000  0.4397580000000  0.4738320000000 1.0
C      1  0.4562560000000  0.5395400000000  0.4399100000000 1.0
C      1  0.3823240000000  0.5015400000000  0.5177780000000 1.0
C      1  0.5134750000000  0.4650080000000  0.6016590000000 1.0
C      1  0.5315180000000  0.4706260000000  0.5093390000000 1.0
C      1  0.5075210000000  0.5888280000000  0.4840140000000 1.0
C      1  0.4222000000000  0.4474450000000  0.5047280000000 1.0
C      1  0.4764450000000  0.4970330000000  0.4292120000000 1.0
C      1  0.3937950000000  0.5390640000000  0.4838570000000 1.0
C      1  0.5050300000000  0.5357830000000  0.4372010000000 1.0
C      1  0.5110130000000  0.5203810000000  0.5568410000000 1.0
C      1  0.4663510000000  0.4386260000000  0.5228250000000 1.0
C      1  0.5517100000000  0.5272010000000  0.5821030000000 1.0
C      1  0.5009340000000  0.4042760000000  0.5225890000000 1.0
C      1  0.5120580000000  0.5752990000000  0.4094330000000 1.0
END
