TITL C-2323491-8878-378 1.92480803992222e-06 125000 -356.194866748081 0 0 60 (D5d) n - 1
REM
REM in /home/bkarasulu/CARBON/AIRSS/Generating-Clusters/LCBOP/Higher-Symm/Only-C60/SD-CG/FIRE-HFTN
REM
REM
REM
REM
REM
REM ./C.cell (50c204cfd26239f34c78669fe23a5462)
REM
REM compiler GCC version 9.2.1 20190827 (Red Hat 9.2.1-1)
REM options -cpp -mtune=generic -march=x86-64 -g -O0 -fpre-include=/usr/include/finclude/math-vector-fortran.h
REM seed 478030509 -816350870 -806437652 -213222703 513571242 -40895326 -2019519052 -1993386440 -793801782 680379888 -1864689046 -1111431601 -2136083343 -1407029955 1453491230 303920829 878822669 -1128450353 1400126555 -1621359488 -1980947725 -1693092358 -976238975 -159224923 -965946148 -396769431 -894918664 1867899794 1525568798 -1404139909 -1976106893 1468733039 1897168911
REM
CELL 1.54180   50.00000   50.00000   50.00000   90.00000   90.00000   90.00000
LATT -1
SFAC C  
C      1  0.4507900000000  0.4892140000000  0.4419220000000 1.0
C      1  0.4538540000000  0.5202030000000  0.5580800000000 1.0
C      1  0.4745360000000  0.5434650000000  0.4419190000000 1.0
C      1  0.5049530000000  0.5501350000000  0.5580770000000 1.0
C      1  0.5334700000000  0.5376440000000  0.4419170000000 1.0
C      1  0.5492100000000  0.5107860000000  0.5580780000000 1.0
C      1  0.5461460000000  0.4797970000000  0.4419200000000 1.0
C      1  0.5254640000000  0.4565350000000  0.5580810000000 1.0
C      1  0.4950470000000  0.4498650000000  0.4419230000000 1.0
C      1  0.4665300000000  0.4623560000000  0.5580830000000 1.0
C      1  0.5092140000000  0.4339770000000  0.5143480000000 1.0
C      1  0.4686460000000  0.4411690000000  0.4856600000000 1.0
C      1  0.4400560000000  0.4708360000000  0.5143480000000 1.0
C      1  0.4343600000000  0.5116390000000  0.4856570000000 1.0
C      1  0.4537390000000  0.5479990000000  0.5143440000000 1.0
C      1  0.4907860000000  0.5660230000000  0.4856520000000 1.0
C      1  0.5313540000000  0.5588310000000  0.5143400000000 1.0
C      1  0.5599440000000  0.5291640000000  0.4856520000000 1.0
C      1  0.5656400000000  0.4883610000000  0.5143430000000 1.0
C      1  0.5462610000000  0.4520010000000  0.4856560000000 1.0
C      1  0.5367920000000  0.4838990000000  0.5543250000000 1.0
C      1  0.5202960000000  0.4653440000000  0.4456760000000 1.0
C      1  0.4960550000000  0.4600380000000  0.5543280000000 1.0
C      1  0.4733140000000  0.4699840000000  0.4456770000000 1.0
C      1  0.4607730000000  0.4914070000000  0.5543270000000 1.0
C      1  0.4632080000000  0.5161010000000  0.4456750000000 1.0
C      1  0.4797040000000  0.5346560000000  0.5543240000000 1.0
C      1  0.5039450000000  0.5399620000000  0.4456720000000 1.0
C      1  0.5266860000000  0.5300160000000  0.5543230000000 1.0
C      1  0.5392270000000  0.5085930000000  0.4456730000000 1.0
C      1  0.5328860000000  0.4438610000000  0.5315630000000 1.0
C      1  0.4936040000000  0.4352500000000  0.4684430000000 1.0
C      1  0.4567700000000  0.4513780000000  0.5315650000000 1.0
C      1  0.4364440000000  0.4860710000000  0.4684420000000 1.0
C      1  0.4403980000000  0.5260910000000  0.5315620000000 1.0
C      1  0.4671140000000  0.5561390000000  0.4684370000000 1.0
C      1  0.5063960000000  0.5647500000000  0.5315570000000 1.0
C      1  0.5432300000000  0.5486220000000  0.4684350000000 1.0
C      1  0.5635560000000  0.5139290000000  0.5315580000000 1.0
C      1  0.5596020000000  0.4739090000000  0.4684380000000 1.0
C      1  0.5547580000000  0.5380230000000  0.5143410000000 1.0
C      1  0.5666480000000  0.4985740000000  0.4856530000000 1.0
C      1  0.5530820000000  0.4596730000000  0.5143450000000 1.0
C      1  0.5192400000000  0.4361730000000  0.4856580000000 1.0
C      1  0.4780500000000  0.4370550000000  0.5143490000000 1.0
C      1  0.4452420000000  0.4619770000000  0.4856590000000 1.0
C      1  0.4333520000000  0.5014260000000  0.5143470000000 1.0
C      1  0.4469180000000  0.5403270000000  0.4856550000000 1.0
C      1  0.4807600000000  0.5638270000000  0.5143420000000 1.0
C      1  0.5219500000000  0.5629450000000  0.4856510000000 1.0
C      1  0.4976420000000  0.4761130000000  0.5288450000000 1.0
C      1  0.4840490000000  0.4820590000000  0.4711580000000 1.0
C      1  0.4765520000000  0.4948630000000  0.5288450000000 1.0
C      1  0.4780080000000  0.5096240000000  0.4711570000000 1.0
C      1  0.4878680000000  0.5207150000000  0.5288430000000 1.0
C      1  0.5023580000000  0.5238870000000  0.4711550000000 1.0
C      1  0.5159510000000  0.5179410000000  0.5288420000000 1.0
C      1  0.5234480000000  0.5051370000000  0.4711550000000 1.0
C      1  0.5219920000000  0.4903760000000  0.5288430000000 1.0
C      1  0.5121320000000  0.4792850000000  0.4711570000000 1.0
END
