TITL C-2323486-8761-133 5.49223720787146e-05 125000 -367.69399436161 0 0 60 (C2) n - 1
REM
REM in /home/bkarasulu/CARBON/AIRSS/Generating-Clusters/LCBOP/Higher-Symm/Only-C60/SD-CG/FIRE-HFTN
REM
REM
REM
REM
REM
REM ./C.cell (50c204cfd26239f34c78669fe23a5462)
REM
REM compiler GCC version 9.2.1 20190827 (Red Hat 9.2.1-1)
REM options -cpp -mtune=generic -march=x86-64 -g -O0 -fpre-include=/usr/include/finclude/math-vector-fortran.h
REM seed 355061803 1574704835 -1525361178 -1772744908 10904035 1969126405 13340201 568660713 -1144249314 1665246364 -452529849 -1157603675 -2081231390 788642736 1072845251 -119207276 -102113254 328035793 -465222249 1150713999 1890415748 -323268369 769207615 227224122 -232808094 -490095237 844582418 -2076542567 -1127257231 1467128127 31384874 650057237 -1540797417
REM
CELL 1.54180   50.00000   50.00000   50.00000   90.00000   90.00000   90.00000
LATT -1
SFAC C  
C      1  0.5200470000000  0.5514540000000  0.4407560000000 1.0
C      1  0.4798340000000  0.5514400000000  0.5593340000000 1.0
C      1  0.4798530000000  0.4485590000000  0.4406610000000 1.0
C      1  0.5200340000000  0.4485470000000  0.5592500000000 1.0
C      1  0.4406790000000  0.5514320000000  0.5201610000000 1.0
C      1  0.5592740000000  0.5514620000000  0.4799810000000 1.0
C      1  0.4406880000000  0.4485650000000  0.4798230000000 1.0
C      1  0.5592720000000  0.4485410000000  0.5200360000000 1.0
C      1  0.4352390000000  0.4831300000000  0.5453260000000 1.0
C      1  0.5648030000000  0.4831940000000  0.4546780000000 1.0
C      1  0.5647890000000  0.5168100000000  0.5453400000000 1.0
C      1  0.4352500000000  0.5168660000000  0.4546560000000 1.0
C      1  0.5453670000000  0.4831960000000  0.4352300000000 1.0
C      1  0.4546840000000  0.4831280000000  0.5647680000000 1.0
C      1  0.5453480000000  0.5168060000000  0.5647820000000 1.0
C      1  0.4547010000000  0.5168690000000  0.4352200000000 1.0
C      1  0.5592040000000  0.5303230000000  0.4614430000000 1.0
C      1  0.4408700000000  0.5302370000000  0.5385670000000 1.0
C      1  0.4408820000000  0.4697590000000  0.4614170000000 1.0
C      1  0.5591950000000  0.4696800000000  0.5385730000000 1.0
C      1  0.4614320000000  0.5302400000000  0.5591370000000 1.0
C      1  0.5385890000000  0.5303200000000  0.4408270000000 1.0
C      1  0.4614500000000  0.4697580000000  0.4408530000000 1.0
C      1  0.5385740000000  0.4696820000000  0.5591840000000 1.0
C      1  0.4739720000000  0.4955530000000  0.4364990000000 1.0
C      1  0.5260570000000  0.4955080000000  0.5634890000000 1.0
C      1  0.5260740000000  0.5044930000000  0.4365190000000 1.0
C      1  0.4739540000000  0.5044450000000  0.5634940000000 1.0
C      1  0.4365230000000  0.4955560000000  0.4739350000000 1.0
C      1  0.5635020000000  0.4955060000000  0.5260550000000 1.0
C      1  0.4365160000000  0.5044410000000  0.5260480000000 1.0
C      1  0.5635090000000  0.5044970000000  0.4739620000000 1.0
C      1  0.4602990000000  0.5513090000000  0.5000250000000 1.0
C      1  0.5389980000000  0.5512220000000  0.4994560000000 1.0
C      1  0.5390000000000  0.4487800000000  0.5005540000000 1.0
C      1  0.4603010000000  0.4486880000000  0.4999640000000 1.0
C      1  0.5005770000000  0.5512020000000  0.4610370000000 1.0
C      1  0.4999870000000  0.5513290000000  0.5397310000000 1.0
C      1  0.5005690000000  0.4487980000000  0.5389630000000 1.0
C      1  0.5000010000000  0.4486710000000  0.4602690000000 1.0
C      1  0.4700720000000  0.5250610000000  0.4910320000000 1.0
C      1  0.5298360000000  0.5249670000000  0.5090840000000 1.0
C      1  0.5298400000000  0.4750340000000  0.4909250000000 1.0
C      1  0.4700710000000  0.4749380000000  0.5089600000000 1.0
C      1  0.4909560000000  0.5249410000000  0.4701970000000 1.0
C      1  0.5089920000000  0.5250870000000  0.5299610000000 1.0
C      1  0.4909490000000  0.4750580000000  0.5298010000000 1.0
C      1  0.5090020000000  0.4749140000000  0.4700420000000 1.0
C      1  0.4993060000000  0.5721100000000  0.4798600000000 1.0
C      1  0.5045890000000  0.5735980000000  0.5238810000000 1.0
C      1  0.5046000000000  0.4264030000000  0.4761200000000 1.0
C      1  0.4993040000000  0.4278900000000  0.5201400000000 1.0
C      1  0.4761440000000  0.5735820000000  0.4954290000000 1.0
C      1  0.5201650000000  0.5721220000000  0.5007210000000 1.0
C      1  0.4761460000000  0.4264170000000  0.5045640000000 1.0
C      1  0.5201690000000  0.4278790000000  0.4992850000000 1.0
C      1  0.5469560000000  0.5000010000000  0.5000060000000 1.0
C      1  0.4530230000000  0.4999990000000  0.4999940000000 1.0
C      1  0.4999850000000  0.5000090000000  0.5469640000000 1.0
C      1  0.4999980000000  0.4999910000000  0.4530360000000 1.0
END
