TITL C-2323479-8056-126 91.129364078424 125000 -357.72082117924 0 0 60 (C1) n - 1
REM
REM in /home/bkarasulu/CARBON/AIRSS/Generating-Clusters/LCBOP/Higher-Symm/Only-C60/SD-CG/FIRE-HFTN
REM
REM
REM
REM
REM
REM ./C.cell (50c204cfd26239f34c78669fe23a5462)
REM
REM compiler GCC version 9.2.1 20190827 (Red Hat 9.2.1-1)
REM options -cpp -mtune=generic -march=x86-64 -g -O0 -fpre-include=/usr/include/finclude/math-vector-fortran.h
REM seed 221458067 748707912 1480901965 1241031294 352698427 -332899533 -1332406724 -44123890 -1830493894 -2078889385 1639497857 1924655436 -571366373 -1529267082 -45811950 282437301 800443152 1898634874 -903529442 937140249 -2104582874 2037151458 -1493499743 1314391184 -1569025385 -511856349 -119241759 -503823402 -832470996 -2146497497 347603295 1617320341 -1653631139
REM
CELL 1.54180   50.00000   50.00000   50.00000   90.00000   90.00000   90.00000
LATT -1
SFAC C  
C      1  0.5890930000000  0.5596660000000  0.5010280000000 1.0
C      1  0.5673370000000  0.5182810000000  0.4850380000000 1.0
C      1  0.5650190000000  0.4897010000000  0.4831530000000 1.0
C      1  0.4239820000000  0.5106660000000  0.5073410000000 1.0
C      1  0.4873420000000  0.4915420000000  0.5977310000000 1.0
C      1  0.5102350000000  0.4703100000000  0.4743080000000 1.0
C      1  0.4672450000000  0.4288080000000  0.5509570000000 1.0
C      1  0.4658380000000  0.5740800000000  0.4851510000000 1.0
C      1  0.3781740000000  0.5124150000000  0.5172860000000 1.0
C      1  0.6069600000000  0.5347350000000  0.4626430000000 1.0
C      1  0.4987270000000  0.4086620000000  0.5141060000000 1.0
C      1  0.5937990000000  0.5326550000000  0.4896360000000 1.0
C      1  0.4416860000000  0.4712000000000  0.6098720000000 1.0
C      1  0.4813660000000  0.5045670000000  0.5730210000000 1.0
C      1  0.4758780000000  0.5721630000000  0.4605320000000 1.0
C      1  0.5262400000000  0.4815790000000  0.4534160000000 1.0
C      1  0.4294560000000  0.4889020000000  0.5251020000000 1.0
C      1  0.4824630000000  0.5326700000000  0.4329740000000 1.0
C      1  0.5015910000000  0.5104610000000  0.5030250000000 1.0
C      1  0.5147240000000  0.4968190000000  0.4316100000000 1.0
C      1  0.5730760000000  0.4862030000000  0.4362320000000 1.0
C      1  0.5266470000000  0.5071230000000  0.5595710000000 1.0
C      1  0.5550060000000  0.4808910000000  0.4576290000000 1.0
C      1  0.4524520000000  0.4672170000000  0.4732530000000 1.0
C      1  0.4664850000000  0.4865560000000  0.4300220000000 1.0
C      1  0.5152690000000  0.4889760000000  0.6023120000000 1.0
C      1  0.5441600000000  0.5324250000000  0.4759170000000 1.0
C      1  0.4835750000000  0.4119440000000  0.5356840000000 1.0
C      1  0.4114370000000  0.4708830000000  0.5683920000000 1.0
C      1  0.5707350000000  0.4725760000000  0.5035650000000 1.0
C      1  0.5319190000000  0.5114400000000  0.4138590000000 1.0
C      1  0.5336860000000  0.4964060000000  0.5836310000000 1.0
C      1  0.6114060000000  0.5166060000000  0.5084080000000 1.0
C      1  0.4741510000000  0.5434980000000  0.5250330000000 1.0
C      1  0.4528770000000  0.4731930000000  0.5213330000000 1.0
C      1  0.4651520000000  0.5631400000000  0.5094440000000 1.0
C      1  0.4583380000000  0.4210090000000  0.5755460000000 1.0
C      1  0.5296060000000  0.5105190000000  0.3867070000000 1.0
C      1  0.4604100000000  0.4536610000000  0.5398810000000 1.0
C      1  0.5420150000000  0.5429900000000  0.4491700000000 1.0
C      1  0.3994400000000  0.5215580000000  0.5029460000000 1.0
C      1  0.4522350000000  0.4716240000000  0.4469340000000 1.0
C      1  0.4873710000000  0.5050340000000  0.4305610000000 1.0
C      1  0.5518940000000  0.5269690000000  0.4272910000000 1.0
C      1  0.5091460000000  0.4203690000000  0.4926440000000 1.0
C      1  0.5202120000000  0.5601960000000  0.4439680000000 1.0
C      1  0.4667330000000  0.4799610000000  0.6123650000000 1.0
C      1  0.5123630000000  0.4426750000000  0.4786390000000 1.0
C      1  0.3822770000000  0.4932480000000  0.5361670000000 1.0
C      1  0.4077830000000  0.4826390000000  0.5434110000000 1.0
C      1  0.5770890000000  0.5135590000000  0.4289630000000 1.0
C      1  0.4931080000000  0.4854940000000  0.4920060000000 1.0
C      1  0.4994480000000  0.5115610000000  0.5522460000000 1.0
C      1  0.5999640000000  0.5270250000000  0.4378700000000 1.0
C      1  0.4909570000000  0.5211370000000  0.5272630000000 1.0
C      1  0.4665210000000  0.4752020000000  0.4963330000000 1.0
C      1  0.5836720000000  0.5833310000000  0.5104610000000 1.0
C      1  0.5204980000000  0.5265890000000  0.4899260000000 1.0
C      1  0.4215810000000  0.4678560000000  0.5927530000000 1.0
C      1  0.4921540000000  0.5568370000000  0.4437340000000 1.0
END
