TITL C-2323485-8600-345 -808.833123789236 125000 -352.72163243418 0 0 60 (C2) n - 1
REM
REM in /home/bkarasulu/CARBON/AIRSS/Generating-Clusters/LCBOP/Higher-Symm/Only-C60/SD-CG/FIRE-HFTN
REM
REM
REM
REM
REM
REM ./C.cell (50c204cfd26239f34c78669fe23a5462)
REM
REM compiler GCC version 9.2.1 20190827 (Red Hat 9.2.1-1)
REM options -cpp -mtune=generic -march=x86-64 -g -O0 -fpre-include=/usr/include/finclude/math-vector-fortran.h
REM seed -263926649 870459624 -964514134 284752867 714140938 1819816644 -534938307 2035462910 1903475573 1845609387 -1226284361 -1026198759 1691558931 1581095685 -471621104 1745901857 -48423688 1009892963 6686244 -1075161151 1801209147 -371704903 1496287153 1835224408 -1439807426 -1114888802 -1115441500 1472578522 -44387334 3041226 1913789743 -1884151077 -746201911
REM
CELL 1.54180   50.00000   50.00000   50.00000   90.00000   90.00000   90.00000
LATT -1
SFAC C  
C      1  0.5038270000000  0.5540540000000  0.4615170000000 1.0
C      1  0.4957660000000  0.4453930000000  0.4594720000000 1.0
C      1  0.5038250000000  0.4459460000000  0.5384820000000 1.0
C      1  0.4957830000000  0.5546080000000  0.5405290000000 1.0
C      1  0.5650500000000  0.4950950000000  0.4571370000000 1.0
C      1  0.4431770000000  0.4998930000000  0.4604120000000 1.0
C      1  0.4431850000000  0.5001170000000  0.5395990000000 1.0
C      1  0.5650590000000  0.5048940000000  0.5428500000000 1.0
C      1  0.5178390000000  0.4648160000000  0.5596200000000 1.0
C      1  0.4858920000000  0.5329630000000  0.5583120000000 1.0
C      1  0.5178330000000  0.5351810000000  0.4403760000000 1.0
C      1  0.4858740000000  0.4670400000000  0.4416910000000 1.0
C      1  0.4645650000000  0.5115210000000  0.5577680000000 1.0
C      1  0.5398890000000  0.4871780000000  0.5635270000000 1.0
C      1  0.5398780000000  0.5128150000000  0.4364640000000 1.0
C      1  0.4645520000000  0.4884840000000  0.4422390000000 1.0
C      1  0.4769540000000  0.4385080000000  0.5464190000000 1.0
C      1  0.5226080000000  0.5637790000000  0.5478540000000 1.0
C      1  0.4769550000000  0.5614960000000  0.4535850000000 1.0
C      1  0.5225870000000  0.4362170000000  0.4521420000000 1.0
C      1  0.4382370000000  0.4722890000000  0.5453470000000 1.0
C      1  0.5647550000000  0.5326980000000  0.5491300000000 1.0
C      1  0.5647390000000  0.4672910000000  0.4508570000000 1.0
C      1  0.4382330000000  0.5277210000000  0.4546650000000 1.0
C      1  0.4742560000000  0.5094530000000  0.4237360000000 1.0
C      1  0.5286390000000  0.4911490000000  0.4206780000000 1.0
C      1  0.4742700000000  0.4905510000000  0.5762690000000 1.0
C      1  0.5286560000000  0.5088460000000  0.5793160000000 1.0
C      1  0.5071320000000  0.4746040000000  0.4228320000000 1.0
C      1  0.4950420000000  0.5270470000000  0.4224250000000 1.0
C      1  0.4950540000000  0.4729540000000  0.5775760000000 1.0
C      1  0.5071520000000  0.5253940000000  0.5771670000000 1.0
C      1  0.5293470000000  0.5395500000000  0.5005470000000 1.0
C      1  0.4592130000000  0.4447190000000  0.4918820000000 1.0
C      1  0.5293390000000  0.4604460000000  0.4994470000000 1.0
C      1  0.4592240000000  0.5552870000000  0.5081260000000 1.0
C      1  0.5399660000000  0.5206030000000  0.4832350000000 1.0
C      1  0.4390620000000  0.4626320000000  0.4916110000000 1.0
C      1  0.4390700000000  0.5373780000000  0.5084020000000 1.0
C      1  0.5399660000000  0.4793910000000  0.5167560000000 1.0
C      1  0.4939910000000  0.4893340000000  0.5288800000000 1.0
C      1  0.5248220000000  0.5249570000000  0.5242560000000 1.0
C      1  0.4939870000000  0.5106680000000  0.4711220000000 1.0
C      1  0.5248120000000  0.4750400000000  0.4757390000000 1.0
C      1  0.4754640000000  0.4921660000000  0.5106090000000 1.0
C      1  0.5199490000000  0.4976690000000  0.5264840000000 1.0
C      1  0.5199440000000  0.5023290000000  0.4735110000000 1.0
C      1  0.4754630000000  0.5078360000000  0.4893960000000 1.0
C      1  0.4350290000000  0.4907290000000  0.4877010000000 1.0
C      1  0.5647030000000  0.5053980000000  0.4853530000000 1.0
C      1  0.4350330000000  0.5092820000000  0.5123120000000 1.0
C      1  0.5647050000000  0.4945920000000  0.5146340000000 1.0
C      1  0.4870150000000  0.4414910000000  0.4873930000000 1.0
C      1  0.5074540000000  0.5551370000000  0.4911180000000 1.0
C      1  0.5074460000000  0.4448620000000  0.5088800000000 1.0
C      1  0.4870270000000  0.5585110000000  0.5126090000000 1.0
C      1  0.5480680000000  0.4457200000000  0.4487500000000 1.0
C      1  0.4522740000000  0.5506430000000  0.4518870000000 1.0
C      1  0.5480880000000  0.5542720000000  0.5512410000000 1.0
C      1  0.4522760000000  0.4493640000000  0.5481220000000 1.0
END
