TITL C-2323490-8774-607 2.32693829928277e-06 125000 -372.112086112505 0 0 60 (Cs) n - 1
REM
REM in /home/bkarasulu/CARBON/AIRSS/Generating-Clusters/LCBOP/Higher-Symm/Only-C60/SD-CG/FIRE-HFTN
REM
REM
REM
REM
REM
REM ./C.cell (50c204cfd26239f34c78669fe23a5462)
REM
REM compiler GCC version 9.2.1 20190827 (Red Hat 9.2.1-1)
REM options -cpp -mtune=generic -march=x86-64 -g -O0 -fpre-include=/usr/include/finclude/math-vector-fortran.h
REM seed 1762022254 691235507 -1453409279 105095682 -1172887651 -1717557662 -1186697217 -1960424666 -631974770 1226144055 -367282120 -1793527547 -126259578 -1224000460 1947929471 -79612296 828298119 428528768 1615036942 -520662529 -1973424435 246416628 431055270 618008531 -897264153 -453136681 -1231318736 1047777452 1209290030 454074006 1078860236 -61710016 -802786592
REM
CELL 1.54180   50.00000   50.00000   50.00000   90.00000   90.00000   90.00000
LATT -1
SFAC C  
C      1  0.5508540000000  0.5478340000000  0.5109260000000 1.0
C      1  0.5105200000000  0.5483520000000  0.5415180000000 1.0
C      1  0.4612150000000  0.5403290000000  0.5385580000000 1.0
C      1  0.4512870000000  0.5430450000000  0.4853800000000 1.0
C      1  0.4878050000000  0.5451450000000  0.4459120000000 1.0
C      1  0.5342300000000  0.5584720000000  0.4673100000000 1.0
C      1  0.5529340000000  0.5451530000000  0.4835190000000 1.0
C      1  0.5111910000000  0.5584690000000  0.4540070000000 1.0
C      1  0.4651070000000  0.5478240000000  0.4614130000000 1.0
C      1  0.4587740000000  0.5483460000000  0.5116380000000 1.0
C      1  0.4859860000000  0.5403320000000  0.5528610000000 1.0
C      1  0.5370060000000  0.5430550000000  0.5348770000000 1.0
C      1  0.4851490000000  0.4764360000000  0.5815420000000 1.0
C      1  0.4261570000000  0.4739890000000  0.5277540000000 1.0
C      1  0.4380590000000  0.4773550000000  0.4475660000000 1.0
C      1  0.5131630000000  0.4730970000000  0.4229260000000 1.0
C      1  0.5761190000000  0.4771990000000  0.4727100000000 1.0
C      1  0.5583410000000  0.4766020000000  0.5487480000000 1.0
C      1  0.4855890000000  0.4771890000000  0.4204350000000 1.0
C      1  0.4286200000000  0.4765860000000  0.4738430000000 1.0
C      1  0.4368050000000  0.4764310000000  0.5536270000000 1.0
C      1  0.5128800000000  0.4739990000000  0.5778310000000 1.0
C      1  0.5763800000000  0.4773710000000  0.5274380000000 1.0
C      1  0.5601770000000  0.4731030000000  0.4500740000000 1.0
C      1  0.4902030000000  0.5247440000000  0.4259830000000 1.0
C      1  0.5659290000000  0.5196970000000  0.4435260000000 1.0
C      1  0.5772270000000  0.5241540000000  0.5292830000000 1.0
C      1  0.5136070000000  0.5204050000000  0.5882110000000 1.0
C      1  0.4397890000000  0.5240690000000  0.5486950000000 1.0
C      1  0.4299460000000  0.5246150000000  0.4757960000000 1.0
C      1  0.4879200000000  0.5240750000000  0.5764880000000 1.0
C      1  0.5559780000000  0.5246300000000  0.5485710000000 1.0
C      1  0.5689990000000  0.5247530000000  0.4714820000000 1.0
C      1  0.5159510000000  0.5196910000000  0.4146670000000 1.0
C      1  0.4360290000000  0.5241380000000  0.4477500000000 1.0
C      1  0.4167960000000  0.5203930000000  0.5323090000000 1.0
C      1  0.5822280000000  0.5014530000000  0.5139760000000 1.0
C      1  0.5287840000000  0.4976410000000  0.5805160000000 1.0
C      1  0.4469380000000  0.5006170000000  0.5638810000000 1.0
C      1  0.4208940000000  0.5003800000000  0.4876210000000 1.0
C      1  0.4725530000000  0.5019050000000  0.4245580000000 1.0
C      1  0.5547380000000  0.4955840000000  0.4334500000000 1.0
C      1  0.5790600000000  0.5019180000000  0.4860580000000 1.0
C      1  0.5302760000000  0.4955820000000  0.4193250000000 1.0
C      1  0.4467910000000  0.5014370000000  0.4357700000000 1.0
C      1  0.4158770000000  0.4976280000000  0.5153190000000 1.0
C      1  0.4711980000000  0.5006200000000  0.5778900000000 1.0
C      1  0.5502660000000  0.5003950000000  0.5623250000000 1.0
C      1  0.5469320000000  0.4519950000000  0.4867250000000 1.0
C      1  0.5380560000000  0.4576950000000  0.5393600000000 1.0
C      1  0.4875410000000  0.4524030000000  0.5484880000000 1.0
C      1  0.4460290000000  0.4568510000000  0.5145590000000 1.0
C      1  0.4647120000000  0.4523100000000  0.4661390000000 1.0
C      1  0.5148550000000  0.4556250000000  0.4463860000000 1.0
C      1  0.5469750000000  0.4523200000000  0.5136400000000 1.0
C      1  0.5390160000000  0.4556280000000  0.4603380000000 1.0
C      1  0.4880450000000  0.4519880000000  0.4527220000000 1.0
C      1  0.4468940000000  0.4576850000000  0.4867200000000 1.0
C      1  0.4642420000000  0.4524000000000  0.5350340000000 1.0
C      1  0.5143770000000  0.4568590000000  0.5540260000000 1.0
END
