TITL C-2323486-8761-214 48.4015590251399 125000 -343.089713812401 0 0 60 (C1) n - 1
REM
REM in /home/bkarasulu/CARBON/AIRSS/Generating-Clusters/LCBOP/Higher-Symm/Only-C60/SD-CG/FIRE-HFTN
REM
REM
REM
REM
REM
REM ./C.cell (50c204cfd26239f34c78669fe23a5462)
REM
REM compiler GCC version 9.2.1 20190827 (Red Hat 9.2.1-1)
REM options -cpp -mtune=generic -march=x86-64 -g -O0 -fpre-include=/usr/include/finclude/math-vector-fortran.h
REM seed -141434839 1694975611 -2138671551 -103686307 913037165 678750819 -1680830657 1181890102 -1313792650 2131178732 -642850287 -951634666 -109854199 560596199 -1732687763 -873866219 330048547 -1963042342 1587921841 693868153 -1018635512 -755813590 1107930652 42176193 -153447148 -926674063 -619457797 1725451237 -1334868977 283298004 -2056315089 -1206841863 1462045333
REM
CELL 1.54180   50.00000   50.00000   50.00000   90.00000   90.00000   90.00000
LATT -1
SFAC C  
C      1  0.5302000000000  0.5491110000000  0.4773520000000 1.0
C      1  0.4746440000000  0.5621520000000  0.5033830000000 1.0
C      1  0.4478430000000  0.4717350000000  0.4837780000000 1.0
C      1  0.5211630000000  0.4500930000000  0.5075280000000 1.0
C      1  0.5271690000000  0.4986190000000  0.4837590000000 1.0
C      1  0.4761840000000  0.5084130000000  0.5082500000000 1.0
C      1  0.5115250000000  0.5790700000000  0.4410560000000 1.0
C      1  0.4848420000000  0.5836160000000  0.5458050000000 1.0
C      1  0.5468200000000  0.4418220000000  0.4968920000000 1.0
C      1  0.4725420000000  0.4635170000000  0.4980230000000 1.0
C      1  0.5031430000000  0.5744130000000  0.4673590000000 1.0
C      1  0.4927690000000  0.5830070000000  0.5181650000000 1.0
C      1  0.5165320000000  0.4788960000000  0.5041130000000 1.0
C      1  0.4531210000000  0.4996950000000  0.4803560000000 1.0
C      1  0.5141100000000  0.4975470000000  0.6086120000000 1.0
C      1  0.4807120000000  0.4815020000000  0.4263520000000 1.0
C      1  0.5424880000000  0.5133140000000  0.5445040000000 1.0
C      1  0.4695650000000  0.5415240000000  0.4599440000000 1.0
C      1  0.4429520000000  0.4735180000000  0.5357680000000 1.0
C      1  0.5718490000000  0.4794590000000  0.5161340000000 1.0
C      1  0.4544790000000  0.5164510000000  0.4544280000000 1.0
C      1  0.5350870000000  0.5189660000000  0.5708960000000 1.0
C      1  0.5446440000000  0.4215530000000  0.4771030000000 1.0
C      1  0.4888240000000  0.4537400000000  0.4758480000000 1.0
C      1  0.5005860000000  0.4284680000000  0.5100320000000 1.0
C      1  0.4362400000000  0.4452740000000  0.4809580000000 1.0
C      1  0.5139920000000  0.5181640000000  0.5895910000000 1.0
C      1  0.4678370000000  0.5066850000000  0.4292610000000 1.0
C      1  0.4849080000000  0.5337530000000  0.5002090000000 1.0
C      1  0.5325020000000  0.5260840000000  0.4969480000000 1.0
C      1  0.4904570000000  0.5329950000000  0.5854700000000 1.0
C      1  0.4818730000000  0.5269470000000  0.4140960000000 1.0
C      1  0.4509510000000  0.4234420000000  0.4910040000000 1.0
C      1  0.4756540000000  0.4180600000000  0.5027760000000 1.0
C      1  0.5120840000000  0.5994550000000  0.5085450000000 1.0
C      1  0.4745220000000  0.5685740000000  0.4727130000000 1.0
C      1  0.5236470000000  0.4204220000000  0.4599320000000 1.0
C      1  0.5014240000000  0.4357700000000  0.4601680000000 1.0
C      1  0.4922920000000  0.4444240000000  0.5710780000000 1.0
C      1  0.5549480000000  0.4728430000000  0.4436160000000 1.0
C      1  0.5233120000000  0.5555760000000  0.4290000000000 1.0
C      1  0.4648220000000  0.5638050000000  0.5521630000000 1.0
C      1  0.5401220000000  0.5450860000000  0.4506180000000 1.0
C      1  0.4535300000000  0.5581090000000  0.5257470000000 1.0
C      1  0.5055320000000  0.5401150000000  0.4133800000000 1.0
C      1  0.4709250000000  0.5461090000000  0.5728150000000 1.0
C      1  0.5015950000000  0.4509280000000  0.5951330000000 1.0
C      1  0.5324970000000  0.4721220000000  0.4288530000000 1.0
C      1  0.4922950000000  0.5284900000000  0.4721780000000 1.0
C      1  0.5229580000000  0.5194860000000  0.5245220000000 1.0
C      1  0.5660780000000  0.4629860000000  0.4937170000000 1.0
C      1  0.4673270000000  0.4622710000000  0.5268180000000 1.0
C      1  0.5081520000000  0.5067830000000  0.4640370000000 1.0
C      1  0.5010660000000  0.4979590000000  0.5206810000000 1.0
C      1  0.5635480000000  0.4965100000000  0.5353830000000 1.0
C      1  0.4216100000000  0.4847160000000  0.5456870000000 1.0
C      1  0.5689320000000  0.4712190000000  0.4666230000000 1.0
C      1  0.4827340000000  0.4505270000000  0.5470760000000 1.0
C      1  0.5061600000000  0.4728220000000  0.4234350000000 1.0
C      1  0.5096790000000  0.4712890000000  0.6103290000000 1.0
END
