TITL C-2323487-9546-572 15.8709849256095 125000 -351.006711660308 0 0 60 (C1) n - 1
REM
REM in /home/bkarasulu/CARBON/AIRSS/Generating-Clusters/LCBOP/Higher-Symm/Only-C60/SD-CG/FIRE-HFTN
REM
REM
REM
REM
REM
REM ./C.cell (50c204cfd26239f34c78669fe23a5462)
REM
REM compiler GCC version 9.2.1 20190827 (Red Hat 9.2.1-1)
REM options -cpp -mtune=generic -march=x86-64 -g -O0 -fpre-include=/usr/include/finclude/math-vector-fortran.h
REM seed -1554139843 1351335283 161960646 -1121658913 2002807991 -283382924 -109252771 911231436 -2027247121 -2124546441 -1044242881 653701503 2079379633 1115207509 -1959665325 -1397445479 -872700657 1677557062 -664007757 1761492165 53492986 204662976 -891513197 98043102 -693938338 -837447531 62290767 -1714517437 91691570 1693774259 994207527 -447265032 -1593982190
REM
CELL 1.54180   50.00000   50.00000   50.00000   90.00000   90.00000   90.00000
LATT -1
SFAC C  
C      1  0.4765250000000  0.4895710000000  0.5100910000000 1.0
C      1  0.4914920000000  0.5126530000000  0.5015870000000 1.0
C      1  0.4815260000000  0.5408120000000  0.5111030000000 1.0
C      1  0.4728510000000  0.5332780000000  0.5409550000000 1.0
C      1  0.5278990000000  0.5377730000000  0.5190130000000 1.0
C      1  0.5306270000000  0.4876950000000  0.5075450000000 1.0
C      1  0.5181490000000  0.5199350000000  0.5393680000000 1.0
C      1  0.5070680000000  0.5586890000000  0.5159840000000 1.0
C      1  0.4924060000000  0.4753680000000  0.5297480000000 1.0
C      1  0.4973870000000  0.5298590000000  0.5567990000000 1.0
C      1  0.5171120000000  0.5069500000000  0.4897230000000 1.0
C      1  0.5184110000000  0.4904710000000  0.5358050000000 1.0
C      1  0.4760890000000  0.5264620000000  0.4077110000000 1.0
C      1  0.4576570000000  0.4412240000000  0.5369110000000 1.0
C      1  0.5150600000000  0.4676610000000  0.4638950000000 1.0
C      1  0.4751480000000  0.4340150000000  0.5588820000000 1.0
C      1  0.4905790000000  0.4806020000000  0.4517240000000 1.0
C      1  0.5571900000000  0.4939350000000  0.5635310000000 1.0
C      1  0.4343270000000  0.5074650000000  0.4264360000000 1.0
C      1  0.5732230000000  0.5049160000000  0.5407340000000 1.0
C      1  0.5457490000000  0.4790580000000  0.4674920000000 1.0
C      1  0.5760730000000  0.5338080000000  0.5425310000000 1.0
C      1  0.4484200000000  0.5199210000000  0.4050500000000 1.0
C      1  0.4638290000000  0.4330510000000  0.5091880000000 1.0
C      1  0.4814450000000  0.5084870000000  0.4506140000000 1.0
C      1  0.4289460000000  0.4966800000000  0.4505220000000 1.0
C      1  0.4779910000000  0.4355070000000  0.4835330000000 1.0
C      1  0.5522500000000  0.5106820000000  0.5862680000000 1.0
C      1  0.4942570000000  0.5226490000000  0.4286250000000 1.0
C      1  0.4978180000000  0.4416770000000  0.5719720000000 1.0
C      1  0.4416770000000  0.4644600000000  0.5424020000000 1.0
C      1  0.5688670000000  0.4973950000000  0.4874010000000 1.0
C      1  0.5774070000000  0.4888010000000  0.5153290000000 1.0
C      1  0.4350860000000  0.5258030000000  0.3812520000000 1.0
C      1  0.5650080000000  0.5586800000000  0.5452720000000 1.0
C      1  0.5064410000000  0.4439700000000  0.4810640000000 1.0
C      1  0.5687850000000  0.4612310000000  0.5161260000000 1.0
C      1  0.5449970000000  0.5769570000000  0.5413140000000 1.0
C      1  0.5302800000000  0.5247080000000  0.5938770000000 1.0
C      1  0.5667050000000  0.5255510000000  0.4858870000000 1.0
C      1  0.4407980000000  0.4910290000000  0.5476290000000 1.0
C      1  0.4351830000000  0.4886420000000  0.4755060000000 1.0
C      1  0.5203460000000  0.4424850000000  0.5058960000000 1.0
C      1  0.4639950000000  0.4399700000000  0.4592300000000 1.0
C      1  0.4223920000000  0.5313850000000  0.3586760000000 1.0
C      1  0.4662560000000  0.5277560000000  0.4664170000000 1.0
C      1  0.5204620000000  0.4567760000000  0.5715780000000 1.0
C      1  0.5194570000000  0.5290210000000  0.4401760000000 1.0
C      1  0.4646490000000  0.5462000000000  0.4870590000000 1.0
C      1  0.4523210000000  0.4850770000000  0.4960150000000 1.0
C      1  0.4712920000000  0.4609490000000  0.4435600000000 1.0
C      1  0.5063740000000  0.5322220000000  0.5833960000000 1.0
C      1  0.5247440000000  0.5209860000000  0.4657740000000 1.0
C      1  0.5342480000000  0.4774480000000  0.5575900000000 1.0
C      1  0.4508340000000  0.5161380000000  0.5465280000000 1.0
C      1  0.5500610000000  0.5398210000000  0.5016090000000 1.0
C      1  0.5420030000000  0.4602320000000  0.5076690000000 1.0
C      1  0.4099020000000  0.5368780000000  0.3364630000000 1.0
C      1  0.5201800000000  0.5804700000000  0.5295250000000 1.0
C      1  0.5017480000000  0.4481010000000  0.5264410000000 1.0
END
