TITL C-2323480-5884-190 2.0063593379871e-06 125000 -365.283609027414 0 0 60 (D5d) n - 1
REM
REM in /home/bkarasulu/CARBON/AIRSS/Generating-Clusters/LCBOP/Higher-Symm/Only-C60/SD-CG/FIRE-HFTN
REM
REM
REM
REM
REM
REM ./C.cell (50c204cfd26239f34c78669fe23a5462)
REM
REM compiler GCC version 9.2.1 20190827 (Red Hat 9.2.1-1)
REM options -cpp -mtune=generic -march=x86-64 -g -O0 -fpre-include=/usr/include/finclude/math-vector-fortran.h
REM seed 1824724327 105780424 -620888463 1862775814 -309691709 -1142159004 232048651 -1964507340 2044555022 -179133421 -1372212833 -642677676 1400746193 1051803768 -1130509624 -14597732 1172963323 1376390478 -951045112 -900546729 210434004 258141379 -534431585 -1251873354 1710846485 -1392542005 -1660663135 -618995952 -2077753560 1156800601 -403814059 2021990884 -769668329
REM
CELL 1.54180   50.00000   50.00000   50.00000   90.00000   90.00000   90.00000
LATT -1
SFAC C  
C      1  0.5495760000000  0.5195050000000  0.4511190000000 1.0
C      1  0.5286420000000  0.5449210000000  0.5488800000000 1.0
C      1  0.4967690000000  0.5531760000000  0.4511180000000 1.0
C      1  0.4661290000000  0.5411220000000  0.5488810000000 1.0
C      1  0.4484270000000  0.5133590000000  0.4511190000000 1.0
C      1  0.4504240000000  0.4804950000000  0.5488810000000 1.0
C      1  0.4713580000000  0.4550790000000  0.4511200000000 1.0
C      1  0.5032310000000  0.4468240000000  0.5488820000000 1.0
C      1  0.5338710000000  0.4588780000000  0.4511190000000 1.0
C      1  0.5515730000000  0.4866410000000  0.5488810000000 1.0
C      1  0.5208860000000  0.5860130000000  0.5253280000000 1.0
C      1  0.4663400000000  0.5818620000000  0.4746700000000 1.0
C      1  0.4246510000000  0.5464430000000  0.5253290000000 1.0
C      1  0.4117430000000  0.4932840000000  0.4746710000000 1.0
C      1  0.4325460000000  0.4426910000000  0.5253300000000 1.0
C      1  0.4791140000000  0.4139870000000  0.4746720000000 1.0
C      1  0.5336600000000  0.4181380000000  0.5253300000000 1.0
C      1  0.5753490000000  0.4535570000000  0.4746710000000 1.0
C      1  0.5882570000000  0.5067160000000  0.5253290000000 1.0
C      1  0.5674540000000  0.5573090000000  0.4746700000000 1.0
C      1  0.5464220000000  0.5463330000000  0.4590850000000 1.0
C      1  0.5103220000000  0.5647710000000  0.5409140000000 1.0
C      1  0.4702800000000  0.5584670000000  0.4590840000000 1.0
C      1  0.4415890000000  0.5298330000000  0.5409150000000 1.0
C      1  0.4352100000000  0.4898010000000  0.4590850000000 1.0
C      1  0.4535780000000  0.4536670000000  0.5409150000000 1.0
C      1  0.4896780000000  0.4352290000000  0.4590860000000 1.0
C      1  0.5297200000000  0.4415330000000  0.5409160000000 1.0
C      1  0.5584110000000  0.4701670000000  0.4590850000000 1.0
C      1  0.5647900000000  0.5101990000000  0.5409150000000 1.0
C      1  0.5243110000000  0.5938520000000  0.4999990000000 1.0
C      1  0.4645030000000  0.5902180000000  0.4999990000000 1.0
C      1  0.4182540000000  0.5521230000000  0.4999990000000 1.0
C      1  0.4032290000000  0.4941200000000  0.5000000000000 1.0
C      1  0.4251670000000  0.4383620000000  0.5000010000000 1.0
C      1  0.4756890000000  0.4061480000000  0.5000010000000 1.0
C      1  0.5354970000000  0.4097820000000  0.5000010000000 1.0
C      1  0.5817460000000  0.4478770000000  0.5000010000000 1.0
C      1  0.5967710000000  0.5058800000000  0.5000000000000 1.0
C      1  0.5748330000000  0.5616380000000  0.4999990000000 1.0
C      1  0.5224220000000  0.5616360000000  0.4590840000000 1.0
C      1  0.4819110000000  0.5630450000000  0.5409140000000 1.0
C      1  0.4483090000000  0.5403710000000  0.4590850000000 1.0
C      1  0.4344510000000  0.5022790000000  0.5409150000000 1.0
C      1  0.4456310000000  0.4633140000000  0.4590860000000 1.0
C      1  0.4775780000000  0.4383640000000  0.5409160000000 1.0
C      1  0.5180890000000  0.4369550000000  0.4590860000000 1.0
C      1  0.5516910000000  0.4596290000000  0.5409150000000 1.0
C      1  0.5655490000000  0.4977210000000  0.4590850000000 1.0
C      1  0.5543690000000  0.5366860000000  0.5409140000000 1.0
C      1  0.5691710000000  0.5552250000000  0.5253280000000 1.0
C      1  0.5235000000000  0.5853350000000  0.4746700000000 1.0
C      1  0.4688530000000  0.5828510000000  0.5253280000000 1.0
C      1  0.4261030000000  0.5487200000000  0.4746700000000 1.0
C      1  0.4115790000000  0.4959800000000  0.5253290000000 1.0
C      1  0.4308290000000  0.4447750000000  0.4746720000000 1.0
C      1  0.4765000000000  0.4146650000000  0.5253300000000 1.0
C      1  0.5311470000000  0.4171490000000  0.4746720000000 1.0
C      1  0.5738970000000  0.4512800000000  0.5253300000000 1.0
C      1  0.5884210000000  0.5040200000000  0.4746710000000 1.0
END
