TITL C-2323481-8605-411 1.41290488526778e-07 125000 -356.630088328904 0 0 60 (C3) n - 1
REM
REM in /home/bkarasulu/CARBON/AIRSS/Generating-Clusters/LCBOP/Higher-Symm/Only-C60/SD-CG/FIRE-HFTN
REM
REM
REM
REM
REM
REM ./C.cell (50c204cfd26239f34c78669fe23a5462)
REM
REM compiler GCC version 9.2.1 20190827 (Red Hat 9.2.1-1)
REM options -cpp -mtune=generic -march=x86-64 -g -O0 -fpre-include=/usr/include/finclude/math-vector-fortran.h
REM seed 1993706831 -1838664526 -951125135 -1386011596 345425163 -881870684 566168417 -661081823 -249280852 882602763 -716667302 374312590 291464529 -1915009084 1114655899 -665389415 448713053 -1266334957 586782240 -765248010 965893059 948200663 792456643 391109622 -265912605 1640760749 459236852 920529344 -638886428 -1406049199 -1980532375 -1453320797 -1554744148
REM
CELL 1.54180   50.00000   50.00000   50.00000   90.00000   90.00000   90.00000
LATT -1
SFAC C  
C      1  0.4723930000000  0.4961860000000  0.4449530000000 1.0
C      1  0.4661310000000  0.4961840000000  0.5514320000000 1.0
C      1  0.5614760000000  0.4961850000000  0.5036150000000 1.0
C      1  0.5276080000000  0.4961860000000  0.4449530000000 1.0
C      1  0.5338680000000  0.4961840000000  0.5514330000000 1.0
C      1  0.4385240000000  0.4961850000000  0.5036140000000 1.0
C      1  0.5280410000000  0.5659720000000  0.4682160000000 1.0
C      1  0.4584530000000  0.5659720000000  0.4916090000000 1.0
C      1  0.5135060000000  0.5659710000000  0.5401770000000 1.0
C      1  0.4719600000000  0.5659720000000  0.4682150000000 1.0
C      1  0.5415470000000  0.5659720000000  0.4916100000000 1.0
C      1  0.4864930000000  0.5659710000000  0.5401770000000 1.0
C      1  0.4692940000000  0.5424230000000  0.5358780000000 1.0
C      1  0.5464240000000  0.5424230000000  0.5086540000000 1.0
C      1  0.4842820000000  0.5424240000000  0.4554700000000 1.0
C      1  0.5307050000000  0.5424230000000  0.5358790000000 1.0
C      1  0.4535760000000  0.5424230000000  0.5086530000000 1.0
C      1  0.5157190000000  0.5424240000000  0.4554700000000 1.0
C      1  0.4477460000000  0.4499750000000  0.4933420000000 1.0
C      1  0.5203610000000  0.4499750000000  0.5485820000000 1.0
C      1  0.5318930000000  0.4499760000000  0.4580750000000 1.0
C      1  0.5522540000000  0.4499750000000  0.4933430000000 1.0
C      1  0.4796380000000  0.4499750000000  0.5485810000000 1.0
C      1  0.4681080000000  0.4499760000000  0.4580740000000 1.0
C      1  0.5268400000000  0.4720800000000  0.5641310000000 1.0
C      1  0.5421190000000  0.4720810000000  0.4446900000000 1.0
C      1  0.4310410000000  0.4720810000000  0.4911780000000 1.0
C      1  0.4731590000000  0.4720800000000  0.5641300000000 1.0
C      1  0.4578820000000  0.4720810000000  0.4446890000000 1.0
C      1  0.5689590000000  0.4720810000000  0.4911800000000 1.0
C      1  0.4858150000000  0.5155860000000  0.5403300000000 1.0
C      1  0.5420190000000  0.5155860000000  0.4921190000000 1.0
C      1  0.4721650000000  0.5155860000000  0.4675510000000 1.0
C      1  0.5141840000000  0.5155860000000  0.5403310000000 1.0
C      1  0.4579810000000  0.5155860000000  0.4921180000000 1.0
C      1  0.5278350000000  0.5155860000000  0.4675510000000 1.0
C      1  0.4715420000000  0.4380900000000  0.5004310000000 1.0
C      1  0.5146030000000  0.4380900000000  0.5244290000000 1.0
C      1  0.5138550000000  0.4380900000000  0.4751380000000 1.0
C      1  0.5284580000000  0.4380900000000  0.5004320000000 1.0
C      1  0.4853970000000  0.4380900000000  0.5244280000000 1.0
C      1  0.4861450000000  0.4380900000000  0.4751380000000 1.0
C      1  0.4863940000000  0.4737760000000  0.5892770000000 1.0
C      1  0.5841190000000  0.4737770000000  0.4671440000000 1.0
C      1  0.4294870000000  0.4737770000000  0.4435780000000 1.0
C      1  0.5136040000000  0.4737760000000  0.5892770000000 1.0
C      1  0.4158820000000  0.4737770000000  0.4671430000000 1.0
C      1  0.5705140000000  0.4737770000000  0.4435790000000 1.0
C      1  0.5144600000000  0.5087480000000  0.4221200000000 1.0
C      1  0.4253240000000  0.5087470000000  0.5264170000000 1.0
C      1  0.5602160000000  0.5087470000000  0.5514630000000 1.0
C      1  0.4855420000000  0.5087480000000  0.4221200000000 1.0
C      1  0.5746750000000  0.5087470000000  0.5264190000000 1.0
C      1  0.4397830000000  0.5087470000000  0.5514620000000 1.0
C      1  0.4471670000000  0.5371630000000  0.5574220000000 1.0
C      1  0.5761450000000  0.5371640000000  0.5170450000000 1.0
C      1  0.4766880000000  0.5371650000000  0.4255350000000 1.0
C      1  0.5528320000000  0.5371630000000  0.5574230000000 1.0
C      1  0.4238540000000  0.5371640000000  0.5170430000000 1.0
C      1  0.5233140000000  0.5371650000000  0.4255350000000 1.0
END
