TITL C-2323483-8886-403 55.8183414409005 125000 -356.873923431889 0 0 60 (C1) n - 1
REM
REM in /home/bkarasulu/CARBON/AIRSS/Generating-Clusters/LCBOP/Higher-Symm/Only-C60/SD-CG/FIRE-HFTN
REM
REM
REM
REM
REM
REM ./C.cell (50c204cfd26239f34c78669fe23a5462)
REM
REM compiler GCC version 9.2.1 20190827 (Red Hat 9.2.1-1)
REM options -cpp -mtune=generic -march=x86-64 -g -O0 -fpre-include=/usr/include/finclude/math-vector-fortran.h
REM seed -1207570231 1236030138 -53573797 1938329355 615540059 1973419829 -1094264507 1191183886 1208844018 -752563077 -1977973665 -1557866844 -72032857 -758280549 1170747093 1228995772 -1571632139 266098300 1266293535 1692872089 -1853750284 -286062175 -1382891660 -757193683 -160830032 -697755602 836101161 -361876176 637097522 -684964285 1336975520 1139417036 -630811467
REM
CELL 1.54180   50.00000   50.00000   50.00000   90.00000   90.00000   90.00000
LATT -1
SFAC C  
C      1  0.4938520000000  0.4787680000000  0.5862390000000 1.0
C      1  0.4427640000000  0.4753300000000  0.4183660000000 1.0
C      1  0.4759850000000  0.4702140000000  0.4805050000000 1.0
C      1  0.4783280000000  0.4944170000000  0.4642440000000 1.0
C      1  0.4926300000000  0.5407300000000  0.4677240000000 1.0
C      1  0.4707950000000  0.4725160000000  0.4205880000000 1.0
C      1  0.4633140000000  0.4064540000000  0.4854160000000 1.0
C      1  0.5319770000000  0.5722390000000  0.5378700000000 1.0
C      1  0.5471400000000  0.4527250000000  0.4699060000000 1.0
C      1  0.5532360000000  0.6439110000000  0.4634340000000 1.0
C      1  0.5246230000000  0.5570510000000  0.5836400000000 1.0
C      1  0.5192650000000  0.4470290000000  0.4652660000000 1.0
C      1  0.4424010000000  0.4462930000000  0.4552130000000 1.0
C      1  0.4683350000000  0.4060030000000  0.4584290000000 1.0
C      1  0.5932240000000  0.4004790000000  0.4912290000000 1.0
C      1  0.5233580000000  0.5527400000000  0.5557500000000 1.0
C      1  0.5138380000000  0.5452390000000  0.6052730000000 1.0
C      1  0.5229910000000  0.5092500000000  0.5298520000000 1.0
C      1  0.4758390000000  0.5200000000000  0.4761880000000 1.0
C      1  0.5433860000000  0.4473870000000  0.5390020000000 1.0
C      1  0.5522830000000  0.4249550000000  0.5518220000000 1.0
C      1  0.5575220000000  0.6594140000000  0.4429180000000 1.0
C      1  0.5004750000000  0.4559480000000  0.4846440000000 1.0
C      1  0.4980840000000  0.5234030000000  0.6068030000000 1.0
C      1  0.5472800000000  0.5104530000000  0.5150760000000 1.0
C      1  0.4631880000000  0.4291660000000  0.4425750000000 1.0
C      1  0.4546720000000  0.4294700000000  0.4977420000000 1.0
C      1  0.4524920000000  0.4531850000000  0.4815330000000 1.0
C      1  0.5506440000000  0.5301930000000  0.4957210000000 1.0
C      1  0.5487620000000  0.6279490000000  0.4841160000000 1.0
C      1  0.5570050000000  0.4739930000000  0.4536870000000 1.0
C      1  0.5437940000000  0.6110530000000  0.5039150000000 1.0
C      1  0.5142570000000  0.4805520000000  0.4328330000000 1.0
C      1  0.5611430000000  0.4437770000000  0.4927990000000 1.0
C      1  0.5408720000000  0.4884380000000  0.4372150000000 1.0
C      1  0.4006560000000  0.4991500000000  0.5235460000000 1.0
C      1  0.4003430000000  0.5443440000000  0.5307260000000 1.0
C      1  0.3741750000000  0.5074680000000  0.5270780000000 1.0
C      1  0.5393570000000  0.5454730000000  0.4771190000000 1.0
C      1  0.5196110000000  0.4608800000000  0.5470670000000 1.0
C      1  0.5122370000000  0.4831670000000  0.5314290000000 1.0
C      1  0.3739850000000  0.5349830000000  0.5314500000000 1.0
C      1  0.4822000000000  0.4454630000000  0.4283290000000 1.0
C      1  0.5578070000000  0.4587190000000  0.5168520000000 1.0
C      1  0.4586770000000  0.5236800000000  0.4979740000000 1.0
C      1  0.5112060000000  0.5284220000000  0.5470890000000 1.0
C      1  0.5382000000000  0.5925190000000  0.5220080000000 1.0
C      1  0.5093510000000  0.4511730000000  0.4381140000000 1.0
C      1  0.4898660000000  0.5066280000000  0.5856510000000 1.0
C      1  0.5066950000000  0.4598260000000  0.5720510000000 1.0
C      1  0.4279440000000  0.4627500000000  0.4374370000000 1.0
C      1  0.4628750000000  0.5215190000000  0.5461460000000 1.0
C      1  0.4872670000000  0.4909980000000  0.4366420000000 1.0
C      1  0.4869360000000  0.5196300000000  0.5601300000000 1.0
C      1  0.4189250000000  0.5221170000000  0.5256490000000 1.0
C      1  0.5167250000000  0.5543170000000  0.4631420000000 1.0
C      1  0.4467230000000  0.5225930000000  0.5232900000000 1.0
C      1  0.5180890000000  0.5752970000000  0.4457300000000 1.0
C      1  0.5778300000000  0.4215000000000  0.4917510000000 1.0
C      1  0.5625660000000  0.4866640000000  0.5160670000000 1.0
END
