TITL C-2323490-8774-399 5663.26994179739 125000 -342.976062352742 0 0 60 (C1) n - 1
REM
REM in /home/bkarasulu/CARBON/AIRSS/Generating-Clusters/LCBOP/Higher-Symm/Only-C60/SD-CG/FIRE-HFTN
REM
REM
REM
REM
REM
REM ./C.cell (50c204cfd26239f34c78669fe23a5462)
REM
REM compiler GCC version 9.2.1 20190827 (Red Hat 9.2.1-1)
REM options -cpp -mtune=generic -march=x86-64 -g -O0 -fpre-include=/usr/include/finclude/math-vector-fortran.h
REM seed -2023526825 1363764139 -1186811441 1987729542 -1691891629 261183527 320891185 -1766833612 484991096 1343799998 -780695967 954779123 -827639269 1042100986 -997697192 963886035 661147001 1167578692 1555391421 -970852363 -1213594873 -1857144256 -510923227 494638439 -1996123651 -560695750 1374335822 -1536938181 76827350 517760704 585439089 -833400531 1493118497
REM
CELL 1.54180   50.00000   50.00000   50.00000   90.00000   90.00000   90.00000
LATT -1
SFAC C  
C      1  0.4914060000000  0.5454890000000  0.5702070000000 1.0
C      1  0.5628990000000  0.5398290000000  0.4740470000000 1.0
C      1  0.4427760000000  0.5359890000000  0.4596880000000 1.0
C      1  0.4757930000000  0.4126660000000  0.5035030000000 1.0
C      1  0.5098600000000  0.4058340000000  0.5121830000000 1.0
C      1  0.5013120000000  0.4056390000000  0.4777250000000 1.0
C      1  0.5187750000000  0.5333670000000  0.4383200000000 1.0
C      1  0.4366170000000  0.5304560000000  0.5155440000000 1.0
C      1  0.5450900000000  0.5401430000000  0.5502910000000 1.0
C      1  0.5598800000000  0.4988640000000  0.5012610000000 1.0
C      1  0.4670850000000  0.4959820000000  0.4460870000000 1.0
C      1  0.4739990000000  0.5007930000000  0.5601640000000 1.0
C      1  0.5255680000000  0.4252200000000  0.5233530000000 1.0
C      1  0.5111100000000  0.4239430000000  0.4599070000000 1.0
C      1  0.4632010000000  0.4360710000000  0.5099660000000 1.0
C      1  0.4642640000000  0.5241440000000  0.4413920000000 1.0
C      1  0.4670460000000  0.5286690000000  0.5619830000000 1.0
C      1  0.5672300000000  0.5267270000000  0.5014910000000 1.0
C      1  0.4427740000000  0.5229590000000  0.4876580000000 1.0
C      1  0.5176390000000  0.5343060000000  0.5587530000000 1.0
C      1  0.5395840000000  0.5272980000000  0.4584970000000 1.0
C      1  0.4965760000000  0.4698740000000  0.4763070000000 1.0
C      1  0.4945090000000  0.4738500000000  0.5237630000000 1.0
C      1  0.5147910000000  0.4710830000000  0.5011790000000 1.0
C      1  0.4631220000000  0.4545960000000  0.5551760000000 1.0
C      1  0.5611010000000  0.4512980000000  0.5027790000000 1.0
C      1  0.4818690000000  0.4523480000000  0.4335640000000 1.0
C      1  0.5761200000000  0.5882050000000  0.4699010000000 1.0
C      1  0.4291020000000  0.5838250000000  0.4516910000000 1.0
C      1  0.4837970000000  0.5945410000000  0.5787570000000 1.0
C      1  0.5569070000000  0.4156040000000  0.4326580000000 1.0
C      1  0.4185580000000  0.4525130000000  0.4845810000000 1.0
C      1  0.5393800000000  0.4243890000000  0.5754790000000 1.0
C      1  0.4973260000000  0.5475740000000  0.5209600000000 1.0
C      1  0.5163420000000  0.5469200000000  0.4914710000000 1.0
C      1  0.4822900000000  0.5441160000000  0.4881890000000 1.0
C      1  0.4715500000000  0.5159100000000  0.4883480000000 1.0
C      1  0.5061210000000  0.5226800000000  0.5341680000000 1.0
C      1  0.5233380000000  0.5197720000000  0.4818580000000 1.0
C      1  0.4911240000000  0.5352130000000  0.4347940000000 1.0
C      1  0.4470600000000  0.5351890000000  0.5409270000000 1.0
C      1  0.5612450000000  0.5389200000000  0.5277260000000 1.0
C      1  0.5334630000000  0.4238160000000  0.5501060000000 1.0
C      1  0.5343310000000  0.4189660000000  0.4452330000000 1.0
C      1  0.4393160000000  0.4434330000000  0.4974570000000 1.0
C      1  0.5315390000000  0.4964880000000  0.4958040000000 1.0
C      1  0.4785250000000  0.4924960000000  0.4726620000000 1.0
C      1  0.4931690000000  0.4979920000000  0.5385340000000 1.0
C      1  0.4974780000000  0.4485430000000  0.4568550000000 1.0
C      1  0.4746560000000  0.4534150000000  0.5292760000000 1.0
C      1  0.5333870000000  0.4476050000000  0.5075310000000 1.0
C      1  0.4622210000000  0.4773510000000  0.5697470000000 1.0
C      1  0.5740640000000  0.4749170000000  0.5023460000000 1.0
C      1  0.4670310000000  0.4742730000000  0.4286370000000 1.0
C      1  0.4884070000000  0.5733300000000  0.5626340000000 1.0
C      1  0.5587140000000  0.5684720000000  0.4761870000000 1.0
C      1  0.4452220000000  0.5647720000000  0.4620690000000 1.0
C      1  0.4686800000000  0.5677750000000  0.4780310000000 1.0
C      1  0.4915490000000  0.5727450000000  0.5342530000000 1.0
C      1  0.5321110000000  0.5708040000000  0.4863460000000 1.0
END
