TITL C-2323481-8605-232 -4.72220187049282e-05 125000 -348.146788112727 0 0 60 (C1) n - 1
REM
REM in /home/bkarasulu/CARBON/AIRSS/Generating-Clusters/LCBOP/Higher-Symm/Only-C60/SD-CG/FIRE-HFTN
REM
REM
REM
REM
REM
REM ./C.cell (50c204cfd26239f34c78669fe23a5462)
REM
REM compiler GCC version 9.2.1 20190827 (Red Hat 9.2.1-1)
REM options -cpp -mtune=generic -march=x86-64 -g -O0 -fpre-include=/usr/include/finclude/math-vector-fortran.h
REM seed 1587444443 1784869533 1128836100 1373140778 174621491 2955092 713749014 -1955233393 890052580 -1208384978 274371146 -1920552182 1556595133 1072797630 2026709495 118859221 -663663324 467431001 1726897428 -510229647 -1925580165 -1544364944 -1584586155 2097486372 879865564 -503030043 1159182916 89359845 1342766258 1966188489 -2001913501 -560777051 830772174
REM
CELL 1.54180   50.00000   50.00000   50.00000   90.00000   90.00000   90.00000
LATT -1
SFAC C  
C      1  0.4732140000000  0.5619130000000  0.5645400000000 1.0
C      1  0.5115750000000  0.4419440000000  0.4211420000000 1.0
C      1  0.4205760000000  0.4344570000000  0.5486140000000 1.0
C      1  0.5763510000000  0.5662990000000  0.4595330000000 1.0
C      1  0.4591280000000  0.5252120000000  0.4842260000000 1.0
C      1  0.5428040000000  0.4748520000000  0.5151840000000 1.0
C      1  0.4792190000000  0.5125800000000  0.4440040000000 1.0
C      1  0.5206590000000  0.4857420000000  0.5552920000000 1.0
C      1  0.4948210000000  0.4204510000000  0.5410020000000 1.0
C      1  0.5047780000000  0.5783680000000  0.4517760000000 1.0
C      1  0.5079360000000  0.4426650000000  0.5349350000000 1.0
C      1  0.4931940000000  0.5563700000000  0.4609570000000 1.0
C      1  0.4653770000000  0.4563770000000  0.4706890000000 1.0
C      1  0.5321630000000  0.5452070000000  0.5329120000000 1.0
C      1  0.5063320000000  0.5120330000000  0.5042780000000 1.0
C      1  0.4960550000000  0.4887280000000  0.4948520000000 1.0
C      1  0.5007300000000  0.5678130000000  0.5679240000000 1.0
C      1  0.4860480000000  0.4363020000000  0.4271750000000 1.0
C      1  0.4749140000000  0.5759000000000  0.5192140000000 1.0
C      1  0.5284370000000  0.4247250000000  0.4787730000000 1.0
C      1  0.5564230000000  0.5177320000000  0.4617550000000 1.0
C      1  0.4435220000000  0.4796970000000  0.5348240000000 1.0
C      1  0.4361110000000  0.5171430000000  0.4657130000000 1.0
C      1  0.5641010000000  0.4853550000000  0.5344470000000 1.0
C      1  0.5089350000000  0.4421390000000  0.4839720000000 1.0
C      1  0.4937710000000  0.5596510000000  0.5092330000000 1.0
C      1  0.4211150000000  0.5318420000000  0.5091500000000 1.0
C      1  0.5825300000000  0.4721090000000  0.4922520000000 1.0
C      1  0.5265320000000  0.4842260000000  0.4444170000000 1.0
C      1  0.4726390000000  0.5118590000000  0.5555350000000 1.0
C      1  0.5450120000000  0.4921830000000  0.4649270000000 1.0
C      1  0.4560260000000  0.5047820000000  0.5332720000000 1.0
C      1  0.5791000000000  0.4264440000000  0.4731140000000 1.0
C      1  0.4312090000000  0.5707520000000  0.5393010000000 1.0
C      1  0.4898000000000  0.4629950000000  0.4841730000000 1.0
C      1  0.5116280000000  0.5382430000000  0.5141270000000 1.0
C      1  0.4319930000000  0.4568990000000  0.5418670000000 1.0
C      1  0.5663730000000  0.5422230000000  0.4600760000000 1.0
C      1  0.5586950000000  0.5426770000000  0.5271090000000 1.0
C      1  0.4407360000000  0.4599050000000  0.4818030000000 1.0
C      1  0.5210970000000  0.4670120000000  0.5327470000000 1.0
C      1  0.4803100000000  0.5322260000000  0.4657250000000 1.0
C      1  0.4133780000000  0.5239020000000  0.4822200000000 1.0
C      1  0.5880730000000  0.4819500000000  0.5189620000000 1.0
C      1  0.4504610000000  0.5074960000000  0.4424100000000 1.0
C      1  0.5487600000000  0.4929060000000  0.5576720000000 1.0
C      1  0.5231860000000  0.5588230000000  0.5560840000000 1.0
C      1  0.4681520000000  0.4434260000000  0.4457630000000 1.0
C      1  0.4662610000000  0.5351420000000  0.5700190000000 1.0
C      1  0.5291730000000  0.4603810000000  0.4296550000000 1.0
C      1  0.4492010000000  0.5219340000000  0.5114400000000 1.0
C      1  0.5534440000000  0.4775430000000  0.4880690000000 1.0
C      1  0.4590770000000  0.5738890000000  0.5425790000000 1.0
C      1  0.5537340000000  0.4178510000000  0.4737240000000 1.0
C      1  0.4152570000000  0.5536850000000  0.5257580000000 1.0
C      1  0.5922660000000  0.4489020000000  0.4799220000000 1.0
C      1  0.4965290000000  0.4981510000000  0.5616650000000 1.0
C      1  0.5031830000000  0.4993680000000  0.4384540000000 1.0
C      1  0.5160490000000  0.6002450000000  0.4431810000000 1.0
C      1  0.4818470000000  0.3983720000000  0.5458660000000 1.0
END
