TITL C-2323485-8600-324 79.6754100440805 125000 -346.055749207729 0 0 60 (C1) n - 1
REM
REM in /home/bkarasulu/CARBON/AIRSS/Generating-Clusters/LCBOP/Higher-Symm/Only-C60/SD-CG/FIRE-HFTN
REM
REM
REM
REM
REM
REM ./C.cell (50c204cfd26239f34c78669fe23a5462)
REM
REM compiler GCC version 9.2.1 20190827 (Red Hat 9.2.1-1)
REM options -cpp -mtune=generic -march=x86-64 -g -O0 -fpre-include=/usr/include/finclude/math-vector-fortran.h
REM seed 1625249813 987867280 844486028 180633595 574506467 2053796794 704505635 -340303431 -1201832873 1006676290 634486620 -36485684 343258173 -73883097 575360778 -1657258950 -350896356 -1405846524 -706494694 1312555281 -632196858 -1742275117 715570008 620758087 -1887709525 -1343071841 876366245 -2079785978 -972121427 -1678139955 1348176745 -1899479204 483701739
REM
CELL 1.54180   50.00000   50.00000   50.00000   90.00000   90.00000   90.00000
LATT -1
SFAC C  
C      1  0.5470390000000  0.4441660000000  0.4819810000000 1.0
C      1  0.4131600000000  0.5215520000000  0.4868470000000 1.0
C      1  0.5192970000000  0.4401720000000  0.4147680000000 1.0
C      1  0.3460040000000  0.4981140000000  0.5012630000000 1.0
C      1  0.4146950000000  0.4747530000000  0.4986220000000 1.0
C      1  0.4994780000000  0.4375800000000  0.4833090000000 1.0
C      1  0.4097250000000  0.6166110000000  0.4638860000000 1.0
C      1  0.6469350000000  0.6490260000000  0.5698500000000 1.0
C      1  0.5678020000000  0.5379600000000  0.5066830000000 1.0
C      1  0.5007010000000  0.5223060000000  0.4991240000000 1.0
C      1  0.5065170000000  0.4996550000000  0.5145290000000 1.0
C      1  0.5744480000000  0.5272040000000  0.4816810000000 1.0
C      1  0.5862930000000  0.5376740000000  0.5281950000000 1.0
C      1  0.4834150000000  0.5204910000000  0.4766650000000 1.0
C      1  0.5647850000000  0.5167060000000  0.4592150000000 1.0
C      1  0.5235470000000  0.4861890000000  0.5298660000000 1.0
C      1  0.4907370000000  0.5047430000000  0.4540750000000 1.0
C      1  0.5923170000000  0.5130840000000  0.5413170000000 1.0
C      1  0.5147550000000  0.4428140000000  0.3892350000000 1.0
C      1  0.3201370000000  0.4981020000000  0.5045040000000 1.0
C      1  0.4749490000000  0.4351630000000  0.4929880000000 1.0
C      1  0.4309830000000  0.4539610000000  0.5004630000000 1.0
C      1  0.6933930000000  0.4963200000000  0.5733920000000 1.0
C      1  0.4234190000000  0.4265000000000  0.4313830000000 1.0
C      1  0.5233250000000  0.4402280000000  0.4689480000000 1.0
C      1  0.3999940000000  0.4981490000000  0.4944920000000 1.0
C      1  0.5982930000000  0.5614440000000  0.5365900000000 1.0
C      1  0.4587680000000  0.5336020000000  0.4770100000000 1.0
C      1  0.4239620000000  0.5671720000000  0.4746520000000 1.0
C      1  0.6226220000000  0.6054670000000  0.5532430000000 1.0
C      1  0.4167190000000  0.5920900000000  0.4693090000000 1.0
C      1  0.6348790000000  0.6274270000000  0.5616150000000 1.0
C      1  0.5225810000000  0.4388820000000  0.4410260000000 1.0
C      1  0.3722940000000  0.4981230000000  0.4979700000000 1.0
C      1  0.4388820000000  0.4480290000000  0.4313170000000 1.0
C      1  0.6683540000000  0.4999700000000  0.5654980000000 1.0
C      1  0.4549630000000  0.4687760000000  0.4349480000000 1.0
C      1  0.6433230000000  0.5036230000000  0.5576070000000 1.0
C      1  0.6183470000000  0.5075500000000  0.5497110000000 1.0
C      1  0.4720440000000  0.4876010000000  0.4423940000000 1.0
C      1  0.6103710000000  0.5835110000000  0.5448730000000 1.0
C      1  0.4319310000000  0.5408680000000  0.4794900000000 1.0
C      1  0.7180210000000  0.4927300000000  0.5811550000000 1.0
C      1  0.4085930000000  0.4051430000000  0.4332970000000 1.0
C      1  0.5475470000000  0.4845080000000  0.5411750000000 1.0
C      1  0.5431600000000  0.5092730000000  0.4456430000000 1.0
C      1  0.5168630000000  0.5059020000000  0.4441850000000 1.0
C      1  0.5718590000000  0.4944000000000  0.5452640000000 1.0
C      1  0.4045670000000  0.3336710000000  0.5019480000000 1.0
C      1  0.5414190000000  0.5468440000000  0.5101230000000 1.0
C      1  0.4518610000000  0.6328750000000  0.5197500000000 1.0
C      1  0.4373890000000  0.4060510000000  0.5020270000000 1.0
C      1  0.4478110000000  0.4317430000000  0.4986500000000 1.0
C      1  0.4266950000000  0.3818290000000  0.5027300000000 1.0
C      1  0.4156640000000  0.3577370000000  0.5024340000000 1.0
C      1  0.5136860000000  0.5468030000000  0.5059510000000 1.0
C      1  0.4989190000000  0.5702760000000  0.5089990000000 1.0
C      1  0.4674250000000  0.6123530000000  0.5157190000000 1.0
C      1  0.3936470000000  0.3100030000000  0.5014530000000 1.0
C      1  0.4833310000000  0.5914740000000  0.5120320000000 1.0
END
