TITL C-2323487-9546-200 -0.00152201529116476 125000 -346.680729990608 0 0 60 (C1) n - 1
REM
REM in /home/bkarasulu/CARBON/AIRSS/Generating-Clusters/LCBOP/Higher-Symm/Only-C60/SD-CG/FIRE-HFTN
REM
REM
REM
REM
REM
REM ./C.cell (50c204cfd26239f34c78669fe23a5462)
REM
REM compiler GCC version 9.2.1 20190827 (Red Hat 9.2.1-1)
REM options -cpp -mtune=generic -march=x86-64 -g -O0 -fpre-include=/usr/include/finclude/math-vector-fortran.h
REM seed 52354698 993958352 531378204 895687815 1718402592 832241965 -307387431 1456428362 -331861578 -469867654 -1766827208 -938726336 -513871101 1520228836 547310190 -155112019 1726379945 1282775694 590841385 -1017993774 1921319614 1064190025 -1042076940 1306940454 1740008503 -122857652 68008069 389192759 212177954 -1182232993 -413282367 739447744 -1944002971
REM
CELL 1.54180   50.00000   50.00000   50.00000   90.00000   90.00000   90.00000
LATT -1
SFAC C  
C      1  0.5550340000000  0.5267920000000  0.5082490000000 1.0
C      1  0.5622920000000  0.4959140000000  0.4689370000000 1.0
C      1  0.5565250000000  0.4781080000000  0.5158570000000 1.0
C      1  0.5588970000000  0.4924290000000  0.4407140000000 1.0
C      1  0.5365860000000  0.4626180000000  0.5290710000000 1.0
C      1  0.5351220000000  0.5457020000000  0.5157140000000 1.0
C      1  0.4669190000000  0.4826230000000  0.5202800000000 1.0
C      1  0.4634560000000  0.5120130000000  0.5105750000000 1.0
C      1  0.4639140000000  0.5034340000000  0.4810700000000 1.0
C      1  0.5253190000000  0.5133640000000  0.5743360000000 1.0
C      1  0.5205660000000  0.5574650000000  0.4495450000000 1.0
C      1  0.5225350000000  0.4267790000000  0.4770490000000 1.0
C      1  0.4943380000000  0.5690430000000  0.4619820000000 1.0
C      1  0.4948480000000  0.4332720000000  0.4636200000000 1.0
C      1  0.4980130000000  0.4981290000000  0.5787100000000 1.0
C      1  0.4631520000000  0.4789390000000  0.5500130000000 1.0
C      1  0.4622980000000  0.5480140000000  0.4957150000000 1.0
C      1  0.4619780000000  0.4731000000000  0.4610200000000 1.0
C      1  0.5090350000000  0.5000720000000  0.5333880000000 1.0
C      1  0.5084140000000  0.5290030000000  0.4807420000000 1.0
C      1  0.5057840000000  0.4819510000000  0.4839960000000 1.0
C      1  0.4706400000000  0.5040230000000  0.5664260000000 1.0
C      1  0.4693190000000  0.5536190000000  0.4659050000000 1.0
C      1  0.4684640000000  0.4447070000000  0.4739690000000 1.0
C      1  0.4604170000000  0.5563230000000  0.5463810000000 1.0
C      1  0.4661770000000  0.5133290000000  0.4294250000000 1.0
C      1  0.4585520000000  0.4321430000000  0.5288800000000 1.0
C      1  0.4895570000000  0.5814890000000  0.5147680000000 1.0
C      1  0.4948250000000  0.4722950000000  0.4252180000000 1.0
C      1  0.4927100000000  0.4452860000000  0.5628810000000 1.0
C      1  0.5138160000000  0.5465400000000  0.5358650000000 1.0
C      1  0.5413990000000  0.4915010000000  0.4201550000000 1.0
C      1  0.5139490000000  0.4467800000000  0.5189400000000 1.0
C      1  0.4447550000000  0.4676430000000  0.5059890000000 1.0
C      1  0.4428560000000  0.5189470000000  0.5306450000000 1.0
C      1  0.4421350000000  0.5179200000000  0.4669790000000 1.0
C      1  0.5436560000000  0.5425360000000  0.4582380000000 1.0
C      1  0.5404900000000  0.4515430000000  0.4762820000000 1.0
C      1  0.5479790000000  0.5123360000000  0.5562640000000 1.0
C      1  0.4569460000000  0.5340450000000  0.4477220000000 1.0
C      1  0.4547290000000  0.4409140000000  0.5006800000000 1.0
C      1  0.4559440000000  0.5285850000000  0.5549420000000 1.0
C      1  0.4656930000000  0.4495230000000  0.5528140000000 1.0
C      1  0.4653290000000  0.5654180000000  0.5181730000000 1.0
C      1  0.4706170000000  0.4847050000000  0.4345130000000 1.0
C      1  0.5058270000000  0.4305170000000  0.5413060000000 1.0
C      1  0.5049710000000  0.5736150000000  0.5381340000000 1.0
C      1  0.5161520000000  0.4857620000000  0.4120480000000 1.0
C      1  0.5034400000000  0.5754400000000  0.4897020000000 1.0
C      1  0.5044910000000  0.4547570000000  0.4450840000000 1.0
C      1  0.5063990000000  0.4703560000000  0.5697880000000 1.0
C      1  0.5569500000000  0.5231480000000  0.4784640000000 1.0
C      1  0.5591760000000  0.4724620000000  0.4873420000000 1.0
C      1  0.5583950000000  0.5055210000000  0.5278330000000 1.0
C      1  0.5197340000000  0.5520970000000  0.4931840000000 1.0
C      1  0.5208140000000  0.4692010000000  0.4640970000000 1.0
C      1  0.5221020000000  0.4787640000000  0.5471300000000 1.0
C      1  0.4960180000000  0.5238010000000  0.5289400000000 1.0
C      1  0.4934960000000  0.5061760000000  0.4775740000000 1.0
C      1  0.4960540000000  0.4674670000000  0.5067360000000 1.0
END
