TITL C-2323492-8884-78 4.04853254436439e-06 125000 -349.25125936088 0 0 60 (C2) n - 1
REM
REM in /home/bkarasulu/CARBON/AIRSS/Generating-Clusters/LCBOP/Higher-Symm/Only-C60/SD-CG/FIRE-HFTN
REM
REM
REM
REM
REM
REM ./C.cell (50c204cfd26239f34c78669fe23a5462)
REM
REM compiler GCC version 9.2.1 20190827 (Red Hat 9.2.1-1)
REM options -cpp -mtune=generic -march=x86-64 -g -O0 -fpre-include=/usr/include/finclude/math-vector-fortran.h
REM seed -161638398 -1017034675 1009228898 535332003 -817369475 -1266832534 856334647 1180488263 461655022 1824127420 1116602722 1978279244 -989894061 187312589 457545850 574831121 -332258993 -1325374565 496639723 539219637 -1572478410 -837524158 -1990888770 1737613747 646018098 -2097553527 1643681587 830476502 -731975786 -1394518008 -1568728081 12760896 1409636119
REM
CELL 1.54180   50.00000   50.00000   50.00000   90.00000   90.00000   90.00000
LATT -1
SFAC C  
C      1  0.5131570000000  0.4761870000000  0.5042530000000 1.0
C      1  0.4868670000000  0.4761740000000  0.4957450000000 1.0
C      1  0.4425950000000  0.5242430000000  0.5011470000000 1.0
C      1  0.5573810000000  0.5243010000000  0.4988550000000 1.0
C      1  0.5209810000000  0.5110770000000  0.5383840000000 1.0
C      1  0.4790070000000  0.5110590000000  0.4616170000000 1.0
C      1  0.5081660000000  0.4532520000000  0.5521390000000 1.0
C      1  0.4918810000000  0.4532480000000  0.4478570000000 1.0
C      1  0.4434470000000  0.4516320000000  0.4990690000000 1.0
C      1  0.5566020000000  0.4516890000000  0.5009270000000 1.0
C      1  0.4219570000000  0.5597460000000  0.4727950000000 1.0
C      1  0.5779820000000  0.5598230000000  0.5272100000000 1.0
C      1  0.5202110000000  0.5225290000000  0.4438960000000 1.0
C      1  0.4797660000000  0.5225040000000  0.5561060000000 1.0
C      1  0.4942430000000  0.5571490000000  0.4648510000000 1.0
C      1  0.5056990000000  0.5571520000000  0.5351540000000 1.0
C      1  0.4432870000000  0.4873520000000  0.5346530000000 1.0
C      1  0.5567260000000  0.4874130000000  0.4653460000000 1.0
C      1  0.5702240000000  0.4758490000000  0.5117680000000 1.0
C      1  0.4298000000000  0.4757780000000  0.4882300000000 1.0
C      1  0.4430920000000  0.4358690000000  0.5220520000000 1.0
C      1  0.5569730000000  0.4359290000000  0.4779430000000 1.0
C      1  0.5096590000000  0.4760410000000  0.4425100000000 1.0
C      1  0.4903660000000  0.4760270000000  0.5574880000000 1.0
C      1  0.5968650000000  0.5771450000000  0.5319510000000 1.0
C      1  0.4030570000000  0.5770490000000  0.4680550000000 1.0
C      1  0.4934460000000  0.5748120000000  0.4883560000000 1.0
C      1  0.5064780000000  0.5748180000000  0.5116500000000 1.0
C      1  0.5093270000000  0.4329910000000  0.4620000000000 1.0
C      1  0.4907410000000  0.4329780000000  0.5379940000000 1.0
C      1  0.4395890000000  0.4737560000000  0.4592670000000 1.0
C      1  0.5604370000000  0.4738140000000  0.5407310000000 1.0
C      1  0.4326190000000  0.4974070000000  0.5083190000000 1.0
C      1  0.5673830000000  0.4974770000000  0.4916800000000 1.0
C      1  0.4653070000000  0.4583090000000  0.4579700000000 1.0
C      1  0.5347360000000  0.4583410000000  0.5420260000000 1.0
C      1  0.4978320000000  0.4194890000000  0.5134940000000 1.0
C      1  0.5022500000000  0.4194920000000  0.4864990000000 1.0
C      1  0.4799660000000  0.5031620000000  0.4892910000000 1.0
C      1  0.5200310000000  0.5031810000000  0.5107090000000 1.0
C      1  0.5001710000000  0.5024510000000  0.4435470000000 1.0
C      1  0.4998260000000  0.5024460000000  0.5564530000000 1.0
C      1  0.5324460000000  0.5395810000000  0.5411880000000 1.0
C      1  0.4675140000000  0.5395510000000  0.4588150000000 1.0
C      1  0.5371050000000  0.4420840000000  0.4589390000000 1.0
C      1  0.4629540000000  0.4420430000000  0.5410560000000 1.0
C      1  0.4626870000000  0.4705160000000  0.5486070000000 1.0
C      1  0.5373430000000  0.4705580000000  0.4513900000000 1.0
C      1  0.5289270000000  0.5233740000000  0.4913380000000 1.0
C      1  0.4710490000000  0.5233440000000  0.5086640000000 1.0
C      1  0.4814540000000  0.5375590000000  0.5315950000000 1.0
C      1  0.5185070000000  0.5375810000000  0.4684080000000 1.0
C      1  0.4696150000000  0.4556070000000  0.4871260000000 1.0
C      1  0.5304300000000  0.4556360000000  0.5128700000000 1.0
C      1  0.4580000000000  0.5446820000000  0.4303510000000 1.0
C      1  0.5419540000000  0.5447190000000  0.5696530000000 1.0
C      1  0.5575250000000  0.5416790000000  0.5221470000000 1.0
C      1  0.4424320000000  0.5416220000000  0.4778570000000 1.0
C      1  0.4994280000000  0.5743620000000  0.4399620000000 1.0
C      1  0.5004960000000  0.5743580000000  0.5600440000000 1.0
END
