TITL C-2323478-8180-26 2.05555538423119e-08 125000 -297.277567064062 0 0 60 (Td) n - 1
REM
REM in /home/bkarasulu/CARBON/AIRSS/Generating-Clusters/LCBOP/Higher-Symm/Only-C60/SD-CG/FIRE-HFTN
REM
REM
REM
REM
REM
REM ./C.cell (50c204cfd26239f34c78669fe23a5462)
REM
REM compiler GCC version 9.2.1 20190827 (Red Hat 9.2.1-1)
REM options -cpp -mtune=generic -march=x86-64 -g -O0 -fpre-include=/usr/include/finclude/math-vector-fortran.h
REM seed -684851692 697071360 -1791258206 -253060081 -939107865 1564824407 1431391116 -1812481611 293624975 -1614826348 -1193715202 1887091077 -1204387349 -578292442 -654382690 -1127598026 807360572 -2094474162 -584692252 1606082669 -1071184378 -1372697285 789849270 -1385336838 -1916718890 2122062206 -487718499 238146768 -1665454814 300230990 -1799173254 -1762850548 -758012436
REM
CELL 1.54180   50.00000   50.00000   50.00000   90.00000   90.00000   90.00000
LATT -1
SFAC C  
C      1  0.5710740000000  0.4925530000000  0.5322460000000 1.0
C      1  0.4925300000000  0.5320580000000  0.5706290000000 1.0
C      1  0.5323870000000  0.5706470000000  0.4925780000000 1.0
C      1  0.4291170000000  0.4922750000000  0.4680080000000 1.0
C      1  0.4285410000000  0.5069180000000  0.5323840000000 1.0
C      1  0.5709580000000  0.5076770000000  0.4677160000000 1.0
C      1  0.5069500000000  0.5321770000000  0.4288520000000 1.0
C      1  0.5068530000000  0.4677850000000  0.5713370000000 1.0
C      1  0.4929830000000  0.4679630000000  0.4286650000000 1.0
C      1  0.4678520000000  0.5705710000000  0.5075650000000 1.0
C      1  0.4679370000000  0.4293400000000  0.4925150000000 1.0
C      1  0.5322480000000  0.4292810000000  0.5070480000000 1.0
C      1  0.5319760000000  0.4924080000000  0.5707860000000 1.0
C      1  0.5715120000000  0.5320780000000  0.4930560000000 1.0
C      1  0.4931340000000  0.5711470000000  0.5320340000000 1.0
C      1  0.4677910000000  0.4925670000000  0.4290580000000 1.0
C      1  0.5321450000000  0.5075720000000  0.4288920000000 1.0
C      1  0.4676650000000  0.5071410000000  0.5710940000000 1.0
C      1  0.4289630000000  0.5318300000000  0.5075010000000 1.0
C      1  0.5713030000000  0.4680400000000  0.5069600000000 1.0
C      1  0.4285380000000  0.4676320000000  0.4931160000000 1.0
C      1  0.5071390000000  0.5707910000000  0.4680350000000 1.0
C      1  0.4929510000000  0.4292220000000  0.4677460000000 1.0
C      1  0.5074560000000  0.4293790000000  0.5320410000000 1.0
C      1  0.4852480000000  0.5546870000000  0.4653920000000 1.0
C      1  0.5551140000000  0.4654760000000  0.4851220000000 1.0
C      1  0.4649010000000  0.4851710000000  0.5551250000000 1.0
C      1  0.5148970000000  0.5548740000000  0.5347300000000 1.0
C      1  0.5148360000000  0.4453170000000  0.4650230000000 1.0
C      1  0.4853090000000  0.4451430000000  0.5347660000000 1.0
C      1  0.4447790000000  0.4649990000000  0.5149110000000 1.0
C      1  0.4450380000000  0.5344130000000  0.4855560000000 1.0
C      1  0.5552500000000  0.5346980000000  0.5148350000000 1.0
C      1  0.5348800000000  0.4855880000000  0.4448840000000 1.0
C      1  0.5347090000000  0.5144440000000  0.5548610000000 1.0
C      1  0.4651330000000  0.5144670000000  0.4451830000000 1.0
C      1  0.4651890000000  0.5545770000000  0.4855720000000 1.0
C      1  0.4850610000000  0.4651010000000  0.5551030000000 1.0
C      1  0.5550250000000  0.4856410000000  0.4650460000000 1.0
C      1  0.5350560000000  0.5547860000000  0.5146610000000 1.0
C      1  0.4651800000000  0.4451050000000  0.5146570000000 1.0
C      1  0.5349520000000  0.4453570000000  0.4851460000000 1.0
C      1  0.5148360000000  0.4653990000000  0.4448310000000 1.0
C      1  0.4851730000000  0.5346630000000  0.4451350000000 1.0
C      1  0.5146370000000  0.5346160000000  0.5547770000000 1.0
C      1  0.4447020000000  0.4850770000000  0.5350640000000 1.0
C      1  0.5550410000000  0.5145190000000  0.5348820000000 1.0
C      1  0.4450560000000  0.5143170000000  0.4654150000000 1.0
C      1  0.5429520000000  0.5419790000000  0.4317620000000 1.0
C      1  0.5417740000000  0.4324380000000  0.5430960000000 1.0
C      1  0.4572320000000  0.5676730000000  0.5420520000000 1.0
C      1  0.5431360000000  0.5676670000000  0.4581910000000 1.0
C      1  0.4317890000000  0.5429560000000  0.5418490000000 1.0
C      1  0.5677070000000  0.5421680000000  0.4571880000000 1.0
C      1  0.4322750000000  0.4578460000000  0.4571920000000 1.0
C      1  0.5682270000000  0.4581180000000  0.5429310000000 1.0
C      1  0.5427710000000  0.4579630000000  0.5676410000000 1.0
C      1  0.4582150000000  0.5431720000000  0.5676010000000 1.0
C      1  0.4570080000000  0.4581330000000  0.4317710000000 1.0
C      1  0.4569090000000  0.4324010000000  0.4581870000000 1.0
END
