TITL C-2323489-8765-10 335598.047275505 125000 -328.529262834403 0 0 60 (C1) n - 1
REM
REM in /home/bkarasulu/CARBON/AIRSS/Generating-Clusters/LCBOP/Higher-Symm/Only-C60/SD-CG/FIRE-HFTN
REM
REM
REM
REM
REM
REM ./C.cell (50c204cfd26239f34c78669fe23a5462)
REM
REM compiler GCC version 9.2.1 20190827 (Red Hat 9.2.1-1)
REM options -cpp -mtune=generic -march=x86-64 -g -O0 -fpre-include=/usr/include/finclude/math-vector-fortran.h
REM seed -1184013176 1738569360 -1293780607 -755957232 -1703058280 753191997 125399463 1872631371 -13808163 -1183152507 1344610900 277339112 -1579798617 -1938253943 300615483 1163600611 1751869606 1247520380 980311411 1140129764 1819993511 709715398 1701565292 1272453516 -393344795 -1331695006 -1755823154 1205601983 737541685 -904279579 -1376234290 -8681970 40880637
REM
CELL 1.54180   50.00000   50.00000   50.00000   90.00000   90.00000   90.00000
LATT -1
SFAC C  
C      1  0.4579450000000  0.5247800000000  0.4986000000000 1.0
C      1  0.4965790000000  0.4587100000000  0.5228430000000 1.0
C      1  0.5253220000000  0.4987170000000  0.4548650000000 1.0
C      1  0.5415530000000  0.4765560000000  0.4965240000000 1.0
C      1  0.5453070000000  0.5252470000000  0.4995910000000 1.0
C      1  0.4549960000000  0.4760430000000  0.5015840000000 1.0
C      1  0.5045190000000  0.5424830000000  0.5226310000000 1.0
C      1  0.4985210000000  0.4552880000000  0.4741620000000 1.0
C      1  0.5003450000000  0.5454400000000  0.4740860000000 1.0
C      1  0.4770290000000  0.5043480000000  0.4583690000000 1.0
C      1  0.4744800000000  0.5011930000000  0.5456000000000 1.0
C      1  0.5234250000000  0.5017990000000  0.5418030000000 1.0
C      1  0.5244650000000  0.4554710000000  0.4987170000000 1.0
C      1  0.4546230000000  0.5013980000000  0.5267490000000 1.0
C      1  0.4982640000000  0.5236430000000  0.4577900000000 1.0
C      1  0.4753220000000  0.5457540000000  0.5001850000000 1.0
C      1  0.5242620000000  0.5424950000000  0.5017410000000 1.0
C      1  0.4760150000000  0.4588270000000  0.5031990000000 1.0
C      1  0.5448330000000  0.4996420000000  0.5250360000000 1.0
C      1  0.4581800000000  0.5045910000000  0.4782120000000 1.0
C      1  0.5419440000000  0.4966550000000  0.4763540000000 1.0
C      1  0.4987900000000  0.4747420000000  0.4548990000000 1.0
C      1  0.4986730000000  0.4748750000000  0.5446580000000 1.0
C      1  0.5042170000000  0.5231360000000  0.5420380000000 1.0
C      1  0.4725970000000  0.5061300000000  0.5758140000000 1.0
C      1  0.5776970000000  0.4742220000000  0.5075760000000 1.0
C      1  0.5050270000000  0.5756110000000  0.4708700000000 1.0
C      1  0.5252590000000  0.4904540000000  0.5777180000000 1.0
C      1  0.5284600000000  0.5033850000000  0.4246280000000 1.0
C      1  0.4742000000000  0.4938870000000  0.4222630000000 1.0
C      1  0.4216000000000  0.5264620000000  0.5087780000000 1.0
C      1  0.4249640000000  0.4729740000000  0.4960890000000 1.0
C      1  0.5754430000000  0.5277180000000  0.4949220000000 1.0
C      1  0.4933680000000  0.4250880000000  0.4716860000000 1.0
C      1  0.4939940000000  0.5785460000000  0.5247610000000 1.0
C      1  0.5075290000000  0.4226360000000  0.5247040000000 1.0
C      1  0.5038040000000  0.4710670000000  0.5748010000000 1.0
C      1  0.4728050000000  0.5758300000000  0.5050960000000 1.0
C      1  0.5782260000000  0.5071160000000  0.4747010000000 1.0
C      1  0.4943280000000  0.5252440000000  0.5782280000000 1.0
C      1  0.5090010000000  0.5248020000000  0.4217590000000 1.0
C      1  0.4933450000000  0.4722240000000  0.4247660000000 1.0
C      1  0.5275350000000  0.4253650000000  0.5038500000000 1.0
C      1  0.4736860000000  0.4225070000000  0.4928140000000 1.0
C      1  0.5258880000000  0.5786140000000  0.4908360000000 1.0
C      1  0.4224110000000  0.4936310000000  0.4757740000000 1.0
C      1  0.5748680000000  0.4944780000000  0.5281180000000 1.0
C      1  0.4242900000000  0.5061360000000  0.5293270000000 1.0
C      1  0.5188880000000  0.4130240000000  0.4789190000000 1.0
C      1  0.4843970000000  0.5172830000000  0.4103280000000 1.0
C      1  0.4124430000000  0.4807930000000  0.5211920000000 1.0
C      1  0.4800240000000  0.5877590000000  0.4795380000000 1.0
C      1  0.4832510000000  0.4109530000000  0.5166170000000 1.0
C      1  0.5177220000000  0.5902680000000  0.5151040000000 1.0
C      1  0.5189930000000  0.4786400000000  0.4125350000000 1.0
C      1  0.4792500000000  0.4802830000000  0.5874740000000 1.0
C      1  0.5872490000000  0.5196540000000  0.5202950000000 1.0
C      1  0.5895900000000  0.4829920000000  0.4836540000000 1.0
C      1  0.4103430000000  0.5175360000000  0.4845760000000 1.0
C      1  0.5179180000000  0.5148530000000  0.5896510000000 1.0
END
