TITL C-2323487-9546-377 -0.193163215819105 125000 -364.209294381959 0 0 60 (C1) n - 1
REM
REM in /home/bkarasulu/CARBON/AIRSS/Generating-Clusters/LCBOP/Higher-Symm/Only-C60/SD-CG/FIRE-HFTN
REM
REM
REM
REM
REM
REM ./C.cell (50c204cfd26239f34c78669fe23a5462)
REM
REM compiler GCC version 9.2.1 20190827 (Red Hat 9.2.1-1)
REM options -cpp -mtune=generic -march=x86-64 -g -O0 -fpre-include=/usr/include/finclude/math-vector-fortran.h
REM seed 179567394 -338646006 -1238445384 1431105025 1468323667 1605871994 548259897 -1285607021 -714553696 872879672 1168656835 -977066663 -1641101579 490290062 -262299074 -1562043646 682603072 -1593601601 578724793 -154222641 1885889133 1375207068 2072565583 1109713348 92225979 1534169191 1285797026 -1366769013 350681831 -2021603114 -760944939 -956101626 -1305676220
REM
CELL 1.54180   50.00000   50.00000   50.00000   90.00000   90.00000   90.00000
LATT -1
SFAC C  
C      1  0.5195450000000  0.4568440000000  0.4631330000000 1.0
C      1  0.5430280000000  0.4977830000000  0.5522450000000 1.0
C      1  0.5718530000000  0.4953700000000  0.5183440000000 1.0
C      1  0.5275210000000  0.4960750000000  0.4176700000000 1.0
C      1  0.4863710000000  0.5345260000000  0.4891270000000 1.0
C      1  0.4783830000000  0.4229070000000  0.4959640000000 1.0
C      1  0.4417040000000  0.4737890000000  0.4780480000000 1.0
C      1  0.4373900000000  0.5469300000000  0.5150530000000 1.0
C      1  0.5183920000000  0.4925360000000  0.5371400000000 1.0
C      1  0.5657900000000  0.4682310000000  0.4715700000000 1.0
C      1  0.4637180000000  0.4812640000000  0.5391620000000 1.0
C      1  0.4632520000000  0.5356980000000  0.5566580000000 1.0
C      1  0.4710320000000  0.5112420000000  0.4824670000000 1.0
C      1  0.5642030000000  0.5421550000000  0.4968700000000 1.0
C      1  0.5665570000000  0.5258840000000  0.5211280000000 1.0
C      1  0.4481300000000  0.5279020000000  0.5332510000000 1.0
C      1  0.4463560000000  0.5607520000000  0.4656180000000 1.0
C      1  0.5445920000000  0.4486370000000  0.4741210000000 1.0
C      1  0.4809640000000  0.4746700000000  0.4096320000000 1.0
C      1  0.5769430000000  0.4814280000000  0.4941370000000 1.0
C      1  0.5409630000000  0.4308650000000  0.4956210000000 1.0
C      1  0.4959850000000  0.5538550000000  0.4665480000000 1.0
C      1  0.4591210000000  0.4752410000000  0.4544030000000 1.0
C      1  0.5052940000000  0.4856330000000  0.4069770000000 1.0
C      1  0.4492630000000  0.5004670000000  0.5239240000000 1.0
C      1  0.5219590000000  0.4991060000000  0.4853520000000 1.0
C      1  0.5258460000000  0.5747720000000  0.4958210000000 1.0
C      1  0.5180020000000  0.5598980000000  0.5192250000000 1.0
C      1  0.4583940000000  0.5596320000000  0.5690740000000 1.0
C      1  0.4066360000000  0.4420870000000  0.4912550000000 1.0
C      1  0.4613950000000  0.4690520000000  0.4273030000000 1.0
C      1  0.4359020000000  0.5572660000000  0.4902450000000 1.0
C      1  0.4332710000000  0.4477090000000  0.4855190000000 1.0
C      1  0.5131170000000  0.4663750000000  0.5494620000000 1.0
C      1  0.4937010000000  0.4383630000000  0.5142100000000 1.0
C      1  0.4952020000000  0.4694850000000  0.5707960000000 1.0
C      1  0.5036610000000  0.5810040000000  0.4787740000000 1.0
C      1  0.5447790000000  0.5569900000000  0.4817080000000 1.0
C      1  0.5646570000000  0.4835640000000  0.4475590000000 1.0
C      1  0.5433120000000  0.5008430000000  0.4404910000000 1.0
C      1  0.4833250000000  0.5177350000000  0.5670760000000 1.0
C      1  0.5041610000000  0.5346560000000  0.5124360000000 1.0
C      1  0.5264720000000  0.5425510000000  0.4631990000000 1.0
C      1  0.4810860000000  0.4905180000000  0.4647750000000 1.0
C      1  0.3816780000000  0.4372120000000  0.4969580000000 1.0
C      1  0.5156240000000  0.5076090000000  0.5127760000000 1.0
C      1  0.4533570000000  0.4277170000000  0.4869950000000 1.0
C      1  0.5390760000000  0.5226910000000  0.5640490000000 1.0
C      1  0.5111160000000  0.5261160000000  0.5725230000000 1.0
C      1  0.4488180000000  0.4967820000000  0.4956970000000 1.0
C      1  0.5532800000000  0.5396110000000  0.5452830000000 1.0
C      1  0.4765300000000  0.4584350000000  0.5267350000000 1.0
C      1  0.5597220000000  0.4787170000000  0.5393910000000 1.0
C      1  0.5056980000000  0.4795200000000  0.4719640000000 1.0
C      1  0.5350860000000  0.4518030000000  0.5383290000000 1.0
C      1  0.5234580000000  0.4362400000000  0.5171730000000 1.0
C      1  0.5320220000000  0.5150640000000  0.4626420000000 1.0
C      1  0.4760000000000  0.4896290000000  0.5644740000000 1.0
C      1  0.4701080000000  0.5584520000000  0.4523270000000 1.0
C      1  0.5372000000000  0.5621080000000  0.5395940000000 1.0
END
