TITL C-2323478-8180-234 -1236.39616802324 125000 -348.574492932804 0 0 60 (C1) n - 1
REM
REM in /home/bkarasulu/CARBON/AIRSS/Generating-Clusters/LCBOP/Higher-Symm/Only-C60/SD-CG/FIRE-HFTN
REM
REM
REM
REM
REM
REM ./C.cell (50c204cfd26239f34c78669fe23a5462)
REM
REM compiler GCC version 9.2.1 20190827 (Red Hat 9.2.1-1)
REM options -cpp -mtune=generic -march=x86-64 -g -O0 -fpre-include=/usr/include/finclude/math-vector-fortran.h
REM seed -689076304 -744009507 995039501 -1304466903 -1057792146 -1087990891 757493390 -2135295747 -340279354 791122149 -1323400964 1617519115 1564097120 680032783 188853448 -187084199 1840368190 549637346 -50101207 -1638629043 -1158343596 1595807505 -1499367733 -276469348 1399179026 1582830415 -1956505452 71394576 -1950393513 -908556929 2038485946 904400087 1943556467
REM
CELL 1.54180   50.00000   50.00000   50.00000   90.00000   90.00000   90.00000
LATT -1
SFAC C  
C      1  0.5377560000000  0.5593480000000  0.5149710000000 1.0
C      1  0.5601040000000  0.5216000000000  0.5444290000000 1.0
C      1  0.5123090000000  0.5355200000000  0.5637780000000 1.0
C      1  0.4701660000000  0.4347200000000  0.5151420000000 1.0
C      1  0.5395080000000  0.4418880000000  0.4824330000000 1.0
C      1  0.4703620000000  0.5661250000000  0.4852850000000 1.0
C      1  0.4402800000000  0.4681710000000  0.5446030000000 1.0
C      1  0.5678480000000  0.4840960000000  0.4624950000000 1.0
C      1  0.4399520000000  0.5331070000000  0.4551200000000 1.0
C      1  0.4857310000000  0.4617430000000  0.5579190000000 1.0
C      1  0.5263490000000  0.4576320000000  0.4369450000000 1.0
C      1  0.4854380000000  0.5318980000000  0.4384670000000 1.0
C      1  0.5593680000000  0.5450960000000  0.5292650000000 1.0
C      1  0.5149200000000  0.5621460000000  0.5331140000000 1.0
C      1  0.5321330000000  0.5160500000000  0.5656740000000 1.0
C      1  0.4394470000000  0.4537840000000  0.5204250000000 1.0
C      1  0.4392760000000  0.5464800000000  0.4794750000000 1.0
C      1  0.5624400000000  0.4584320000000  0.4714570000000 1.0
C      1  0.4881100000000  0.4394840000000  0.5365990000000 1.0
C      1  0.4890670000000  0.5625040000000  0.4648430000000 1.0
C      1  0.5178250000000  0.4418570000000  0.4607840000000 1.0
C      1  0.4624580000000  0.4806090000000  0.5591830000000 1.0
C      1  0.4598840000000  0.5171540000000  0.4407330000000 1.0
C      1  0.5284800000000  0.4837980000000  0.4286240000000 1.0
C      1  0.4481680000000  0.5210470000000  0.5304890000000 1.0
C      1  0.5142880000000  0.5322820000000  0.4419420000000 1.0
C      1  0.5372530000000  0.4440390000000  0.5138850000000 1.0
C      1  0.5543770000000  0.4850930000000  0.5433400000000 1.0
C      1  0.4435450000000  0.4809350000000  0.4716050000000 1.0
C      1  0.5558040000000  0.5105140000000  0.4578460000000 1.0
C      1  0.4821950000000  0.4712410000000  0.4501220000000 1.0
C      1  0.5134150000000  0.4663860000000  0.5624510000000 1.0
C      1  0.4845510000000  0.5379940000000  0.5573610000000 1.0
C      1  0.4685850000000  0.5629380000000  0.5143860000000 1.0
C      1  0.5374420000000  0.5543200000000  0.4836700000000 1.0
C      1  0.4691640000000  0.4385060000000  0.4852830000000 1.0
C      1  0.5169150000000  0.4384500000000  0.5335200000000 1.0
C      1  0.5335230000000  0.5104070000000  0.4388870000000 1.0
C      1  0.4448980000000  0.5448100000000  0.5148080000000 1.0
C      1  0.4867880000000  0.5592100000000  0.5356100000000 1.0
C      1  0.4880110000000  0.4445840000000  0.4637740000000 1.0
C      1  0.5168720000000  0.5553280000000  0.4623550000000 1.0
C      1  0.4572950000000  0.4863940000000  0.4455170000000 1.0
C      1  0.4635230000000  0.5169960000000  0.5555000000000 1.0
C      1  0.5327450000000  0.4863210000000  0.5628590000000 1.0
C      1  0.5498810000000  0.4704350000000  0.5196360000000 1.0
C      1  0.5514160000000  0.5280700000000  0.4803360000000 1.0
C      1  0.4435160000000  0.4558400000000  0.4855970000000 1.0
C      1  0.5142150000000  0.4781090000000  0.4868220000000 1.0
C      1  0.4959400000000  0.5292420000000  0.4925250000000 1.0
C      1  0.4574740000000  0.4992700000000  0.5147980000000 1.0
C      1  0.4816160000000  0.5105490000000  0.4777960000000 1.0
C      1  0.5395780000000  0.5134090000000  0.5016620000000 1.0
C      1  0.4557980000000  0.5014540000000  0.4874000000000 1.0
C      1  0.5387460000000  0.4861960000000  0.4986150000000 1.0
C      1  0.4978990000000  0.4898340000000  0.4665690000000 1.0
C      1  0.4830610000000  0.4885160000000  0.5219030000000 1.0
C      1  0.5022240000000  0.5065020000000  0.5314140000000 1.0
C      1  0.5146460000000  0.5221000000000  0.5119320000000 1.0
C      1  0.4954250000000  0.4694360000000  0.5060210000000 1.0
END
