TITL C-2323479-8056-157 -228.914261133785 125000 -343.726696085421 0 0 60 (C1) n - 1
REM
REM in /home/bkarasulu/CARBON/AIRSS/Generating-Clusters/LCBOP/Higher-Symm/Only-C60/SD-CG/FIRE-HFTN
REM
REM
REM
REM
REM
REM ./C.cell (50c204cfd26239f34c78669fe23a5462)
REM
REM compiler GCC version 9.2.1 20190827 (Red Hat 9.2.1-1)
REM options -cpp -mtune=generic -march=x86-64 -g -O0 -fpre-include=/usr/include/finclude/math-vector-fortran.h
REM seed -1312535053 -294328382 1069245553 121658449 -2001691293 -890695538 -610319923 1858874280 -1557470357 940953492 943422822 -1791849674 1060924034 1237772867 -697838494 -785449054 -1323353563 720030426 -884594002 1943186304 -1481071359 -1336497348 1095811143 592982253 1239522780 1659083503 -1496535199 651550694 1376791307 217772131 249248052 -755549097 2046297256
REM
CELL 1.54180   50.00000   50.00000   50.00000   90.00000   90.00000   90.00000
LATT -1
SFAC C  
C      1  0.5384100000000  0.5071960000000  0.5586780000000 1.0
C      1  0.5085510000000  0.4609730000000  0.5585870000000 1.0
C      1  0.4607870000000  0.4912850000000  0.5589270000000 1.0
C      1  0.4922050000000  0.5396890000000  0.5580530000000 1.0
C      1  0.5386490000000  0.4919980000000  0.4432740000000 1.0
C      1  0.5082480000000  0.5393070000000  0.4437080000000 1.0
C      1  0.4613290000000  0.5076300000000  0.4432930000000 1.0
C      1  0.4916050000000  0.4605520000000  0.4435120000000 1.0
C      1  0.4906130000000  0.4604770000000  0.5115460000000 1.0
C      1  0.4594940000000  0.5100100000000  0.5111950000000 1.0
C      1  0.5097010000000  0.5395030000000  0.5112140000000 1.0
C      1  0.5394750000000  0.4903140000000  0.5112830000000 1.0
C      1  0.4904270000000  0.5393050000000  0.4905560000000 1.0
C      1  0.4604720000000  0.4905250000000  0.4907540000000 1.0
C      1  0.5098880000000  0.4596840000000  0.4909530000000 1.0
C      1  0.5398670000000  0.5097000000000  0.4907060000000 1.0
C      1  0.4419930000000  0.5279930000000  0.4497710000000 1.0
C      1  0.5277580000000  0.5591620000000  0.4513650000000 1.0
C      1  0.5584440000000  0.4722660000000  0.4504130000000 1.0
C      1  0.4710420000000  0.4416100000000  0.4503230000000 1.0
C      1  0.4417320000000  0.4707850000000  0.5520580000000 1.0
C      1  0.5288030000000  0.4416820000000  0.5518070000000 1.0
C      1  0.5580750000000  0.5271870000000  0.5519350000000 1.0
C      1  0.4727410000000  0.5595790000000  0.5503890000000 1.0
C      1  0.5336300000000  0.5802760000000  0.4350130000000 1.0
C      1  0.5788490000000  0.4658020000000  0.4334090000000 1.0
C      1  0.4631040000000  0.4220910000000  0.4329460000000 1.0
C      1  0.4221220000000  0.5349060000000  0.4323320000000 1.0
C      1  0.5359540000000  0.4217750000000  0.5691020000000 1.0
C      1  0.5782880000000  0.5336350000000  0.5691700000000 1.0
C      1  0.4669490000000  0.5807470000000  0.5667000000000 1.0
C      1  0.4221730000000  0.4628870000000  0.5694100000000 1.0
C      1  0.5407420000000  0.5561620000000  0.4768770000000 1.0
C      1  0.5560350000000  0.4596490000000  0.4762410000000 1.0
C      1  0.4592190000000  0.4441730000000  0.4765170000000 1.0
C      1  0.4443880000000  0.5407730000000  0.4755310000000 1.0
C      1  0.5412410000000  0.4441610000000  0.5258930000000 1.0
C      1  0.5557270000000  0.5401080000000  0.5262440000000 1.0
C      1  0.4597040000000  0.5565570000000  0.5248900000000 1.0
C      1  0.4442460000000  0.4590620000000  0.5258330000000 1.0
C      1  0.5224510000000  0.4986900000000  0.5343670000000 1.0
C      1  0.4996250000000  0.4766610000000  0.5344090000000 1.0
C      1  0.4743430000000  0.5017050000000  0.5348680000000 1.0
C      1  0.5013350000000  0.5231880000000  0.5346590000000 1.0
C      1  0.5233340000000  0.5015900000000  0.4673580000000 1.0
C      1  0.4990150000000  0.5227080000000  0.4672160000000 1.0
C      1  0.4769240000000  0.4992620000000  0.4676840000000 1.0
C      1  0.5013510000000  0.4749990000000  0.4677140000000 1.0
C      1  0.5219100000000  0.5030070000000  0.5815320000000 1.0
C      1  0.5040770000000  0.4783340000000  0.5811590000000 1.0
C      1  0.4782310000000  0.4934250000000  0.5811340000000 1.0
C      1  0.4949380000000  0.5254270000000  0.5818550000000 1.0
C      1  0.5213690000000  0.4938780000000  0.4206990000000 1.0
C      1  0.5052900000000  0.5251490000000  0.4198430000000 1.0
C      1  0.4774570000000  0.5024650000000  0.4205850000000 1.0
C      1  0.4952060000000  0.4782650000000  0.4210570000000 1.0
C      1  0.5387830000000  0.4612740000000  0.5010600000000 1.0
C      1  0.4612950000000  0.5387300000000  0.5005660000000 1.0
C      1  0.5387310000000  0.5385120000000  0.5012370000000 1.0
C      1  0.4616570000000  0.4615580000000  0.5012210000000 1.0
END
