TITL C-2323481-8605-475 0.0936816364895226 125000 -352.237320914642 0 0 60 (C1) n - 1
REM
REM in /home/bkarasulu/CARBON/AIRSS/Generating-Clusters/LCBOP/Higher-Symm/Only-C60/SD-CG/FIRE-HFTN
REM
REM
REM
REM
REM
REM ./C.cell (50c204cfd26239f34c78669fe23a5462)
REM
REM compiler GCC version 9.2.1 20190827 (Red Hat 9.2.1-1)
REM options -cpp -mtune=generic -march=x86-64 -g -O0 -fpre-include=/usr/include/finclude/math-vector-fortran.h
REM seed -639326323 1404384805 319382351 187469929 -140837204 -1129598758 -1088397553 -356217519 -1086805839 -860535277 -419586831 -913115718 -124078260 -431638768 594439105 -1581329232 -322185655 -161990033 457585343 -1524918197 1195684473 -1950647973 -1706739367 -1961041175 -1100417826 1291161494 -856232692 278328631 -186173476 -2016851653 1534638259 -1474847049 673547147
REM
CELL 1.54180   50.00000   50.00000   50.00000   90.00000   90.00000   90.00000
LATT -1
SFAC C  
C      1  0.4525010000000  0.5566960000000  0.4579750000000 1.0
C      1  0.5584120000000  0.5469060000000  0.5427160000000 1.0
C      1  0.4281040000000  0.4533390000000  0.5665490000000 1.0
C      1  0.5172440000000  0.3841400000000  0.4820500000000 1.0
C      1  0.4725150000000  0.5550790000000  0.4395490000000 1.0
C      1  0.5720220000000  0.5532100000000  0.5640250000000 1.0
C      1  0.5172920000000  0.3611800000000  0.4697210000000 1.0
C      1  0.4507740000000  0.4543990000000  0.5537340000000 1.0
C      1  0.5141080000000  0.5327860000000  0.4510340000000 1.0
C      1  0.4993610000000  0.5206690000000  0.5358810000000 1.0
C      1  0.4981470000000  0.4453920000000  0.5575140000000 1.0
C      1  0.4923570000000  0.4370520000000  0.4580230000000 1.0
C      1  0.4480480000000  0.5333030000000  0.5012310000000 1.0
C      1  0.5424970000000  0.5542770000000  0.4971980000000 1.0
C      1  0.5279200000000  0.4121500000000  0.5210310000000 1.0
C      1  0.4569930000000  0.4578550000000  0.4971040000000 1.0
C      1  0.5403240000000  0.4322000000000  0.5368890000000 1.0
C      1  0.4530060000000  0.4638350000000  0.4700010000000 1.0
C      1  0.5412810000000  0.5679020000000  0.4726800000000 1.0
C      1  0.4500930000000  0.5264910000000  0.5283120000000 1.0
C      1  0.5259370000000  0.4488310000000  0.5560390000000 1.0
C      1  0.4747880000000  0.4586710000000  0.4516680000000 1.0
C      1  0.4741920000000  0.5298300000000  0.5439610000000 1.0
C      1  0.5319240000000  0.5546900000000  0.4485910000000 1.0
C      1  0.4913650000000  0.5550490000000  0.5826410000000 1.0
C      1  0.5385640000000  0.5489010000000  0.4001940000000 1.0
C      1  0.4950310000000  0.4760480000000  0.4106410000000 1.0
C      1  0.5391030000000  0.4861650000000  0.5860400000000 1.0
C      1  0.5527650000000  0.6110840000000  0.4932710000000 1.0
C      1  0.4060250000000  0.5045060000000  0.5297930000000 1.0
C      1  0.4085600000000  0.4828190000000  0.4617210000000 1.0
C      1  0.5855420000000  0.4394260000000  0.5177590000000 1.0
C      1  0.5355410000000  0.4759910000000  0.5609990000000 1.0
C      1  0.4815860000000  0.4804590000000  0.4340490000000 1.0
C      1  0.5403330000000  0.5640140000000  0.4228170000000 1.0
C      1  0.4715460000000  0.5408540000000  0.5704380000000 1.0
C      1  0.5601110000000  0.4474150000000  0.5227650000000 1.0
C      1  0.4355950000000  0.4852580000000  0.4634490000000 1.0
C      1  0.4262110000000  0.5181110000000  0.5420720000000 1.0
C      1  0.5500860000000  0.5952150000000  0.4712540000000 1.0
C      1  0.5511420000000  0.5901040000000  0.4227740000000 1.0
C      1  0.4464820000000  0.5359870000000  0.5825550000000 1.0
C      1  0.5409810000000  0.4907210000000  0.5369820000000 1.0
C      1  0.4733430000000  0.5069150000000  0.4416910000000 1.0
C      1  0.4255310000000  0.5250780000000  0.5694530000000 1.0
C      1  0.5555100000000  0.6045300000000  0.4451530000000 1.0
C      1  0.5485790000000  0.4719760000000  0.5152920000000 1.0
C      1  0.4497030000000  0.5092260000000  0.4585070000000 1.0
C      1  0.5427360000000  0.5391530000000  0.5208800000000 1.0
C      1  0.4465330000000  0.5335260000000  0.4733400000000 1.0
C      1  0.5169960000000  0.4088610000000  0.4948160000000 1.0
C      1  0.4794870000000  0.4566450000000  0.5140150000000 1.0
C      1  0.5256070000000  0.5146640000000  0.5232660000000 1.0
C      1  0.4884830000000  0.5314440000000  0.4389120000000 1.0
C      1  0.4759490000000  0.4522690000000  0.5418740000000 1.0
C      1  0.5059120000000  0.4320980000000  0.4824540000000 1.0
C      1  0.5203840000000  0.5018390000000  0.4956230000000 1.0
C      1  0.5252890000000  0.4737160000000  0.4980890000000 1.0
C      1  0.5191070000000  0.5141940000000  0.4711280000000 1.0
C      1  0.5044400000000  0.4548540000000  0.4998200000000 1.0
END
