TITL C-2323484-8600-580 6.45095741056009e-07 125000 -354.635267404634 0 0 60 (C1) n - 1
REM
REM in /home/bkarasulu/CARBON/AIRSS/Generating-Clusters/LCBOP/Higher-Symm/Only-C60/SD-CG/FIRE-HFTN
REM
REM
REM
REM
REM
REM ./C.cell (50c204cfd26239f34c78669fe23a5462)
REM
REM compiler GCC version 9.2.1 20190827 (Red Hat 9.2.1-1)
REM options -cpp -mtune=generic -march=x86-64 -g -O0 -fpre-include=/usr/include/finclude/math-vector-fortran.h
REM seed 504668816 775294866 122298902 -1992070704 -2077715084 -1466957325 1626418795 -2011533098 1982776799 -1215115463 -1957351171 100884480 811696491 1472299694 140526154 -1361281630 974328675 -638260798 -1600956250 1357977726 1582074457 -1245773992 743197364 -440836486 -80077574 -621000876 751209450 349092937 -157446703 -724556318 -879595572 -1947126396 906803193
REM
CELL 1.54180   50.00000   50.00000   50.00000   90.00000   90.00000   90.00000
LATT -1
SFAC C  
C      1  0.5516120000000  0.5827050000000  0.4708760000000 1.0
C      1  0.5588570000000  0.4271340000000  0.4627340000000 1.0
C      1  0.3948080000000  0.4983160000000  0.4740250000000 1.0
C      1  0.5472070000000  0.5898860000000  0.5293720000000 1.0
C      1  0.5521140000000  0.4167830000000  0.5202590000000 1.0
C      1  0.3985400000000  0.4967110000000  0.5328020000000 1.0
C      1  0.4645590000000  0.5810980000000  0.4662930000000 1.0
C      1  0.4424320000000  0.4237150000000  0.4699250000000 1.0
C      1  0.6013620000000  0.5017600000000  0.4805970000000 1.0
C      1  0.4601940000000  0.5843520000000  0.5249590000000 1.0
C      1  0.4479460000000  0.4233530000000  0.5284290000000 1.0
C      1  0.5948480000000  0.4918230000000  0.5383540000000 1.0
C      1  0.4847850000000  0.5245780000000  0.4499330000000 1.0
C      1  0.5395430000000  0.4887100000000  0.4612290000000 1.0
C      1  0.4760150000000  0.4729880000000  0.4432420000000 1.0
C      1  0.4839300000000  0.5274030000000  0.5534510000000 1.0
C      1  0.5318430000000  0.4996860000000  0.5541940000000 1.0
C      1  0.4840800000000  0.4721750000000  0.5508070000000 1.0
C      1  0.5090400000000  0.5332070000000  0.4625790000000 1.0
C      1  0.4563980000000  0.4861190000000  0.4594630000000 1.0
C      1  0.5229530000000  0.4724970000000  0.4450610000000 1.0
C      1  0.5063460000000  0.5403320000000  0.5407790000000 1.0
C      1  0.4617020000000  0.4855320000000  0.5388290000000 1.0
C      1  0.5319920000000  0.4753030000000  0.5388480000000 1.0
C      1  0.5574440000000  0.4468720000000  0.4815130000000 1.0
C      1  0.4152190000000  0.4862980000000  0.4875390000000 1.0
C      1  0.5309470000000  0.5730060000000  0.4858050000000 1.0
C      1  0.5543890000000  0.4417730000000  0.5095820000000 1.0
C      1  0.4172180000000  0.4857960000000  0.5161890000000 1.0
C      1  0.5289860000000  0.5762090000000  0.5143670000000 1.0
C      1  0.4415890000000  0.4462650000000  0.4852500000000 1.0
C      1  0.5806430000000  0.4875740000000  0.4912450000000 1.0
C      1  0.4833090000000  0.5710250000000  0.4833780000000 1.0
C      1  0.4440530000000  0.4460720000000  0.5138410000000 1.0
C      1  0.5775630000000  0.4825460000000  0.5194000000000 1.0
C      1  0.4814000000000  0.5731140000000  0.5119940000000 1.0
C      1  0.4897660000000  0.4791270000000  0.5769360000000 1.0
C      1  0.5146100000000  0.4792160000000  0.4184000000000 1.0
C      1  0.5199860000000  0.4987060000000  0.5791160000000 1.0
C      1  0.4841130000000  0.5158780000000  0.4228420000000 1.0
C      1  0.4884630000000  0.5168620000000  0.5786380000000 1.0
C      1  0.4869230000000  0.4878030000000  0.4194100000000 1.0
C      1  0.5316560000000  0.5156500000000  0.4693830000000 1.0
C      1  0.4988040000000  0.4612580000000  0.4574190000000 1.0
C      1  0.5057910000000  0.4641080000000  0.5337040000000 1.0
C      1  0.4643730000000  0.5142850000000  0.5370300000000 1.0
C      1  0.4632130000000  0.5135760000000  0.4655240000000 1.0
C      1  0.5304280000000  0.5242680000000  0.5395460000000 1.0
C      1  0.5468250000000  0.5252350000000  0.4912740000000 1.0
C      1  0.4533350000000  0.5268880000000  0.5147170000000 1.0
C      1  0.5474650000000  0.5279800000000  0.5177320000000 1.0
C      1  0.5007020000000  0.4513910000000  0.5092980000000 1.0
C      1  0.4531080000000  0.5261980000000  0.4881440000000 1.0
C      1  0.4984620000000  0.4500770000000  0.4828370000000 1.0
C      1  0.5552480000000  0.4655460000000  0.5256870000000 1.0
C      1  0.5606380000000  0.4748180000000  0.4751410000000 1.0
C      1  0.4403850000000  0.4718330000000  0.5259510000000 1.0
C      1  0.4364990000000  0.4723010000000  0.4742580000000 1.0
C      1  0.5051210000000  0.5645250000000  0.5256350000000 1.0
C      1  0.5082210000000  0.5597560000000  0.4742360000000 1.0
END
