TITL C-2323478-8180-175 4861.9577617167 125000 -335.37087890843 0 0 60 (C1) n - 1
REM
REM in /home/bkarasulu/CARBON/AIRSS/Generating-Clusters/LCBOP/Higher-Symm/Only-C60/SD-CG/FIRE-HFTN
REM
REM
REM
REM
REM
REM ./C.cell (50c204cfd26239f34c78669fe23a5462)
REM
REM compiler GCC version 9.2.1 20190827 (Red Hat 9.2.1-1)
REM options -cpp -mtune=generic -march=x86-64 -g -O0 -fpre-include=/usr/include/finclude/math-vector-fortran.h
REM seed -1082284446 2129783641 -1067864374 32025989 -1491756014 125564580 1488421048 714288426 -791762957 -399292436 389559935 -65896729 -569660088 -1937021203 -1482046752 -721182910 -945265882 423619239 -741233419 1739100746 1509367248 279311018 -455164951 -989438535 -1062579845 2085673775 -449528208 -1402349000 299919135 -982067325 1499261163 -955314443 729705737
REM
CELL 1.54180   50.00000   50.00000   50.00000   90.00000   90.00000   90.00000
LATT -1
SFAC C  
C      1  0.4958770000000  0.5165750000000  0.4731660000000 1.0
C      1  0.5038460000000  0.5355480000000  0.5158910000000 1.0
C      1  0.5100540000000  0.4997780000000  0.5435950000000 1.0
C      1  0.4938710000000  0.4749260000000  0.5088740000000 1.0
C      1  0.5007300000000  0.4723390000000  0.4617200000000 1.0
C      1  0.5228810000000  0.5188100000000  0.5279440000000 1.0
C      1  0.4889840000000  0.5240660000000  0.4968190000000 1.0
C      1  0.4992100000000  0.4978870000000  0.4544070000000 1.0
C      1  0.4992620000000  0.4614730000000  0.4864760000000 1.0
C      1  0.4995850000000  0.4763790000000  0.5351370000000 1.0
C      1  0.5014560000000  0.5639360000000  0.5282250000000 1.0
C      1  0.5039130000000  0.5050570000000  0.5711810000000 1.0
C      1  0.4995190000000  0.4233010000000  0.5145500000000 1.0
C      1  0.5017420000000  0.4531320000000  0.4404770000000 1.0
C      1  0.4998550000000  0.5553330000000  0.4435070000000 1.0
C      1  0.4982840000000  0.5713950000000  0.4675400000000 1.0
C      1  0.4993200000000  0.5035210000000  0.4262880000000 1.0
C      1  0.5005870000000  0.4302910000000  0.4852870000000 1.0
C      1  0.4957930000000  0.4561120000000  0.5556630000000 1.0
C      1  0.5034870000000  0.5552050000000  0.5582850000000 1.0
C      1  0.4756010000000  0.5446120000000  0.5615940000000 1.0
C      1  0.4674020000000  0.4553070000000  0.5592630000000 1.0
C      1  0.4712750000000  0.4265950000000  0.4757160000000 1.0
C      1  0.4708120000000  0.5011970000000  0.4208140000000 1.0
C      1  0.4710760000000  0.5705160000000  0.4775310000000 1.0
C      1  0.4731140000000  0.5438400000000  0.4392480000000 1.0
C      1  0.4726660000000  0.4519650000000  0.4348810000000 1.0
C      1  0.4714920000000  0.4292840000000  0.5215970000000 1.0
C      1  0.4754120000000  0.5009900000000  0.5737980000000 1.0
C      1  0.4722010000000  0.5700490000000  0.5225360000000 1.0
C      1  0.4534890000000  0.4983510000000  0.4462710000000 1.0
C      1  0.4537740000000  0.5462030000000  0.4844620000000 1.0
C      1  0.4576210000000  0.5294850000000  0.5409480000000 1.0
C      1  0.4523850000000  0.4720290000000  0.5387510000000 1.0
C      1  0.4533650000000  0.4517250000000  0.4811610000000 1.0
C      1  0.4567660000000  0.5007320000000  0.5492340000000 1.0
C      1  0.4545670000000  0.5462230000000  0.5157210000000 1.0
C      1  0.4544850000000  0.5279520000000  0.4583340000000 1.0
C      1  0.4542500000000  0.4683770000000  0.4548780000000 1.0
C      1  0.4536150000000  0.4534430000000  0.5131420000000 1.0
C      1  0.5481430000000  0.4906880000000  0.5682190000000 1.0
C      1  0.5442030000000  0.4489380000000  0.5172140000000 1.0
C      1  0.5475480000000  0.4723660000000  0.4594530000000 1.0
C      1  0.5431670000000  0.5341950000000  0.4604910000000 1.0
C      1  0.5512640000000  0.5542940000000  0.5171070000000 1.0
C      1  0.5462530000000  0.4995690000000  0.4507620000000 1.0
C      1  0.5460270000000  0.4500830000000  0.4875890000000 1.0
C      1  0.5472570000000  0.4675960000000  0.5501410000000 1.0
C      1  0.5431700000000  0.5371510000000  0.5376820000000 1.0
C      1  0.5434490000000  0.5521680000000  0.4826360000000 1.0
C      1  0.5244380000000  0.5161710000000  0.4241680000000 1.0
C      1  0.5214880000000  0.5730100000000  0.4839060000000 1.0
C      1  0.5313480000000  0.5418630000000  0.5650270000000 1.0
C      1  0.5204330000000  0.4426670000000  0.5545980000000 1.0
C      1  0.5283290000000  0.4289560000000  0.4724920000000 1.0
C      1  0.5308260000000  0.5144610000000  0.5789140000000 1.0
C      1  0.5224620000000  0.5774720000000  0.5123980000000 1.0
C      1  0.5247750000000  0.5417760000000  0.4378000000000 1.0
C      1  0.5280690000000  0.4424850000000  0.4460730000000 1.0
C      1  0.5237290000000  0.4301490000000  0.5284130000000 1.0
END
