TITL C-2323492-8884-106 0.0333882685740048 125000 -355.234837397794 0 0 60 (C1) n - 1
REM
REM in /home/bkarasulu/CARBON/AIRSS/Generating-Clusters/LCBOP/Higher-Symm/Only-C60/SD-CG/FIRE-HFTN
REM
REM
REM
REM
REM
REM ./C.cell (50c204cfd26239f34c78669fe23a5462)
REM
REM compiler GCC version 9.2.1 20190827 (Red Hat 9.2.1-1)
REM options -cpp -mtune=generic -march=x86-64 -g -O0 -fpre-include=/usr/include/finclude/math-vector-fortran.h
REM seed 1630932504 -2081357314 -2120164613 1842193428 -398217915 -1162849492 -1748365387 -1758119347 -2092789877 -421959313 -1278487172 -1855631110 -1978187007 -2085178417 -811130683 -459196064 -2010128416 -1849960350 -1216684605 -1770642850 14014484 -1657735883 -542723031 1538566080 -1576382612 -1659832144 -780052917 -42493945 -1746549178 1461966139 -1503425913 752234107 246588056
REM
CELL 1.54180   50.00000   50.00000   50.00000   90.00000   90.00000   90.00000
LATT -1
SFAC C  
C      1  0.4735250000000  0.5310070000000  0.4363900000000 1.0
C      1  0.4731620000000  0.5644380000000  0.5268040000000 1.0
C      1  0.4788700000000  0.4772660000000  0.5621130000000 1.0
C      1  0.4782860000000  0.4391540000000  0.4738740000000 1.0
C      1  0.5469060000000  0.4740110000000  0.5447990000000 1.0
C      1  0.5504970000000  0.4532420000000  0.4765400000000 1.0
C      1  0.5529990000000  0.5229570000000  0.4544350000000 1.0
C      1  0.5482630000000  0.5430680000000  0.5252430000000 1.0
C      1  0.5021710000000  0.4607730000000  0.5628460000000 1.0
C      1  0.5034760000000  0.4367420000000  0.4595490000000 1.0
C      1  0.5012850000000  0.5435690000000  0.4339060000000 1.0
C      1  0.4996080000000  0.5659830000000  0.5403460000000 1.0
C      1  0.5867090000000  0.5146950000000  0.4899070000000 1.0
C      1  0.5850900000000  0.5112330000000  0.5254510000000 1.0
C      1  0.5842850000000  0.4782460000000  0.5139750000000 1.0
C      1  0.5862190000000  0.4858140000000  0.4854480000000 1.0
C      1  0.5634680000000  0.4622480000000  0.5240260000000 1.0
C      1  0.5679530000000  0.4749210000000  0.4670400000000 1.0
C      1  0.5680020000000  0.5320770000000  0.4783090000000 1.0
C      1  0.5627390000000  0.5215530000000  0.5381440000000 1.0
C      1  0.4831030000000  0.5115510000000  0.4763390000000 1.0
C      1  0.4818210000000  0.5217450000000  0.5068560000000 1.0
C      1  0.4807730000000  0.4925940000000  0.5169240000000 1.0
C      1  0.4826570000000  0.4819070000000  0.4880840000000 1.0
C      1  0.4808440000000  0.5063340000000  0.5632490000000 1.0
C      1  0.4797570000000  0.4368460000000  0.5037850000000 1.0
C      1  0.4614270000000  0.5036000000000  0.4320490000000 1.0
C      1  0.4605920000000  0.5701820000000  0.5009030000000 1.0
C      1  0.4506360000000  0.4830270000000  0.4511130000000 1.0
C      1  0.4497590000000  0.5493760000000  0.4828760000000 1.0
C      1  0.4580930000000  0.5190490000000  0.5496670000000 1.0
C      1  0.4582220000000  0.4506620000000  0.5190740000000 1.0
C      1  0.5091600000000  0.4695600000000  0.4916020000000 1.0
C      1  0.5086410000000  0.5074110000000  0.4604090000000 1.0
C      1  0.5068070000000  0.5376360000000  0.5050820000000 1.0
C      1  0.5085170000000  0.4910390000000  0.5259560000000 1.0
C      1  0.4311900000000  0.4617790000000  0.5132480000000 1.0
C      1  0.4262370000000  0.4872280000000  0.4667370000000 1.0
C      1  0.4264950000000  0.5336200000000  0.4911770000000 1.0
C      1  0.4318270000000  0.5095390000000  0.5384250000000 1.0
C      1  0.4211920000000  0.5280500000000  0.5187160000000 1.0
C      1  0.4241230000000  0.4822440000000  0.5331160000000 1.0
C      1  0.4215870000000  0.4672270000000  0.4869600000000 1.0
C      1  0.4178710000000  0.5136260000000  0.4727340000000 1.0
C      1  0.5141030000000  0.5124920000000  0.5465980000000 1.0
C      1  0.5161080000000  0.4476080000000  0.5126330000000 1.0
C      1  0.5247760000000  0.4853910000000  0.4512820000000 1.0
C      1  0.5234970000000  0.5465510000000  0.4836130000000 1.0
C      1  0.5444320000000  0.5033450000000  0.5517170000000 1.0
C      1  0.5471490000000  0.4461040000000  0.5050800000000 1.0
C      1  0.5527560000000  0.4937800000000  0.4506250000000 1.0
C      1  0.5505390000000  0.5467400000000  0.4958810000000 1.0
C      1  0.4674840000000  0.5362370000000  0.5289310000000 1.0
C      1  0.4685500000000  0.4722230000000  0.5350850000000 1.0
C      1  0.4675940000000  0.4659260000000  0.4674210000000 1.0
C      1  0.4668130000000  0.5346690000000  0.4646440000000 1.0
C      1  0.5185030000000  0.4643900000000  0.5382450000000 1.0
C      1  0.5222150000000  0.4593360000000  0.4657600000000 1.0
C      1  0.5225120000000  0.5340720000000  0.4550120000000 1.0
C      1  0.5181270000000  0.5423070000000  0.5332460000000 1.0
END
