TITL C-2323486-8761-461 1.99246357466306e-05 125000 -355.425435517347 0 0 60 (C1) n - 1
REM
REM in /home/bkarasulu/CARBON/AIRSS/Generating-Clusters/LCBOP/Higher-Symm/Only-C60/SD-CG/FIRE-HFTN
REM
REM
REM
REM
REM
REM ./C.cell (50c204cfd26239f34c78669fe23a5462)
REM
REM compiler GCC version 9.2.1 20190827 (Red Hat 9.2.1-1)
REM options -cpp -mtune=generic -march=x86-64 -g -O0 -fpre-include=/usr/include/finclude/math-vector-fortran.h
REM seed 579235316 -887119636 -128733564 1931338853 702836906 -748967076 296177423 -1930975679 -1011065683 387139991 -447729231 793627867 730784482 1847528254 9062495 765196266 41349230 -1166920380 -1422872465 -1592025988 1393120246 2088332331 1749318723 -205510321 617446 576008176 -1136506677 1107409818 1481550942 -428577574 -1303878316 310447672 -1842280318
REM
CELL 1.54180   50.00000   50.00000   50.00000   90.00000   90.00000   90.00000
LATT -1
SFAC C  
C      1  0.4296800000000  0.5053170000000  0.4499460000000 1.0
C      1  0.4181990000000  0.5447450000000  0.5086300000000 1.0
C      1  0.4369170000000  0.4623310000000  0.5528770000000 1.0
C      1  0.4903030000000  0.4331260000000  0.5401130000000 1.0
C      1  0.4862650000000  0.4932110000000  0.4217980000000 1.0
C      1  0.4702080000000  0.5657220000000  0.5428980000000 1.0
C      1  0.4641770000000  0.5102410000000  0.4176570000000 1.0
C      1  0.4418980000000  0.5640500000000  0.5446180000000 1.0
C      1  0.4631350000000  0.4267390000000  0.5357730000000 1.0
C      1  0.4996050000000  0.4584170000000  0.4854400000000 1.0
C      1  0.5021420000000  0.5440330000000  0.4793820000000 1.0
C      1  0.5098690000000  0.5057000000000  0.5276380000000 1.0
C      1  0.5470960000000  0.5385250000000  0.5275760000000 1.0
C      1  0.5411980000000  0.4618170000000  0.5128420000000 1.0
C      1  0.5333100000000  0.5071990000000  0.4666460000000 1.0
C      1  0.4510020000000  0.4679460000000  0.4800060000000 1.0
C      1  0.4550100000000  0.5561760000000  0.4745920000000 1.0
C      1  0.4675200000000  0.5029060000000  0.5546670000000 1.0
C      1  0.5576930000000  0.5553550000000  0.5099160000000 1.0
C      1  0.5562390000000  0.4655800000000  0.5344420000000 1.0
C      1  0.5468360000000  0.4863790000000  0.4568720000000 1.0
C      1  0.4839560000000  0.5232810000000  0.5712240000000 1.0
C      1  0.5248120000000  0.3999770000000  0.5186690000000 1.0
C      1  0.5277430000000  0.5211330000000  0.4073530000000 1.0
C      1  0.5333840000000  0.5130310000000  0.5682240000000 1.0
C      1  0.5372140000000  0.4277570000000  0.4795140000000 1.0
C      1  0.5388420000000  0.5504420000000  0.4474120000000 1.0
C      1  0.5096510000000  0.4132480000000  0.5363300000000 1.0
C      1  0.5102890000000  0.5009350000000  0.4095270000000 1.0
C      1  0.4827030000000  0.5506000000000  0.5630780000000 1.0
C      1  0.4951760000000  0.4609770000000  0.5424420000000 1.0
C      1  0.4838160000000  0.4746940000000  0.4429970000000 1.0
C      1  0.4802780000000  0.5673410000000  0.5163670000000 1.0
C      1  0.5659310000000  0.5908040000000  0.4442990000000 1.0
C      1  0.5688010000000  0.5009280000000  0.5994830000000 1.0
C      1  0.5617150000000  0.4147580000000  0.4393070000000 1.0
C      1  0.5356610000000  0.4039440000000  0.4943420000000 1.0
C      1  0.5381290000000  0.5420510000000  0.4205810000000 1.0
C      1  0.5089390000000  0.5152940000000  0.5823910000000 1.0
C      1  0.4543660000000  0.5467840000000  0.4480800000000 1.0
C      1  0.4463920000000  0.5174490000000  0.5381680000000 1.0
C      1  0.4423630000000  0.4557190000000  0.5038980000000 1.0
C      1  0.4469030000000  0.5226170000000  0.4358890000000 1.0
C      1  0.4307350000000  0.5404830000000  0.5333060000000 1.0
C      1  0.4434670000000  0.4463180000000  0.5304390000000 1.0
C      1  0.5553100000000  0.4969190000000  0.5761480000000 1.0
C      1  0.5512970000000  0.4338790000000  0.4556880000000 1.0
C      1  0.5557760000000  0.5701080000000  0.4588960000000 1.0
C      1  0.4794690000000  0.5571020000000  0.4898340000000 1.0
C      1  0.4898840000000  0.4886920000000  0.5386490000000 1.0
C      1  0.4778650000000  0.4663020000000  0.4694880000000 1.0
C      1  0.4327500000000  0.4845040000000  0.4664030000000 1.0
C      1  0.4299680000000  0.5562070000000  0.4874320000000 1.0
C      1  0.4504320000000  0.4813040000000  0.5668720000000 1.0
C      1  0.5253750000000  0.4502710000000  0.4928040000000 1.0
C      1  0.5240870000000  0.5336950000000  0.4654480000000 1.0
C      1  0.5310550000000  0.5196260000000  0.5402610000000 1.0
C      1  0.5622210000000  0.4766390000000  0.5579300000000 1.0
C      1  0.5535880000000  0.4614520000000  0.4501460000000 1.0
C      1  0.5613560000000  0.5672210000000  0.4863490000000 1.0
END
