TITL C-2323482-8828-71 239087.691239788 125000 -349.55568512045 0 0 60 (C1) n - 1
REM
REM in /home/bkarasulu/CARBON/AIRSS/Generating-Clusters/LCBOP/Higher-Symm/Only-C60/SD-CG/FIRE-HFTN
REM
REM
REM
REM
REM
REM ./C.cell (50c204cfd26239f34c78669fe23a5462)
REM
REM compiler GCC version 9.2.1 20190827 (Red Hat 9.2.1-1)
REM options -cpp -mtune=generic -march=x86-64 -g -O0 -fpre-include=/usr/include/finclude/math-vector-fortran.h
REM seed -193411801 -1444096919 1900365717 -634417290 -466447686 -1652290682 1488314212 83965367 1150113899 1831567932 464380622 -1021196173 726319882 517759190 215151356 -1780326274 567758571 -1231743317 -1735610260 -1591421364 931600182 164491138 -1728637479 -1908177752 -296893964 935463569 -1474433718 585793836 -800078860 832746003 -1437082538 1779401566 659787668
REM
CELL 1.54180   50.00000   50.00000   50.00000   90.00000   90.00000   90.00000
LATT -1
SFAC C  
C      1  0.4767820000000  0.5450450000000  0.5195640000000 1.0
C      1  0.5471500000000  0.5244130000000  0.4754370000000 1.0
C      1  0.5231370000000  0.4544420000000  0.5202780000000 1.0
C      1  0.4510010000000  0.4745630000000  0.4776540000000 1.0
C      1  0.5541280000000  0.4780890000000  0.5470680000000 1.0
C      1  0.4751500000000  0.4420900000000  0.4513900000000 1.0
C      1  0.4456240000000  0.5226270000000  0.5472770000000 1.0
C      1  0.5254700000000  0.5585350000000  0.4516250000000 1.0
C      1  0.5661060000000  0.5039720000000  0.5442480000000 1.0
C      1  0.5017430000000  0.4311810000000  0.4544860000000 1.0
C      1  0.4332200000000  0.4968580000000  0.5448150000000 1.0
C      1  0.4986190000000  0.5690000000000  0.4549050000000 1.0
C      1  0.4814070000000  0.4736800000000  0.5370270000000 1.0
C      1  0.4709590000000  0.5176060000000  0.4559150000000 1.0
C      1  0.5177380000000  0.5252760000000  0.5336010000000 1.0
C      1  0.5405100000000  0.4836840000000  0.4467570000000 1.0
C      1  0.4718750000000  0.4374870000000  0.5031870000000 1.0
C      1  0.4381670000000  0.5262600000000  0.4954980000000 1.0
C      1  0.5279370000000  0.5605190000000  0.5026820000000 1.0
C      1  0.5598000000000  0.4763100000000  0.4950400000000 1.0
C      1  0.4593400000000  0.4883110000000  0.4515420000000 1.0
C      1  0.4922670000000  0.5357360000000  0.5446320000000 1.0
C      1  0.5448330000000  0.5131370000000  0.4472920000000 1.0
C      1  0.5078390000000  0.4634330000000  0.5455640000000 1.0
C      1  0.4535970000000  0.5395380000000  0.4712030000000 1.0
C      1  0.5396950000000  0.5432600000000  0.5249030000000 1.0
C      1  0.5442480000000  0.4644770000000  0.4702680000000 1.0
C      1  0.4592680000000  0.4554720000000  0.5264400000000 1.0
C      1  0.5272760000000  0.4791820000000  0.5895960000000 1.0
C      1  0.4967270000000  0.4726830000000  0.4207070000000 1.0
C      1  0.4733040000000  0.5213740000000  0.5892990000000 1.0
C      1  0.5059040000000  0.5291180000000  0.4188030000000 1.0
C      1  0.4713570000000  0.5146550000000  0.6143990000000 1.0
C      1  0.4810290000000  0.5261170000000  0.4289890000000 1.0
C      1  0.5294690000000  0.4863290000000  0.6145610000000 1.0
C      1  0.5230140000000  0.4751010000000  0.4259630000000 1.0
C      1  0.4933790000000  0.5184950000000  0.4772060000000 1.0
C      1  0.5205380000000  0.5050320000000  0.5119220000000 1.0
C      1  0.5008070000000  0.4748570000000  0.4821510000000 1.0
C      1  0.4780330000000  0.4952090000000  0.5163200000000 1.0
C      1  0.5536810000000  0.4614430000000  0.5223310000000 1.0
C      1  0.4573880000000  0.4431080000000  0.4755260000000 1.0
C      1  0.4459380000000  0.5393640000000  0.5226410000000 1.0
C      1  0.5412180000000  0.5551960000000  0.4764610000000 1.0
C      1  0.4738440000000  0.4674050000000  0.4363380000000 1.0
C      1  0.4707550000000  0.5263730000000  0.5621330000000 1.0
C      1  0.5291040000000  0.5348670000000  0.4339170000000 1.0
C      1  0.5294670000000  0.4737910000000  0.5624650000000 1.0
C      1  0.5208950000000  0.4372930000000  0.4750830000000 1.0
C      1  0.4356810000000  0.4775740000000  0.5231220000000 1.0
C      1  0.4794240000000  0.5638340000000  0.4756680000000 1.0
C      1  0.5627130000000  0.5225560000000  0.5222590000000 1.0
C      1  0.5073380000000  0.4347790000000  0.5023420000000 1.0
C      1  0.4330510000000  0.4916740000000  0.4960710000000 1.0
C      1  0.4927120000000  0.5639970000000  0.5020060000000 1.0
C      1  0.5638830000000  0.5083400000000  0.4957460000000 1.0
C      1  0.5201090000000  0.5169430000000  0.4850470000000 1.0
C      1  0.5173990000000  0.4783740000000  0.5044570000000 1.0
C      1  0.4757500000000  0.4793410000000  0.4922590000000 1.0
C      1  0.4812070000000  0.5205950000000  0.5039170000000 1.0
END
