TITL C-2323482-8828-289 3.57485993561498e-06 125000 -363.899681417348 0 0 60 (Cs) n - 1
REM
REM in /home/bkarasulu/CARBON/AIRSS/Generating-Clusters/LCBOP/Higher-Symm/Only-C60/SD-CG/FIRE-HFTN
REM
REM
REM
REM
REM
REM ./C.cell (50c204cfd26239f34c78669fe23a5462)
REM
REM compiler GCC version 9.2.1 20190827 (Red Hat 9.2.1-1)
REM options -cpp -mtune=generic -march=x86-64 -g -O0 -fpre-include=/usr/include/finclude/math-vector-fortran.h
REM seed -992942943 922384316 1381603775 -395380521 407172672 422210598 -1896750661 -1621833465 1916927653 1402380316 -798675644 588326784 -230158095 -898278864 1832992869 339053972 -1288757711 -820912726 -465603335 -153617234 883634566 -1791646745 912246788 1864945963 -774926631 689467703 761394510 603832297 -792629079 1297925980 481788395 -213329715 903230206
REM
CELL 1.54180   50.00000   50.00000   50.00000   90.00000   90.00000   90.00000
LATT -1
SFAC C  
C      1  0.5679590000000  0.4865680000000  0.5372370000000 1.0
C      1  0.5667680000000  0.5134940000000  0.4624690000000 1.0
C      1  0.4350090000000  0.4864930000000  0.5374910000000 1.0
C      1  0.4338210000000  0.5134320000000  0.4627690000000 1.0
C      1  0.5679590000000  0.5134330000000  0.5372370000000 1.0
C      1  0.5667690000000  0.4865070000000  0.4624690000000 1.0
C      1  0.4350090000000  0.5135060000000  0.5374920000000 1.0
C      1  0.4338210000000  0.4865680000000  0.4627690000000 1.0
C      1  0.4850750000000  0.4548100000000  0.4547010000000 1.0
C      1  0.4871750000000  0.5469600000000  0.5440550000000 1.0
C      1  0.5146400000000  0.4531510000000  0.4557840000000 1.0
C      1  0.5167470000000  0.5453260000000  0.5453640000000 1.0
C      1  0.4850750000000  0.5451900000000  0.4547010000000 1.0
C      1  0.4871750000000  0.4530390000000  0.5440550000000 1.0
C      1  0.5146400000000  0.5468500000000  0.4557840000000 1.0
C      1  0.5167480000000  0.4546740000000  0.5453630000000 1.0
C      1  0.5260930000000  0.5261580000000  0.5650660000000 1.0
C      1  0.5237360000000  0.4749830000000  0.4394070000000 1.0
C      1  0.4781930000000  0.5248410000000  0.5600460000000 1.0
C      1  0.4756370000000  0.4738830000000  0.4349990000000 1.0
C      1  0.5260930000000  0.4738420000000  0.5650650000000 1.0
C      1  0.5237350000000  0.5250170000000  0.4394070000000 1.0
C      1  0.4781930000000  0.4751590000000  0.5600460000000 1.0
C      1  0.4756370000000  0.5261170000000  0.4349990000000 1.0
C      1  0.5604880000000  0.4620760000000  0.4755040000000 1.0
C      1  0.5616050000000  0.5376720000000  0.5242510000000 1.0
C      1  0.4401700000000  0.4623210000000  0.4757410000000 1.0
C      1  0.4412340000000  0.5380190000000  0.5244980000000 1.0
C      1  0.5604880000000  0.5379250000000  0.4755040000000 1.0
C      1  0.5616060000000  0.4623290000000  0.5242510000000 1.0
C      1  0.4401700000000  0.5376790000000  0.4757410000000 1.0
C      1  0.4412350000000  0.4619800000000  0.5244980000000 1.0
C      1  0.4668800000000  0.4471890000000  0.5242870000000 1.0
C      1  0.4657990000000  0.5516070000000  0.4748300000000 1.0
C      1  0.5360050000000  0.4483600000000  0.5251770000000 1.0
C      1  0.5348240000000  0.5526120000000  0.4756920000000 1.0
C      1  0.4668800000000  0.5528110000000  0.5242870000000 1.0
C      1  0.4658000000000  0.4483920000000  0.4748300000000 1.0
C      1  0.5360050000000  0.5516400000000  0.5251770000000 1.0
C      1  0.5348240000000  0.4473880000000  0.4756920000000 1.0
C      1  0.4266390000000  0.4577830000000  0.5003440000000 1.0
C      1  0.5751010000000  0.4578350000000  0.4996280000000 1.0
C      1  0.4266390000000  0.5422160000000  0.5003440000000 1.0
C      1  0.5751010000000  0.5421650000000  0.4996280000000 1.0
C      1  0.5143000000000  0.5892750000000  0.5009360000000 1.0
C      1  0.5143010000000  0.4107250000000  0.5009360000000 1.0
C      1  0.4875030000000  0.5893270000000  0.4989200000000 1.0
C      1  0.4875040000000  0.4106720000000  0.4989200000000 1.0
C      1  0.5295520000000  0.4342250000000  0.5008090000000 1.0
C      1  0.4721740000000  0.5658810000000  0.4991280000000 1.0
C      1  0.4721750000000  0.4341190000000  0.4991280000000 1.0
C      1  0.5295510000000  0.5657760000000  0.5008090000000 1.0
C      1  0.5201790000000  0.5000000000000  0.4514160000000 1.0
C      1  0.4818430000000  0.5000000000000  0.5477450000000 1.0
C      1  0.4729630000000  0.5000000000000  0.4285240000000 1.0
C      1  0.5287130000000  0.5000000000000  0.5715020000000 1.0
C      1  0.4917500000000  0.5000000000000  0.5208900000000 1.0
C      1  0.5103980000000  0.5000000000000  0.4779430000000 1.0
C      1  0.4794840000000  0.5000000000000  0.4942060000000 1.0
C      1  0.5201690000000  0.5000000000000  0.5095050000000 1.0
END
