TITL C-2323478-8180-337 -0.00356885709154766 125000 -365.200105014569 0 0 60 (C1) n - 1
REM
REM in /home/bkarasulu/CARBON/AIRSS/Generating-Clusters/LCBOP/Higher-Symm/Only-C60/SD-CG/FIRE-HFTN
REM
REM
REM
REM
REM
REM ./C.cell (50c204cfd26239f34c78669fe23a5462)
REM
REM compiler GCC version 9.2.1 20190827 (Red Hat 9.2.1-1)
REM options -cpp -mtune=generic -march=x86-64 -g -O0 -fpre-include=/usr/include/finclude/math-vector-fortran.h
REM seed -613329930 829024046 1163038258 -586979230 782677587 -825534307 2042114011 -396797091 1507648057 1279691561 -1435641118 -364971642 1162617238 -927617313 -2046830667 543131404 942671785 -159919631 118904131 128744072 -622819224 -1951535035 -1870712596 1622941507 175217161 914914006 23348857 453841637 -2038951143 -430074196 846721416 409975842 -1164668727
REM
CELL 1.54180   50.00000   50.00000   50.00000   90.00000   90.00000   90.00000
LATT -1
SFAC C  
C      1  0.5139470000000  0.4563670000000  0.4478230000000 1.0
C      1  0.5027240000000  0.5728920000000  0.4372150000000 1.0
C      1  0.4616560000000  0.5138170000000  0.5411600000000 1.0
C      1  0.4852670000000  0.4979110000000  0.5447890000000 1.0
C      1  0.5541500000000  0.5317150000000  0.4172150000000 1.0
C      1  0.4589960000000  0.4952330000000  0.4328010000000 1.0
C      1  0.4792610000000  0.5121110000000  0.4708700000000 1.0
C      1  0.4974200000000  0.4912370000000  0.4714730000000 1.0
C      1  0.5560950000000  0.4697820000000  0.5073850000000 1.0
C      1  0.4640580000000  0.5674210000000  0.5004810000000 1.0
C      1  0.5347200000000  0.5134560000000  0.5054090000000 1.0
C      1  0.4405940000000  0.4816870000000  0.5160480000000 1.0
C      1  0.5066820000000  0.5229380000000  0.5075190000000 1.0
C      1  0.5113090000000  0.4055460000000  0.5285810000000 1.0
C      1  0.4934110000000  0.4771320000000  0.5252390000000 1.0
C      1  0.4547670000000  0.5074430000000  0.5138030000000 1.0
C      1  0.4791760000000  0.4375350000000  0.4734510000000 1.0
C      1  0.5357190000000  0.5799970000000  0.4685070000000 1.0
C      1  0.4342320000000  0.4733460000000  0.5427580000000 1.0
C      1  0.5483500000000  0.4933270000000  0.5218710000000 1.0
C      1  0.5441230000000  0.4891140000000  0.4652310000000 1.0
C      1  0.4539730000000  0.5457460000000  0.4541010000000 1.0
C      1  0.5056250000000  0.4536170000000  0.5364060000000 1.0
C      1  0.4849280000000  0.5702860000000  0.5207590000000 1.0
C      1  0.5061880000000  0.5389640000000  0.5583280000000 1.0
C      1  0.4918130000000  0.4547390000000  0.5824420000000 1.0
C      1  0.5042510000000  0.4342380000000  0.4892860000000 1.0
C      1  0.5102040000000  0.5857180000000  0.4816150000000 1.0
C      1  0.4648990000000  0.4559590000000  0.5808090000000 1.0
C      1  0.5060700000000  0.5099920000000  0.5607740000000 1.0
C      1  0.5183590000000  0.4846760000000  0.4531430000000 1.0
C      1  0.4621160000000  0.5184070000000  0.4497570000000 1.0
C      1  0.5470380000000  0.5450760000000  0.4397470000000 1.0
C      1  0.4624030000000  0.4666040000000  0.4363610000000 1.0
C      1  0.5484520000000  0.4920520000000  0.5499410000000 1.0
C      1  0.4439340000000  0.4630050000000  0.5655840000000 1.0
C      1  0.5339990000000  0.5788880000000  0.5230670000000 1.0
C      1  0.5151500000000  0.3816900000000  0.5394410000000 1.0
C      1  0.5123210000000  0.4614540000000  0.5639700000000 1.0
C      1  0.4849590000000  0.5550350000000  0.5454950000000 1.0
C      1  0.4858610000000  0.4503820000000  0.4461370000000 1.0
C      1  0.5308900000000  0.5688810000000  0.4410670000000 1.0
C      1  0.4607330000000  0.5403370000000  0.5500580000000 1.0
C      1  0.5249940000000  0.4883640000000  0.5652190000000 1.0
C      1  0.4964070000000  0.4789050000000  0.4972630000000 1.0
C      1  0.4777040000000  0.5194290000000  0.4984900000000 1.0
C      1  0.4415290000000  0.4604920000000  0.4979110000000 1.0
C      1  0.5469510000000  0.5141920000000  0.4788240000000 1.0
C      1  0.5189020000000  0.3582690000000  0.5502580000000 1.0
C      1  0.5556980000000  0.5683500000000  0.5104510000000 1.0
C      1  0.5550190000000  0.5384790000000  0.4670640000000 1.0
C      1  0.4410070000000  0.4535120000000  0.4510430000000 1.0
C      1  0.5087940000000  0.5819740000000  0.5102560000000 1.0
C      1  0.5071000000000  0.4311650000000  0.5182090000000 1.0
C      1  0.4657140000000  0.5658420000000  0.4715970000000 1.0
C      1  0.5477280000000  0.4639570000000  0.4809980000000 1.0
C      1  0.4508710000000  0.4449580000000  0.4768250000000 1.0
C      1  0.5546470000000  0.5629670000000  0.4828720000000 1.0
C      1  0.4891230000000  0.5789510000000  0.4619590000000 1.0
C      1  0.5269900000000  0.4444440000000  0.4728430000000 1.0
END
