TITL C-2323492-8884-587 0.24603475003744 125000 -358.790085156116 0 0 60 (C1) n - 1
REM
REM in /home/bkarasulu/CARBON/AIRSS/Generating-Clusters/LCBOP/Higher-Symm/Only-C60/SD-CG/FIRE-HFTN
REM
REM
REM
REM
REM
REM ./C.cell (50c204cfd26239f34c78669fe23a5462)
REM
REM compiler GCC version 9.2.1 20190827 (Red Hat 9.2.1-1)
REM options -cpp -mtune=generic -march=x86-64 -g -O0 -fpre-include=/usr/include/finclude/math-vector-fortran.h
REM seed 2132093452 332033024 -1707173058 -198455937 297192156 1105776734 1860175563 -708361428 377922690 1323349744 -646988607 1606189325 -402005662 -1165809599 997933989 -1526760569 -92893489 -1432514726 -450802905 -983949163 400190859 -1156720092 351014862 1632323703 1916449584 1615190195 134700497 -1120594222 1280233683 -1410266535 1870979782 -1705115780 1384096173
REM
CELL 1.54180   50.00000   50.00000   50.00000   90.00000   90.00000   90.00000
LATT -1
SFAC C  
C      1  0.5254360000000  0.4552600000000  0.4195420000000 1.0
C      1  0.4992090000000  0.4602720000000  0.4111370000000 1.0
C      1  0.4311310000000  0.4371670000000  0.4173890000000 1.0
C      1  0.4913300000000  0.4915430000000  0.3706940000000 1.0
C      1  0.4535500000000  0.5610250000000  0.5157620000000 1.0
C      1  0.5754980000000  0.4903220000000  0.5575130000000 1.0
C      1  0.4740360000000  0.4623120000000  0.5618520000000 1.0
C      1  0.5437590000000  0.5139840000000  0.4636700000000 1.0
C      1  0.4834080000000  0.4823890000000  0.5431490000000 1.0
C      1  0.5812700000000  0.4980000000000  0.4869570000000 1.0
C      1  0.4737880000000  0.5445030000000  0.5713150000000 1.0
C      1  0.4938060000000  0.4655630000000  0.3842680000000 1.0
C      1  0.4778240000000  0.4995600000000  0.5930520000000 1.0
C      1  0.5728240000000  0.5168910000000  0.5604400000000 1.0
C      1  0.4502610000000  0.5117700000000  0.5267260000000 1.0
C      1  0.4463320000000  0.5379230000000  0.5674130000000 1.0
C      1  0.4620080000000  0.6039300000000  0.5391280000000 1.0
C      1  0.5351110000000  0.4522460000000  0.4853540000000 1.0
C      1  0.5446770000000  0.4563980000000  0.4378800000000 1.0
C      1  0.4332600000000  0.5699390000000  0.4990730000000 1.0
C      1  0.5250360000000  0.5936210000000  0.5120040000000 1.0
C      1  0.5171310000000  0.5250480000000  0.5760240000000 1.0
C      1  0.5500210000000  0.4646320000000  0.4640820000000 1.0
C      1  0.4637850000000  0.5343320000000  0.5151390000000 1.0
C      1  0.4673230000000  0.4668300000000  0.5031370000000 1.0
C      1  0.5082390000000  0.5170870000000  0.4959470000000 1.0
C      1  0.5559610000000  0.5330330000000  0.5447070000000 1.0
C      1  0.4853890000000  0.5620730000000  0.5510410000000 1.0
C      1  0.4740490000000  0.4405850000000  0.5150580000000 1.0
C      1  0.4536690000000  0.4484200000000  0.4240640000000 1.0
C      1  0.4606270000000  0.4794850000000  0.5810770000000 1.0
C      1  0.5259320000000  0.5666470000000  0.5149250000000 1.0
C      1  0.4855910000000  0.4878070000000  0.3435650000000 1.0
C      1  0.4781200000000  0.4604360000000  0.4303340000000 1.0
C      1  0.5077410000000  0.4890160000000  0.4951460000000 1.0
C      1  0.5818750000000  0.5184340000000  0.5047790000000 1.0
C      1  0.4817110000000  0.4720180000000  0.4555780000000 1.0
C      1  0.5247500000000  0.4447560000000  0.5461930000000 1.0
C      1  0.4927630000000  0.5322850000000  0.5141940000000 1.0
C      1  0.4850610000000  0.4760370000000  0.4828370000000 1.0
C      1  0.4640860000000  0.4874520000000  0.5226390000000 1.0
C      1  0.4665890000000  0.5773610000000  0.5354180000000 1.0
C      1  0.5636040000000  0.5363220000000  0.5171080000000 1.0
C      1  0.5433930000000  0.5485010000000  0.5006620000000 1.0
C      1  0.5605170000000  0.4912590000000  0.4687880000000 1.0
C      1  0.4382010000000  0.5145400000000  0.5532680000000 1.0
C      1  0.4365700000000  0.4912260000000  0.5700940000000 1.0
C      1  0.5303760000000  0.5298050000000  0.4830590000000 1.0
C      1  0.4889520000000  0.4466250000000  0.3622870000000 1.0
C      1  0.5176270000000  0.4296500000000  0.4870990000000 1.0
C      1  0.4899740000000  0.5238550000000  0.5837390000000 1.0
C      1  0.4841420000000  0.4604590000000  0.3384470000000 1.0
C      1  0.5373870000000  0.4644090000000  0.5317700000000 1.0
C      1  0.5617920000000  0.4731870000000  0.5423100000000 1.0
C      1  0.4702960000000  0.4393760000000  0.5442350000000 1.0
C      1  0.5284880000000  0.5361940000000  0.5525270000000 1.0
C      1  0.4140490000000  0.5782540000000  0.4835520000000 1.0
C      1  0.5280110000000  0.4714480000000  0.5057340000000 1.0
C      1  0.4941250000000  0.4259300000000  0.5006580000000 1.0
C      1  0.5085300000000  0.5505720000000  0.5344620000000 1.0
END
