TITL C-2323487-9546-615 9.60848622771573e-05 125000 -345.383243035479 0 0 60 (C1) n - 1
REM
REM in /home/bkarasulu/CARBON/AIRSS/Generating-Clusters/LCBOP/Higher-Symm/Only-C60/SD-CG/FIRE-HFTN
REM
REM
REM
REM
REM
REM ./C.cell (50c204cfd26239f34c78669fe23a5462)
REM
REM compiler GCC version 9.2.1 20190827 (Red Hat 9.2.1-1)
REM options -cpp -mtune=generic -march=x86-64 -g -O0 -fpre-include=/usr/include/finclude/math-vector-fortran.h
REM seed -1951107515 505418586 1758722092 -1019877959 -1106688508 -1393726261 -2019612227 657506849 532085870 -1008308635 -618869549 -1443804717 -1439732984 733799479 -415592399 -156236325 -1601341930 -664119422 -822841091 901672298 1123215963 -889070500 -1545871231 1316415989 631228509 950600347 -1532012411 1470537478 -2016017322 -1832131854 1792485025 -568053997 -265884153
REM
CELL 1.54180   50.00000   50.00000   50.00000   90.00000   90.00000   90.00000
LATT -1
SFAC C  
C      1  0.5065640000000  0.5258010000000  0.5059570000000 1.0
C      1  0.5034590000000  0.4741340000000  0.5039580000000 1.0
C      1  0.4295740000000  0.4897160000000  0.3935030000000 1.0
C      1  0.4010350000000  0.4921950000000  0.5855180000000 1.0
C      1  0.4425290000000  0.5358640000000  0.5077730000000 1.0
C      1  0.4439100000000  0.4624580000000  0.4867130000000 1.0
C      1  0.5301300000000  0.4612640000000  0.5399780000000 1.0
C      1  0.5251330000000  0.5261300000000  0.4574080000000 1.0
C      1  0.5200280000000  0.5516270000000  0.4492570000000 1.0
C      1  0.5391450000000  0.4615070000000  0.5656580000000 1.0
C      1  0.4498180000000  0.5054560000000  0.4031050000000 1.0
C      1  0.4278410000000  0.4868910000000  0.5872990000000 1.0
C      1  0.5438760000000  0.5726380000000  0.5739550000000 1.0
C      1  0.4979970000000  0.3962110000000  0.4494770000000 1.0
C      1  0.4619680000000  0.4969060000000  0.4523540000000 1.0
C      1  0.4537790000000  0.4999970000000  0.5451610000000 1.0
C      1  0.4825150000000  0.5099930000000  0.5447890000000 1.0
C      1  0.4863930000000  0.4829860000000  0.4619280000000 1.0
C      1  0.4878000000000  0.4503330000000  0.5062530000000 1.0
C      1  0.4887960000000  0.5482180000000  0.5018090000000 1.0
C      1  0.4925830000000  0.4818120000000  0.4162800000000 1.0
C      1  0.4593740000000  0.5257660000000  0.5865680000000 1.0
C      1  0.4675530000000  0.4950590000000  0.4224940000000 1.0
C      1  0.4463100000000  0.5038340000000  0.5741990000000 1.0
C      1  0.5112120000000  0.4390960000000  0.4310550000000 1.0
C      1  0.4987170000000  0.5568940000000  0.5719240000000 1.0
C      1  0.5155130000000  0.5144490000000  0.4816560000000 1.0
C      1  0.5168920000000  0.4830810000000  0.5273470000000 1.0
C      1  0.5226750000000  0.5639680000000  0.5588690000000 1.0
C      1  0.5097200000000  0.4206620000000  0.4522820000000 1.0
C      1  0.5640530000000  0.4899120000000  0.4803800000000 1.0
C      1  0.5663530000000  0.5122650000000  0.4955230000000 1.0
C      1  0.5469010000000  0.4439490000000  0.4767050000000 1.0
C      1  0.5502840000000  0.5569850000000  0.5143970000000 1.0
C      1  0.4637370000000  0.5401730000000  0.4895560000000 1.0
C      1  0.4599220000000  0.4571020000000  0.5098470000000 1.0
C      1  0.5368970000000  0.5078610000000  0.4392740000000 1.0
C      1  0.6021800000000  0.5295170000000  0.5553400000000 1.0
C      1  0.5669850000000  0.5337710000000  0.5144520000000 1.0
C      1  0.5513050000000  0.4693950000000  0.4641640000000 1.0
C      1  0.4380170000000  0.5187310000000  0.5278880000000 1.0
C      1  0.4410900000000  0.4790860000000  0.4652710000000 1.0
C      1  0.4616960000000  0.5249640000000  0.4649530000000 1.0
C      1  0.4530130000000  0.4720290000000  0.5334810000000 1.0
C      1  0.5328900000000  0.4384060000000  0.5222150000000 1.0
C      1  0.5209510000000  0.5850940000000  0.4909570000000 1.0
C      1  0.5063180000000  0.5096300000000  0.5301500000000 1.0
C      1  0.5055090000000  0.4881950000000  0.4804600000000 1.0
C      1  0.5472640000000  0.5761930000000  0.4926240000000 1.0
C      1  0.5556950000000  0.4395480000000  0.5040420000000 1.0
C      1  0.5857140000000  0.5316690000000  0.5352560000000 1.0
C      1  0.5368420000000  0.4794750000000  0.4406750000000 1.0
C      1  0.5254480000000  0.5626310000000  0.5307030000000 1.0
C      1  0.5211720000000  0.4291880000000  0.4766390000000 1.0
C      1  0.4370150000000  0.4654040000000  0.6015860000000 1.0
C      1  0.4531170000000  0.5311380000000  0.3941930000000 1.0
C      1  0.5043720000000  0.5708520000000  0.5102800000000 1.0
C      1  0.5092160000000  0.4306930000000  0.5040570000000 1.0
C      1  0.4782700000000  0.5445730000000  0.5839140000000 1.0
C      1  0.5149380000000  0.4666280000000  0.4264890000000 1.0
END
