TITL C-2323486-8761-309 -293.30504229626 125000 -350.504989487885 0 0 60 (C1) n - 1
REM
REM in /home/bkarasulu/CARBON/AIRSS/Generating-Clusters/LCBOP/Higher-Symm/Only-C60/SD-CG/FIRE-HFTN
REM
REM
REM
REM
REM
REM ./C.cell (50c204cfd26239f34c78669fe23a5462)
REM
REM compiler GCC version 9.2.1 20190827 (Red Hat 9.2.1-1)
REM options -cpp -mtune=generic -march=x86-64 -g -O0 -fpre-include=/usr/include/finclude/math-vector-fortran.h
REM seed -2040379123 1231688832 -103388054 1742033773 1603344625 -1173561882 -1377902626 -2074607432 -1167214677 1330913769 1345565052 1148469062 -1406430027 -626941790 779212758 1901631958 582219782 1792851654 186533017 1884153410 1274250847 -447002963 -232650643 515081733 -1671066303 250888119 -1410743531 -178055637 899314563 -885044084 2120688216 913958370 1562503159
REM
CELL 1.54180   50.00000   50.00000   50.00000   90.00000   90.00000   90.00000
LATT -1
SFAC C  
C      1  0.5442520000000  0.5395760000000  0.4840190000000 1.0
C      1  0.5425590000000  0.4605160000000  0.5166890000000 1.0
C      1  0.5199170000000  0.5279510000000  0.4379730000000 1.0
C      1  0.5196870000000  0.4728480000000  0.5620020000000 1.0
C      1  0.5494340000000  0.4995380000000  0.5396700000000 1.0
C      1  0.5488530000000  0.5006120000000  0.4599580000000 1.0
C      1  0.4694320000000  0.4689630000000  0.5522070000000 1.0
C      1  0.4687730000000  0.5326800000000  0.4468870000000 1.0
C      1  0.4530480000000  0.4517960000000  0.4850570000000 1.0
C      1  0.4565160000000  0.5438150000000  0.5119090000000 1.0
C      1  0.4546500000000  0.4444770000000  0.5114520000000 1.0
C      1  0.4501010000000  0.5585940000000  0.4869010000000 1.0
C      1  0.4938620000000  0.4829880000000  0.5538030000000 1.0
C      1  0.4935070000000  0.5190710000000  0.4460190000000 1.0
C      1  0.5335450000000  0.5006710000000  0.4354660000000 1.0
C      1  0.5342860000000  0.4992640000000  0.5641310000000 1.0
C      1  0.5856620000000  0.5112630000000  0.4917040000000 1.0
C      1  0.5849020000000  0.4866950000000  0.5070060000000 1.0
C      1  0.4163060000000  0.4786310000000  0.5034650000000 1.0
C      1  0.4154920000000  0.5207140000000  0.4926830000000 1.0
C      1  0.4705200000000  0.5563860000000  0.4640540000000 1.0
C      1  0.4714130000000  0.4452150000000  0.5354740000000 1.0
C      1  0.5143090000000  0.5295160000000  0.5593210000000 1.0
C      1  0.5138840000000  0.4703090000000  0.4415740000000 1.0
C      1  0.4873350000000  0.4872620000000  0.5077890000000 1.0
C      1  0.4839280000000  0.5098440000000  0.4919400000000 1.0
C      1  0.5282710000000  0.5095660000000  0.5220230000000 1.0
C      1  0.5269850000000  0.4941750000000  0.4779040000000 1.0
C      1  0.4827750000000  0.5349420000000  0.5040890000000 1.0
C      1  0.4991350000000  0.4640220000000  0.4973730000000 1.0
C      1  0.4807180000000  0.5411320000000  0.5556840000000 1.0
C      1  0.4829790000000  0.4602440000000  0.4452150000000 1.0
C      1  0.4469420000000  0.4858830000000  0.5547280000000 1.0
C      1  0.4469220000000  0.5149330000000  0.4448900000000 1.0
C      1  0.5250590000000  0.5483660000000  0.4615540000000 1.0
C      1  0.5242740000000  0.4511880000000  0.5399120000000 1.0
C      1  0.6057580000000  0.4689850000000  0.5046050000000 1.0
C      1  0.6078290000000  0.5273650000000  0.4934970000000 1.0
C      1  0.5016560000000  0.4974710000000  0.5297830000000 1.0
C      1  0.5007090000000  0.5054890000000  0.4703550000000 1.0
C      1  0.4402850000000  0.4912130000000  0.4590710000000 1.0
C      1  0.4379220000000  0.5100550000000  0.5427510000000 1.0
C      1  0.5285090000000  0.4675020000000  0.4898360000000 1.0
C      1  0.5359690000000  0.5354480000000  0.5120860000000 1.0
C      1  0.4999640000000  0.5621520000000  0.4721890000000 1.0
C      1  0.4995640000000  0.4346730000000  0.5300000000000 1.0
C      1  0.5639140000000  0.5194800000000  0.4751710000000 1.0
C      1  0.5630980000000  0.4800050000000  0.5241120000000 1.0
C      1  0.5071170000000  0.5693700000000  0.5273270000000 1.0
C      1  0.5079310000000  0.4278360000000  0.4723240000000 1.0
C      1  0.5276310000000  0.4502640000000  0.4638000000000 1.0
C      1  0.5284330000000  0.5514650000000  0.5346330000000 1.0
C      1  0.4556890000000  0.5328640000000  0.5399910000000 1.0
C      1  0.4583940000000  0.4683690000000  0.4611420000000 1.0
C      1  0.4994120000000  0.4348450000000  0.5002070000000 1.0
C      1  0.4984720000000  0.5598090000000  0.5013560000000 1.0
C      1  0.4200960000000  0.4942530000000  0.4790760000000 1.0
C      1  0.4166160000000  0.5077650000000  0.5247340000000 1.0
C      1  0.4876900000000  0.4309440000000  0.4515310000000 1.0
C      1  0.4871100000000  0.5687340000000  0.5478970000000 1.0
END
