TITL C-2323481-8605-382 3.31020671850747e-06 125000 -364.861430720567 0 0 60 (C1) n - 1
REM
REM in /home/bkarasulu/CARBON/AIRSS/Generating-Clusters/LCBOP/Higher-Symm/Only-C60/SD-CG/FIRE-HFTN
REM
REM
REM
REM
REM
REM ./C.cell (50c204cfd26239f34c78669fe23a5462)
REM
REM compiler GCC version 9.2.1 20190827 (Red Hat 9.2.1-1)
REM options -cpp -mtune=generic -march=x86-64 -g -O0 -fpre-include=/usr/include/finclude/math-vector-fortran.h
REM seed 867005591 -1284595687 657746540 157874111 -935799055 936973246 -182007632 -587179211 -1271952763 1458383420 1465077345 2115158380 -562125602 -411282662 -1746308936 577617759 2038710227 528514277 -722688623 -31761806 1386076211 -894544568 178568134 -1128196928 -138721374 940067071 623645496 -409194889 1021500893 -1867411865 -582363326 2008040748 62590298
REM
CELL 1.54180   50.00000   50.00000   50.00000   90.00000   90.00000   90.00000
LATT -1
SFAC C  
C      1  0.5301530000000  0.5519260000000  0.4287480000000 1.0
C      1  0.5803770000000  0.4559650000000  0.4932300000000 1.0
C      1  0.5504410000000  0.5395580000000  0.5682350000000 1.0
C      1  0.4612030000000  0.4563480000000  0.5750590000000 1.0
C      1  0.4266360000000  0.5540090000000  0.5038090000000 1.0
C      1  0.4647000000000  0.4452780000000  0.4368010000000 1.0
C      1  0.4487240000000  0.5693180000000  0.5049060000000 1.0
C      1  0.4730060000000  0.4301830000000  0.4575380000000 1.0
C      1  0.5128550000000  0.5674800000000  0.4423390000000 1.0
C      1  0.5614420000000  0.4376430000000  0.4876870000000 1.0
C      1  0.5423000000000  0.5592990000000  0.5518600000000 1.0
C      1  0.4718030000000  0.4372100000000  0.5593720000000 1.0
C      1  0.5203670000000  0.5038550000000  0.5228220000000 1.0
C      1  0.4908960000000  0.4938960000000  0.5306980000000 1.0
C      1  0.4731220000000  0.5086990000000  0.5080640000000 1.0
C      1  0.4809580000000  0.4913680000000  0.4804850000000 1.0
C      1  0.5075380000000  0.5076780000000  0.4712820000000 1.0
C      1  0.5282680000000  0.4946390000000  0.4926860000000 1.0
C      1  0.5642600000000  0.5274960000000  0.4786440000000 1.0
C      1  0.5490240000000  0.4683740000000  0.5449970000000 1.0
C      1  0.4849590000000  0.5269380000000  0.5690820000000 1.0
C      1  0.4323000000000  0.4804410000000  0.5173010000000 1.0
C      1  0.4447770000000  0.5150470000000  0.4534840000000 1.0
C      1  0.5165910000000  0.4791390000000  0.4296000000000 1.0
C      1  0.5361400000000  0.4432370000000  0.4767980000000 1.0
C      1  0.5329010000000  0.5558250000000  0.5255750000000 1.0
C      1  0.4916070000000  0.4416900000000  0.5399150000000 1.0
C      1  0.4732250000000  0.5614350000000  0.5161870000000 1.0
C      1  0.4727110000000  0.4396470000000  0.4840120000000 1.0
C      1  0.4919280000000  0.5574880000000  0.4582130000000 1.0
C      1  0.5306330000000  0.4367940000000  0.4499840000000 1.0
C      1  0.5473840000000  0.5660830000000  0.5038310000000 1.0
C      1  0.5173110000000  0.4307900000000  0.5427200000000 1.0
C      1  0.4785750000000  0.5683960000000  0.5430290000000 1.0
C      1  0.4490080000000  0.4367590000000  0.4992560000000 1.0
C      1  0.4651320000000  0.5598120000000  0.4500790000000 1.0
C      1  0.5407660000000  0.4951670000000  0.5435760000000 1.0
C      1  0.4816120000000  0.5010540000000  0.5587230000000 1.0
C      1  0.4431110000000  0.5061050000000  0.5129040000000 1.0
C      1  0.4601080000000  0.4919530000000  0.4581820000000 1.0
C      1  0.5177410000000  0.5038420000000  0.4428290000000 1.0
C      1  0.5573570000000  0.5015140000000  0.4867500000000 1.0
C      1  0.4880030000000  0.5375520000000  0.5057790000000 1.0
C      1  0.4899930000000  0.4626500000000  0.4925230000000 1.0
C      1  0.4977430000000  0.5366690000000  0.4768760000000 1.0
C      1  0.5205410000000  0.4641990000000  0.4881910000000 1.0
C      1  0.5149430000000  0.5341630000000  0.5205540000000 1.0
C      1  0.4888530000000  0.4645960000000  0.5230530000000 1.0
C      1  0.5309400000000  0.5251290000000  0.4297800000000 1.0
C      1  0.5775810000000  0.4826030000000  0.4918680000000 1.0
C      1  0.5496230000000  0.5132500000000  0.5632360000000 1.0
C      1  0.4666590000000  0.4825560000000  0.5738340000000 1.0
C      1  0.4256590000000  0.5277460000000  0.5089600000000 1.0
C      1  0.4589050000000  0.4713890000000  0.4389220000000 1.0
C      1  0.4825910000000  0.5531690000000  0.5647310000000 1.0
C      1  0.4330640000000  0.4543210000000  0.5117830000000 1.0
C      1  0.4459090000000  0.5412070000000  0.4481980000000 1.0
C      1  0.5228310000000  0.4531830000000  0.4302190000000 1.0
C      1  0.5611590000000  0.5533350000000  0.4846850000000 1.0
C      1  0.5410530000000  0.4429020000000  0.5455200000000 1.0
END
