TITL C-2323486-8761-360 0.0773839023553985 125000 -364.277367757974 0 0 60 (C1) n - 1
REM
REM in /home/bkarasulu/CARBON/AIRSS/Generating-Clusters/LCBOP/Higher-Symm/Only-C60/SD-CG/FIRE-HFTN
REM
REM
REM
REM
REM
REM ./C.cell (50c204cfd26239f34c78669fe23a5462)
REM
REM compiler GCC version 9.2.1 20190827 (Red Hat 9.2.1-1)
REM options -cpp -mtune=generic -march=x86-64 -g -O0 -fpre-include=/usr/include/finclude/math-vector-fortran.h
REM seed -325439016 -305751257 1859401469 -2000895188 -792237995 -1513376021 303999678 2031923597 416105357 -1858550392 2025122349 1867659091 -1490764079 -1219995266 -763011515 -1321277587 -411536046 666883819 -1069111476 -609525785 -424783149 -108408858 878627512 1890116338 -1150617409 1618632103 454007638 -2112281252 1952733011 -423771965 2065297124 -994037597 1552178868
REM
CELL 1.54180   50.00000   50.00000   50.00000   90.00000   90.00000   90.00000
LATT -1
SFAC C  
C      1  0.5252200000000  0.5334780000000  0.4494340000000 1.0
C      1  0.5203000000000  0.4739510000000  0.4415740000000 1.0
C      1  0.4750450000000  0.5243630000000  0.5597930000000 1.0
C      1  0.4811160000000  0.4621170000000  0.5593100000000 1.0
C      1  0.4291230000000  0.4718180000000  0.5430230000000 1.0
C      1  0.4254140000000  0.5315200000000  0.5462460000000 1.0
C      1  0.4249460000000  0.4742270000000  0.5153400000000 1.0
C      1  0.4212830000000  0.5334130000000  0.5185070000000 1.0
C      1  0.4539080000000  0.4636300000000  0.5529840000000 1.0
C      1  0.4512100000000  0.5356990000000  0.5564200000000 1.0
C      1  0.5225650000000  0.4657720000000  0.5083330000000 1.0
C      1  0.5190620000000  0.5328260000000  0.5150140000000 1.0
C      1  0.5876010000000  0.5111280000000  0.4826850000000 1.0
C      1  0.5906250000000  0.4646100000000  0.4461330000000 1.0
C      1  0.5470740000000  0.5719060000000  0.5066020000000 1.0
C      1  0.5403120000000  0.4319660000000  0.4762840000000 1.0
C      1  0.4115600000000  0.5218860000000  0.4481150000000 1.0
C      1  0.4104510000000  0.4945020000000  0.4467560000000 1.0
C      1  0.5063120000000  0.4178000000000  0.5656210000000 1.0
C      1  0.4496410000000  0.5955590000000  0.5051060000000 1.0
C      1  0.4787280000000  0.5192860000000  0.4607220000000 1.0
C      1  0.4775660000000  0.4903510000000  0.4587710000000 1.0
C      1  0.4908520000000  0.4387710000000  0.5715490000000 1.0
C      1  0.4246480000000  0.6022920000000  0.5020030000000 1.0
C      1  0.5238510000000  0.5547660000000  0.4324470000000 1.0
C      1  0.5126470000000  0.4568560000000  0.4216040000000 1.0
C      1  0.5972070000000  0.4858830000000  0.4909700000000 1.0
C      1  0.6027510000000  0.4679820000000  0.4698910000000 1.0
C      1  0.4747410000000  0.5874890000000  0.5078160000000 1.0
C      1  0.5212470000000  0.4102030000000  0.5448200000000 1.0
C      1  0.4090940000000  0.5133560000000  0.5605420000000 1.0
C      1  0.4115780000000  0.4864880000000  0.5596430000000 1.0
C      1  0.5241690000000  0.4730190000000  0.5359340000000 1.0
C      1  0.5204380000000  0.5234050000000  0.5416820000000 1.0
C      1  0.4269540000000  0.4807200000000  0.4657360000000 1.0
C      1  0.4286460000000  0.5322010000000  0.4687210000000 1.0
C      1  0.5032710000000  0.4785670000000  0.4639740000000 1.0
C      1  0.5048920000000  0.5277900000000  0.4685490000000 1.0
C      1  0.5139500000000  0.5150980000000  0.4932530000000 1.0
C      1  0.5143480000000  0.4859240000000  0.4898860000000 1.0
C      1  0.5303990000000  0.4391660000000  0.5013320000000 1.0
C      1  0.5217700000000  0.5607540000000  0.5103630000000 1.0
C      1  0.5449200000000  0.4883770000000  0.4397330000000 1.0
C      1  0.5473130000000  0.5153520000000  0.4495130000000 1.0
C      1  0.4237080000000  0.4905870000000  0.4927680000000 1.0
C      1  0.4236080000000  0.5196670000000  0.4943210000000 1.0
C      1  0.5685120000000  0.4739490000000  0.4342140000000 1.0
C      1  0.5697060000000  0.5212820000000  0.4655840000000 1.0
C      1  0.4974130000000  0.5097820000000  0.5520870000000 1.0
C      1  0.4999480000000  0.4812030000000  0.5499230000000 1.0
C      1  0.5290810000000  0.4190970000000  0.5209780000000 1.0
C      1  0.4988880000000  0.5767520000000  0.5096010000000 1.0
C      1  0.5492470000000  0.4180180000000  0.4561390000000 1.0
C      1  0.5709730000000  0.5815540000000  0.5027500000000 1.0
C      1  0.5490430000000  0.4850220000000  0.5445100000000 1.0
C      1  0.5451000000000  0.5124960000000  0.5506140000000 1.0
C      1  0.5741610000000  0.4757910000000  0.5366250000000 1.0
C      1  0.5923130000000  0.4772140000000  0.5171030000000 1.0
C      1  0.4558980000000  0.5355190000000  0.4620150000000 1.0
C      1  0.4536520000000  0.4758000000000  0.4580380000000 1.0
END
