TITL C-2323481-8605-62 3.22581646544636 125000 -351.837408189978 0 0 60 (C1) n - 1
REM
REM in /home/bkarasulu/CARBON/AIRSS/Generating-Clusters/LCBOP/Higher-Symm/Only-C60/SD-CG/FIRE-HFTN
REM
REM
REM
REM
REM
REM ./C.cell (50c204cfd26239f34c78669fe23a5462)
REM
REM compiler GCC version 9.2.1 20190827 (Red Hat 9.2.1-1)
REM options -cpp -mtune=generic -march=x86-64 -g -O0 -fpre-include=/usr/include/finclude/math-vector-fortran.h
REM seed -591791431 -1191628559 954301271 -1937813586 -1178151604 813940168 1749749482 1594429881 -1003914210 1078846592 96875907 2123302500 2065427435 -2062353313 1621401181 -1873824807 -460822437 564057284 2049331519 360516636 -84307637 -436449284 -70518994 -2146620923 -1826610779 -432957742 30242003 -140892329 -1485743135 764334475 -2125110524 961503852 -630358509
REM
CELL 1.54180   50.00000   50.00000   50.00000   90.00000   90.00000   90.00000
LATT -1
SFAC C  
C      1  0.4670450000000  0.3804250000000  0.4436750000000 1.0
C      1  0.3700760000000  0.4402110000000  0.4792640000000 1.0
C      1  0.4962380000000  0.6117030000000  0.4625990000000 1.0
C      1  0.5637800000000  0.5742850000000  0.4723540000000 1.0
C      1  0.5876130000000  0.4612230000000  0.4404320000000 1.0
C      1  0.5743170000000  0.4668950000000  0.4621170000000 1.0
C      1  0.4653350000000  0.3957560000000  0.4646810000000 1.0
C      1  0.3900080000000  0.4541370000000  0.4886430000000 1.0
C      1  0.4915120000000  0.5938540000000  0.4809890000000 1.0
C      1  0.5556540000000  0.5570920000000  0.4901710000000 1.0
C      1  0.4849150000000  0.5453570000000  0.4945480000000 1.0
C      1  0.5261210000000  0.5171140000000  0.4981240000000 1.0
C      1  0.5422930000000  0.4954070000000  0.4850420000000 1.0
C      1  0.4463940000000  0.4347310000000  0.4875960000000 1.0
C      1  0.4363130000000  0.4554970000000  0.5040310000000 1.0
C      1  0.4720040000000  0.4783450000000  0.5314420000000 1.0
C      1  0.4811390000000  0.5044670000000  0.5218500000000 1.0
C      1  0.5256540000000  0.5375810000000  0.6031970000000 1.0
C      1  0.5182250000000  0.4842560000000  0.5386160000000 1.0
C      1  0.4969550000000  0.4656910000000  0.5416250000000 1.0
C      1  0.4825610000000  0.5508400000000  0.5415890000000 1.0
C      1  0.5456600000000  0.5264280000000  0.5599050000000 1.0
C      1  0.5516530000000  0.4537570000000  0.5341170000000 1.0
C      1  0.4809150000000  0.4215310000000  0.5346620000000 1.0
C      1  0.4197420000000  0.5192850000000  0.5108760000000 1.0
C      1  0.5233460000000  0.5354910000000  0.5754730000000 1.0
C      1  0.5443700000000  0.4783390000000  0.5472300000000 1.0
C      1  0.5037140000000  0.4377400000000  0.5400280000000 1.0
C      1  0.4508850000000  0.4595020000000  0.5283050000000 1.0
C      1  0.4708810000000  0.5322350000000  0.5192310000000 1.0
C      1  0.4878750000000  0.5738810000000  0.4996640000000 1.0
C      1  0.5447210000000  0.5387220000000  0.5081880000000 1.0
C      1  0.5598630000000  0.4732670000000  0.4851220000000 1.0
C      1  0.4634470000000  0.4121380000000  0.4870850000000 1.0
C      1  0.4117560000000  0.4685300000000  0.4986040000000 1.0
C      1  0.4990460000000  0.5424340000000  0.5626480000000 1.0
C      1  0.5556020000000  0.4996780000000  0.5616530000000 1.0
C      1  0.5318340000000  0.4331380000000  0.5381130000000 1.0
C      1  0.4565000000000  0.4348450000000  0.5422590000000 1.0
C      1  0.4415430000000  0.5331040000000  0.5172330000000 1.0
C      1  0.4864500000000  0.5763890000000  0.5282040000000 1.0
C      1  0.5507260000000  0.5396110000000  0.5355950000000 1.0
C      1  0.5628170000000  0.4575620000000  0.5084740000000 1.0
C      1  0.4785330000000  0.4070060000000  0.5105700000000 1.0
C      1  0.4094020000000  0.4959100000000  0.5036970000000 1.0
C      1  0.5045920000000  0.5268430000000  0.4527510000000 1.0
C      1  0.5308170000000  0.5405960000000  0.6558450000000 1.0
C      1  0.5282140000000  0.5391090000000  0.6295160000000 1.0
C      1  0.5334200000000  0.5420820000000  0.6821740000000 1.0
C      1  0.5360240000000  0.5435690000000  0.7085110000000 1.0
C      1  0.5045940000000  0.5299370000000  0.4804120000000 1.0
C      1  0.5118840000000  0.5187690000000  0.3740230000000 1.0
C      1  0.5172030000000  0.5132280000000  0.3215830000000 1.0
C      1  0.5066320000000  0.5242600000000  0.4264730000000 1.0
C      1  0.5145430000000  0.5159990000000  0.3478030000000 1.0
C      1  0.5102760000000  0.5043330000000  0.5204650000000 1.0
C      1  0.5092260000000  0.5215380000000  0.4002430000000 1.0
C      1  0.5385840000000  0.5450310000000  0.7344140000000 1.0
C      1  0.5198630000000  0.5104570000000  0.2953560000000 1.0
C      1  0.5224790000000  0.5077320000000  0.2695610000000 1.0
END
