TITL C-2323491-8878-128 -2.13771065999674e-07 125000 -358.996216260447 0 0 60 (C1) n - 1
REM
REM in /home/bkarasulu/CARBON/AIRSS/Generating-Clusters/LCBOP/Higher-Symm/Only-C60/SD-CG/FIRE-HFTN
REM
REM
REM
REM
REM
REM ./C.cell (50c204cfd26239f34c78669fe23a5462)
REM
REM compiler GCC version 9.2.1 20190827 (Red Hat 9.2.1-1)
REM options -cpp -mtune=generic -march=x86-64 -g -O0 -fpre-include=/usr/include/finclude/math-vector-fortran.h
REM seed 1893651773 1272486825 -976163641 1642480011 -871435205 -1880970872 -1702025437 199131466 -1926459492 -575358045 -854469275 -1093527384 1973245460 470551233 -1881747100 462351002 1339698549 36614840 1114414067 761638603 1397294127 -1879351904 -358352110 2077818173 997493288 1000858281 -648872873 1151871222 854059674 318906414 -1088427133 1132821079 1308323019
REM
CELL 1.54180   50.00000   50.00000   50.00000   90.00000   90.00000   90.00000
LATT -1
SFAC C  
C      1  0.5561760000000  0.4944360000000  0.5658940000000 1.0
C      1  0.5568270000000  0.5641520000000  0.5043340000000 1.0
C      1  0.5566840000000  0.5042950000000  0.4329770000000 1.0
C      1  0.5571100000000  0.4348470000000  0.4957550000000 1.0
C      1  0.4521640000000  0.4873800000000  0.4283960000000 1.0
C      1  0.4525530000000  0.5718410000000  0.4873980000000 1.0
C      1  0.4520170000000  0.5129600000000  0.5714780000000 1.0
C      1  0.4527960000000  0.4274300000000  0.5126520000000 1.0
C      1  0.5515330000000  0.4594090000000  0.4864960000000 1.0
C      1  0.5510280000000  0.4853050000000  0.5411650000000 1.0
C      1  0.5513170000000  0.5399060000000  0.5143710000000 1.0
C      1  0.5512370000000  0.5140380000000  0.4573550000000 1.0
C      1  0.4418580000000  0.4522800000000  0.5104960000000 1.0
C      1  0.4417040000000  0.4898760000000  0.4534150000000 1.0
C      1  0.4419860000000  0.5468200000000  0.4893430000000 1.0
C      1  0.4414110000000  0.5110770000000  0.5464500000000 1.0
C      1  0.4876540000000  0.4921560000000  0.4690230000000 1.0
C      1  0.4872750000000  0.4690260000000  0.5083260000000 1.0
C      1  0.4870760000000  0.5084320000000  0.5311970000000 1.0
C      1  0.4877810000000  0.5313370000000  0.4919350000000 1.0
C      1  0.5018350000000  0.4821320000000  0.5310280000000 1.0
C      1  0.5022560000000  0.4694020000000  0.4822370000000 1.0
C      1  0.5024460000000  0.5184940000000  0.4689490000000 1.0
C      1  0.5022210000000  0.5311130000000  0.5182360000000 1.0
C      1  0.4898850000000  0.4222810000000  0.4819640000000 1.0
C      1  0.4886420000000  0.4818960000000  0.5778820000000 1.0
C      1  0.4892690000000  0.5780700000000  0.5183170000000 1.0
C      1  0.4887760000000  0.5183530000000  0.4221420000000 1.0
C      1  0.5245400000000  0.4093240000000  0.5248890000000 1.0
C      1  0.5234080000000  0.4753520000000  0.4083020000000 1.0
C      1  0.5242450000000  0.5902860000000  0.4755770000000 1.0
C      1  0.5236110000000  0.5241830000000  0.5908810000000 1.0
C      1  0.4973030000000  0.5341780000000  0.4440490000000 1.0
C      1  0.4981500000000  0.4444760000000  0.4663950000000 1.0
C      1  0.4975850000000  0.4663450000000  0.5559450000000 1.0
C      1  0.4977570000000  0.5560350000000  0.5339900000000 1.0
C      1  0.4980010000000  0.5300750000000  0.5805750000000 1.0
C      1  0.4987910000000  0.4195360000000  0.5302660000000 1.0
C      1  0.4980230000000  0.4700520000000  0.4194060000000 1.0
C      1  0.4983330000000  0.5806250000000  0.4699910000000 1.0
C      1  0.5298490000000  0.5205650000000  0.5124940000000 1.0
C      1  0.5301500000000  0.5113350000000  0.4765640000000 1.0
C      1  0.5303180000000  0.4789690000000  0.4906520000000 1.0
C      1  0.5300700000000  0.4904200000000  0.5212320000000 1.0
C      1  0.4579440000000  0.5227200000000  0.4941800000000 1.0
C      1  0.4575390000000  0.5066150000000  0.5225570000000 1.0
C      1  0.4577680000000  0.4760470000000  0.5061390000000 1.0
C      1  0.4579630000000  0.4949190000000  0.4770830000000 1.0
C      1  0.5466570000000  0.4156470000000  0.5111900000000 1.0
C      1  0.5455530000000  0.5100810000000  0.5848370000000 1.0
C      1  0.5463570000000  0.5834130000000  0.4890030000000 1.0
C      1  0.5458140000000  0.4888450000000  0.4140210000000 1.0
C      1  0.4796660000000  0.4189870000000  0.5085560000000 1.0
C      1  0.4787660000000  0.4916390000000  0.4192550000000 1.0
C      1  0.4791510000000  0.5809960000000  0.4916480000000 1.0
C      1  0.4785820000000  0.5086050000000  0.5807230000000 1.0
C      1  0.4963190000000  0.4383900000000  0.5515000000000 1.0
C      1  0.4959720000000  0.5515250000000  0.5619110000000 1.0
C      1  0.4956380000000  0.5621070000000  0.4484880000000 1.0
C      1  0.4962310000000  0.4489640000000  0.4384900000000 1.0
END
