TITL C-2323490-8774-111 1.34481858720589e-05 125000 -362.230855847587 0 0 60 (C1) n - 1
REM
REM in /home/bkarasulu/CARBON/AIRSS/Generating-Clusters/LCBOP/Higher-Symm/Only-C60/SD-CG/FIRE-HFTN
REM
REM
REM
REM
REM
REM ./C.cell (50c204cfd26239f34c78669fe23a5462)
REM
REM compiler GCC version 9.2.1 20190827 (Red Hat 9.2.1-1)
REM options -cpp -mtune=generic -march=x86-64 -g -O0 -fpre-include=/usr/include/finclude/math-vector-fortran.h
REM seed -1034786342 1116318881 1743617538 -248741198 1675043028 1908266445 -949141679 537793552 1409060300 1052526282 -1917281255 -1529150425 -978012429 -359924676 1966392199 -1048600786 2028186024 26229957 -1138155312 1083299834 -332998136 -922198363 -1510775856 -659281893 183953308 106180443 -1879018023 -482699846 1879603023 1308104660 2021555244 692284105 1360150556
REM
CELL 1.54180   50.00000   50.00000   50.00000   90.00000   90.00000   90.00000
LATT -1
SFAC C  
C      1  0.4890830000000  0.5679620000000  0.5155800000000 1.0
C      1  0.4887250000000  0.4339810000000  0.5114490000000 1.0
C      1  0.5740730000000  0.5231500000000  0.5266210000000 1.0
C      1  0.5732590000000  0.4754570000000  0.5207130000000 1.0
C      1  0.5496680000000  0.4895450000000  0.4638400000000 1.0
C      1  0.5488270000000  0.5189050000000  0.4656370000000 1.0
C      1  0.4549720000000  0.5128110000000  0.4442050000000 1.0
C      1  0.4533230000000  0.4844980000000  0.4454890000000 1.0
C      1  0.5470760000000  0.4827730000000  0.5333470000000 1.0
C      1  0.5463970000000  0.5148570000000  0.5351300000000 1.0
C      1  0.5203710000000  0.5626550000000  0.4623410000000 1.0
C      1  0.5353190000000  0.4425870000000  0.4664420000000 1.0
C      1  0.4752410000000  0.5731320000000  0.4726090000000 1.0
C      1  0.4856190000000  0.4110730000000  0.4677870000000 1.0
C      1  0.4365610000000  0.5188860000000  0.5133190000000 1.0
C      1  0.4348870000000  0.4895080000000  0.5147190000000 1.0
C      1  0.4468940000000  0.4692660000000  0.4976580000000 1.0
C      1  0.4492570000000  0.5354670000000  0.4932350000000 1.0
C      1  0.5484590000000  0.5776380000000  0.5013500000000 1.0
C      1  0.5469820000000  0.4177090000000  0.5068250000000 1.0
C      1  0.5330720000000  0.4554940000000  0.5350350000000 1.0
C      1  0.5318970000000  0.5421860000000  0.5341240000000 1.0
C      1  0.4904710000000  0.4740090000000  0.5311390000000 1.0
C      1  0.4882510000000  0.5252940000000  0.5313500000000 1.0
C      1  0.5049920000000  0.4499490000000  0.5305450000000 1.0
C      1  0.5034320000000  0.5487670000000  0.5321830000000 1.0
C      1  0.4225970000000  0.5327880000000  0.5328130000000 1.0
C      1  0.4183450000000  0.4794640000000  0.5346080000000 1.0
C      1  0.4628180000000  0.4656080000000  0.4270700000000 1.0
C      1  0.4704830000000  0.5284600000000  0.4266880000000 1.0
C      1  0.5259290000000  0.5805360000000  0.4845810000000 1.0
C      1  0.5290350000000  0.4225410000000  0.4855730000000 1.0
C      1  0.4843810000000  0.5513180000000  0.4299760000000 1.0
C      1  0.4703700000000  0.4399080000000  0.4280170000000 1.0
C      1  0.4931940000000  0.4860140000000  0.5055450000000 1.0
C      1  0.4920770000000  0.5133380000000  0.5059040000000 1.0
C      1  0.4681280000000  0.4713970000000  0.5766460000000 1.0
C      1  0.4655350000000  0.5255090000000  0.5768240000000 1.0
C      1  0.4622620000000  0.4461060000000  0.5062760000000 1.0
C      1  0.4668110000000  0.5586780000000  0.4964400000000 1.0
C      1  0.5287410000000  0.4702850000000  0.4673810000000 1.0
C      1  0.5254850000000  0.5348770000000  0.4679200000000 1.0
C      1  0.4558370000000  0.5115030000000  0.5980830000000 1.0
C      1  0.4571390000000  0.4842710000000  0.5979930000000 1.0
C      1  0.5055640000000  0.4756940000000  0.4824050000000 1.0
C      1  0.5048420000000  0.5246870000000  0.4839800000000 1.0
C      1  0.5008550000000  0.4189050000000  0.4901380000000 1.0
C      1  0.5024300000000  0.5868570000000  0.4987480000000 1.0
C      1  0.4445810000000  0.4736710000000  0.4700330000000 1.0
C      1  0.4450490000000  0.5267960000000  0.4666690000000 1.0
C      1  0.5492910000000  0.4326000000000  0.5293400000000 1.0
C      1  0.5486660000000  0.5635640000000  0.5244970000000 1.0
C      1  0.4767020000000  0.4194670000000  0.4440210000000 1.0
C      1  0.4932920000000  0.5664280000000  0.4520190000000 1.0
C      1  0.5726140000000  0.5294240000000  0.4781660000000 1.0
C      1  0.5753680000000  0.4793970000000  0.4724090000000 1.0
C      1  0.4770730000000  0.5134090000000  0.5539610000000 1.0
C      1  0.4785170000000  0.4847070000000  0.5539050000000 1.0
C      1  0.5847680000000  0.4877410000000  0.4978520000000 1.0
C      1  0.5841150000000  0.5164950000000  0.5008480000000 1.0
END
