TITL C-2323478-8180-437 0.532975932749011 125000 -368.467007818231 0 0 60 (C1) n - 1
REM
REM in /home/bkarasulu/CARBON/AIRSS/Generating-Clusters/LCBOP/Higher-Symm/Only-C60/SD-CG/FIRE-HFTN
REM
REM
REM
REM
REM
REM ./C.cell (50c204cfd26239f34c78669fe23a5462)
REM
REM compiler GCC version 9.2.1 20190827 (Red Hat 9.2.1-1)
REM options -cpp -mtune=generic -march=x86-64 -g -O0 -fpre-include=/usr/include/finclude/math-vector-fortran.h
REM seed 1192264030 -1750726233 -191237033 1558592298 560515458 475438778 1604742970 -1774730940 -649994835 616598950 -438708273 1954620003 -1941729015 480095807 -469115843 66994619 750712086 340232194 -1173693303 -1701369595 802097818 2127664208 -1523602233 -361875402 857573352 -246419520 -1288533394 -43239403 1683277127 -1142139585 -1078441858 -417681282 1162816910
REM
CELL 1.54180   50.00000   50.00000   50.00000   90.00000   90.00000   90.00000
LATT -1
SFAC C  
C      1  0.5401630000000  0.5298160000000  0.5691820000000 1.0
C      1  0.5367670000000  0.5788330000000  0.5166820000000 1.0
C      1  0.5280510000000  0.5546060000000  0.4438550000000 1.0
C      1  0.6249630000000  0.5009610000000  0.4451090000000 1.0
C      1  0.5190720000000  0.4712580000000  0.4320610000000 1.0
C      1  0.5300880000000  0.4223720000000  0.4943570000000 1.0
C      1  0.5412420000000  0.4578720000000  0.5614020000000 1.0
C      1  0.4396010000000  0.5142240000000  0.5433630000000 1.0
C      1  0.4342690000000  0.5316300000000  0.5212790000000 1.0
C      1  0.4251360000000  0.5235100000000  0.4954950000000 1.0
C      1  0.4081410000000  0.5010860000000  0.4911360000000 1.0
C      1  0.4203210000000  0.4774920000000  0.4808300000000 1.0
C      1  0.4357410000000  0.4617600000000  0.4987800000000 1.0
C      1  0.4451370000000  0.4863810000000  0.5407140000000 1.0
C      1  0.5546070000000  0.4692490000000  0.5414510000000 1.0
C      1  0.5543360000000  0.5220410000000  0.5481090000000 1.0
C      1  0.5542350000000  0.5599500000000  0.5099670000000 1.0
C      1  0.5500080000000  0.5453510000000  0.4556550000000 1.0
C      1  0.6004180000000  0.5027580000000  0.4548950000000 1.0
C      1  0.5409820000000  0.4746500000000  0.4466510000000 1.0
C      1  0.5462950000000  0.4433920000000  0.4943410000000 1.0
C      1  0.3809050000000  0.5021190000000  0.4967890000000 1.0
C      1  0.4247070000000  0.4740960000000  0.4533960000000 1.0
C      1  0.4387740000000  0.4341020000000  0.4965960000000 1.0
C      1  0.4500910000000  0.4704870000000  0.5632870000000 1.0
C      1  0.4469330000000  0.5261160000000  0.5678350000000 1.0
C      1  0.4432070000000  0.5582490000000  0.5238400000000 1.0
C      1  0.4356750000000  0.5367150000000  0.4730120000000 1.0
C      1  0.4860840000000  0.5878070000000  0.5243550000000 1.0
C      1  0.4758520000000  0.5544360000000  0.4442960000000 1.0
C      1  0.6736780000000  0.4973820000000  0.4256590000000 1.0
C      1  0.4672260000000  0.4703810000000  0.4240770000000 1.0
C      1  0.4810600000000  0.4050520000000  0.4941460000000 1.0
C      1  0.4940340000000  0.4514700000000  0.5820670000000 1.0
C      1  0.4926130000000  0.5370880000000  0.5890500000000 1.0
C      1  0.5546030000000  0.4702240000000  0.4933670000000 1.0
C      1  0.5572700000000  0.4846430000000  0.5178770000000 1.0
C      1  0.5586900000000  0.5130550000000  0.5216290000000 1.0
C      1  0.5605470000000  0.5337050000000  0.5018900000000 1.0
C      1  0.5635290000000  0.5290400000000  0.4740350000000 1.0
C      1  0.5746640000000  0.5046060000000  0.4651810000000 1.0
C      1  0.5576850000000  0.4821220000000  0.4678210000000 1.0
C      1  0.4667420000000  0.5340420000000  0.5837430000000 1.0
C      1  0.4616930000000  0.5773010000000  0.5248980000000 1.0
C      1  0.4530880000000  0.5469950000000  0.4557980000000 1.0
C      1  0.3555230000000  0.5031300000000  0.5026030000000 1.0
C      1  0.4425190000000  0.4717500000000  0.4337710000000 1.0
C      1  0.4559840000000  0.4138700000000  0.4949250000000 1.0
C      1  0.4686210000000  0.4580860000000  0.5778370000000 1.0
C      1  0.5074000000000  0.4085700000000  0.4941030000000 1.0
C      1  0.5198950000000  0.4515600000000  0.5759120000000 1.0
C      1  0.5185640000000  0.5353240000000  0.5836250000000 1.0
C      1  0.5125050000000  0.5884560000000  0.5216600000000 1.0
C      1  0.5019040000000  0.5574380000000  0.4399690000000 1.0
C      1  0.6495230000000  0.4991570000000  0.4353040000000 1.0
C      1  0.4937840000000  0.4701130000000  0.4240510000000 1.0
C      1  0.5044690000000  0.5262330000000  0.4928200000000 1.0
C      1  0.4533850000000  0.4761490000000  0.5156380000000 1.0
C      1  0.4954000000000  0.5023780000000  0.4978450000000 1.0
C      1  0.4784340000000  0.4837260000000  0.5058900000000 1.0
END
