TITL C-2323488-8613-266 -2.82404534477381e-08 125000 -363.25547359685 0 0 60 (D2d) n - 1
REM
REM in /home/bkarasulu/CARBON/AIRSS/Generating-Clusters/LCBOP/Higher-Symm/Only-C60/SD-CG/FIRE-HFTN
REM
REM
REM
REM
REM
REM ./C.cell (50c204cfd26239f34c78669fe23a5462)
REM
REM compiler GCC version 9.2.1 20190827 (Red Hat 9.2.1-1)
REM options -cpp -mtune=generic -march=x86-64 -g -O0 -fpre-include=/usr/include/finclude/math-vector-fortran.h
REM seed 1426519168 866553320 -1010966210 1647540115 1129034813 2055891596 -1170014366 2146622516 114974548 976147639 1939680524 -1540212278 1999753175 -1875433393 2011723100 365874614 918465703 -1542494725 3667858 65278981 396563525 544161506 1734662797 -464492027 -688821562 145325545 906341680 -1167234388 -1168279615 -1468542956 -707049848 -928557739 2024928360
REM
CELL 1.54180   50.00000   50.00000   50.00000   90.00000   90.00000   90.00000
LATT -1
SFAC C  
C      1  0.4715750000000  0.4918330000000  0.4309040000000 1.0
C      1  0.4913920000000  0.4287560000000  0.4718510000000 1.0
C      1  0.4420720000000  0.4747540000000  0.4927980000000 1.0
C      1  0.5284410000000  0.5081450000000  0.4309080000000 1.0
C      1  0.4715580000000  0.5081610000000  0.5690890000000 1.0
C      1  0.5284270000000  0.4918610000000  0.5690980000000 1.0
C      1  0.5086150000000  0.5712350000000  0.4718300000000 1.0
C      1  0.4913700000000  0.5712420000000  0.5281470000000 1.0
C      1  0.5086240000000  0.4287670000000  0.5281720000000 1.0
C      1  0.5579300000000  0.5252430000000  0.4928020000000 1.0
C      1  0.4420650000000  0.5252330000000  0.5071890000000 1.0
C      1  0.5579340000000  0.4747700000000  0.5072100000000 1.0
C      1  0.4928090000000  0.4747520000000  0.4420720000000 1.0
C      1  0.4309100000000  0.4918350000000  0.4715600000000 1.0
C      1  0.4718490000000  0.4287570000000  0.4913890000000 1.0
C      1  0.5072030000000  0.5252300000000  0.4420650000000 1.0
C      1  0.5071960000000  0.4747720000000  0.5579360000000 1.0
C      1  0.4927910000000  0.5252460000000  0.5579270000000 1.0
C      1  0.5690960000000  0.5081560000000  0.4715720000000 1.0
C      1  0.5690920000000  0.4918590000000  0.5284430000000 1.0
C      1  0.4309020000000  0.5081500000000  0.5284250000000 1.0
C      1  0.5281530000000  0.5712400000000  0.4913720000000 1.0
C      1  0.5281670000000  0.4287660000000  0.5086340000000 1.0
C      1  0.4718310000000  0.5712370000000  0.5086050000000 1.0
C      1  0.4822010000000  0.5413240000000  0.4394270000000 1.0
C      1  0.5388010000000  0.4376960000000  0.4822470000000 1.0
C      1  0.4396490000000  0.4811390000000  0.5392540000000 1.0
C      1  0.5178130000000  0.4586570000000  0.4394440000000 1.0
C      1  0.4821960000000  0.4586720000000  0.5605690000000 1.0
C      1  0.5177900000000  0.5413470000000  0.5605600000000 1.0
C      1  0.4612030000000  0.5622990000000  0.4822180000000 1.0
C      1  0.5387840000000  0.5623130000000  0.5177620000000 1.0
C      1  0.4612130000000  0.4376930000000  0.5177730000000 1.0
C      1  0.5603430000000  0.5188730000000  0.5392610000000 1.0
C      1  0.4396530000000  0.5188470000000  0.4607330000000 1.0
C      1  0.5603560000000  0.4811400000000  0.4607520000000 1.0
C      1  0.5392660000000  0.4811340000000  0.4396580000000 1.0
C      1  0.4394330000000  0.5413260000000  0.4821850000000 1.0
C      1  0.4822350000000  0.4376980000000  0.5388000000000 1.0
C      1  0.4607470000000  0.5188460000000  0.4396430000000 1.0
C      1  0.4607380000000  0.4811450000000  0.5603480000000 1.0
C      1  0.5392490000000  0.5188740000000  0.5603510000000 1.0
C      1  0.5605710000000  0.4586680000000  0.4822120000000 1.0
C      1  0.5605580000000  0.5413450000000  0.5178010000000 1.0
C      1  0.4394380000000  0.4586610000000  0.5178010000000 1.0
C      1  0.5177560000000  0.5623140000000  0.5387840000000 1.0
C      1  0.5177790000000  0.4376900000000  0.4612190000000 1.0
C      1  0.4822300000000  0.5622980000000  0.4611960000000 1.0
C      1  0.5008450000000  0.4862590000000  0.5326350000000 1.0
C      1  0.4902440000000  0.5257970000000  0.4902400000000 1.0
C      1  0.5097590000000  0.4741990000000  0.4902510000000 1.0
C      1  0.5326340000000  0.4862580000000  0.5008530000000 1.0
C      1  0.4902470000000  0.4742000000000  0.5097580000000 1.0
C      1  0.5097510000000  0.5258030000000  0.5097520000000 1.0
C      1  0.4673660000000  0.5137420000000  0.5008420000000 1.0
C      1  0.5326310000000  0.5137490000000  0.4991540000000 1.0
C      1  0.4673690000000  0.4862500000000  0.4991510000000 1.0
C      1  0.4991470000000  0.5137510000000  0.5326310000000 1.0
C      1  0.5008500000000  0.5137410000000  0.4673650000000 1.0
C      1  0.4991580000000  0.4862490000000  0.4673690000000 1.0
END
