TITL C-2323485-8600-226 0.188612235653214 125000 -353.065387451494 0 0 60 (C1) n - 1
REM
REM in /home/bkarasulu/CARBON/AIRSS/Generating-Clusters/LCBOP/Higher-Symm/Only-C60/SD-CG/FIRE-HFTN
REM
REM
REM
REM
REM
REM ./C.cell (50c204cfd26239f34c78669fe23a5462)
REM
REM compiler GCC version 9.2.1 20190827 (Red Hat 9.2.1-1)
REM options -cpp -mtune=generic -march=x86-64 -g -O0 -fpre-include=/usr/include/finclude/math-vector-fortran.h
REM seed 1010257200 -1506771812 -1194099459 -1900370112 -6886389 898940920 487965865 1279180547 1977460059 828765004 -672726662 237352118 1642028057 -1888826500 -1269217974 628904172 461673142 -776920052 -401646645 363532325 1617945946 870861497 125671337 1713843429 -1234688133 571902701 632834649 -1547166685 1973524315 419322587 172371939 -256079770 -787133500
REM
CELL 1.54180   50.00000   50.00000   50.00000   90.00000   90.00000   90.00000
LATT -1
SFAC C  
C      1  0.5841320000000  0.5182280000000  0.5156280000000 1.0
C      1  0.5688770000000  0.4741080000000  0.4963610000000 1.0
C      1  0.4218700000000  0.4785780000000  0.5167290000000 1.0
C      1  0.4223050000000  0.5218950000000  0.5057430000000 1.0
C      1  0.5734310000000  0.4921080000000  0.5193580000000 1.0
C      1  0.5826910000000  0.4795520000000  0.4722270000000 1.0
C      1  0.4231370000000  0.5024580000000  0.4846120000000 1.0
C      1  0.4238620000000  0.5037790000000  0.5295210000000 1.0
C      1  0.4515030000000  0.5934750000000  0.4458500000000 1.0
C      1  0.5350910000000  0.4315070000000  0.4514740000000 1.0
C      1  0.5374590000000  0.4112430000000  0.4352640000000 1.0
C      1  0.4497970000000  0.5718180000000  0.4602430000000 1.0
C      1  0.5111670000000  0.5038480000000  0.5747000000000 1.0
C      1  0.5145430000000  0.4824890000000  0.4276250000000 1.0
C      1  0.5199800000000  0.4871230000000  0.4025750000000 1.0
C      1  0.4885800000000  0.4926920000000  0.5725420000000 1.0
C      1  0.4678790000000  0.4699160000000  0.5271530000000 1.0
C      1  0.4486130000000  0.5490080000000  0.4760370000000 1.0
C      1  0.5403130000000  0.5365780000000  0.5286860000000 1.0
C      1  0.5318660000000  0.4534870000000  0.4681500000000 1.0
C      1  0.4619580000000  0.5242700000000  0.4689330000000 1.0
C      1  0.4696640000000  0.4934430000000  0.5469420000000 1.0
C      1  0.5354240000000  0.5117270000000  0.5446570000000 1.0
C      1  0.5082300000000  0.4766560000000  0.4555670000000 1.0
C      1  0.5134830000000  0.4954150000000  0.5305200000000 1.0
C      1  0.5108030000000  0.5003580000000  0.4745270000000 1.0
C      1  0.4875750000000  0.5156720000000  0.5320130000000 1.0
C      1  0.4874650000000  0.5200290000000  0.4799300000000 1.0
C      1  0.5197940000000  0.5432250000000  0.5081850000000 1.0
C      1  0.5091140000000  0.4852590000000  0.5020600000000 1.0
C      1  0.4942730000000  0.5305790000000  0.5062060000000 1.0
C      1  0.4882440000000  0.4654080000000  0.5062490000000 1.0
C      1  0.4478970000000  0.5345940000000  0.5590220000000 1.0
C      1  0.4522810000000  0.4763900000000  0.4547040000000 1.0
C      1  0.5488600000000  0.4655470000000  0.5523270000000 1.0
C      1  0.5600250000000  0.5187660000000  0.4541720000000 1.0
C      1  0.4408120000000  0.5639880000000  0.5233390000000 1.0
C      1  0.4479610000000  0.4460100000000  0.4902610000000 1.0
C      1  0.5624210000000  0.5519720000000  0.4880660000000 1.0
C      1  0.5417290000000  0.4377370000000  0.5153410000000 1.0
C      1  0.5578680000000  0.4913830000000  0.5438740000000 1.0
C      1  0.5748470000000  0.4951750000000  0.4517560000000 1.0
C      1  0.4429800000000  0.5075760000000  0.5504830000000 1.0
C      1  0.4444740000000  0.5017180000000  0.4657260000000 1.0
C      1  0.5667220000000  0.5407610000000  0.5147340000000 1.0
C      1  0.5473590000000  0.4545100000000  0.4925640000000 1.0
C      1  0.4339520000000  0.5476420000000  0.5008540000000 1.0
C      1  0.4426970000000  0.4602910000000  0.5151200000000 1.0
C      1  0.5194400000000  0.4665580000000  0.5446340000000 1.0
C      1  0.5333800000000  0.5200820000000  0.4667800000000 1.0
C      1  0.4753180000000  0.5408060000000  0.5473030000000 1.0
C      1  0.4800780000000  0.4659020000000  0.4593070000000 1.0
C      1  0.5337980000000  0.5448560000000  0.4833790000000 1.0
C      1  0.5159710000000  0.4427780000000  0.5282140000000 1.0
C      1  0.4694020000000  0.5642880000000  0.5302920000000 1.0
C      1  0.4769100000000  0.4511920000000  0.4844290000000 1.0
C      1  0.5746990000000  0.5418570000000  0.4642080000000 1.0
C      1  0.5596410000000  0.4423400000000  0.5383860000000 1.0
C      1  0.4296660000000  0.5548910000000  0.5490000000000 1.0
C      1  0.4356880000000  0.4544580000000  0.4654580000000 1.0
END
