TITL C-2323481-8605-244 12.7486251565583 125000 -366.5707112728 0 0 60 (C1) n - 1
REM
REM in /home/bkarasulu/CARBON/AIRSS/Generating-Clusters/LCBOP/Higher-Symm/Only-C60/SD-CG/FIRE-HFTN
REM
REM
REM
REM
REM
REM ./C.cell (50c204cfd26239f34c78669fe23a5462)
REM
REM compiler GCC version 9.2.1 20190827 (Red Hat 9.2.1-1)
REM options -cpp -mtune=generic -march=x86-64 -g -O0 -fpre-include=/usr/include/finclude/math-vector-fortran.h
REM seed -1193216364 1189740612 555339202 -680668685 -1469241337 1748997217 -107555180 -556400227 681357575 1961001534 1649422608 -507376745 764413335 -1869836494 599357582 2033550062 -1598333246 -1019247446 1340624301 1971906915 1852733640 -752800380 1544818655 -237880183 875322601 -1460656156 2070910759 1169688687 2066898091 -213227240 -84976798 964826525 -33524501
REM
CELL 1.54180   50.00000   50.00000   50.00000   90.00000   90.00000   90.00000
LATT -1
SFAC C  
C      1  0.3501840000000  0.4241360000000  0.5070640000000 1.0
C      1  0.3316830000000  0.4598770000000  0.4749270000000 1.0
C      1  0.3577610000000  0.5020130000000  0.4600860000000 1.0
C      1  0.4055730000000  0.5193410000000  0.4717330000000 1.0
C      1  0.4494770000000  0.5069700000000  0.5005110000000 1.0
C      1  0.4358390000000  0.4607410000000  0.5247350000000 1.0
C      1  0.3971790000000  0.4259360000000  0.5285870000000 1.0
C      1  0.5753690000000  0.4756880000000  0.5628360000000 1.0
C      1  0.5970800000000  0.5158090000000  0.5344060000000 1.0
C      1  0.6068160000000  0.5169040000000  0.4820940000000 1.0
C      1  0.5871730000000  0.4860040000000  0.4440660000000 1.0
C      1  0.5433790000000  0.4585960000000  0.4517360000000 1.0
C      1  0.5289730000000  0.4293870000000  0.4930430000000 1.0
C      1  0.5331650000000  0.4513820000000  0.5404010000000 1.0
C      1  0.5847100000000  0.4752830000000  0.4704250000000 1.0
C      1  0.5623690000000  0.4576110000000  0.4735180000000 1.0
C      1  0.5533840000000  0.4438510000000  0.4971460000000 1.0
C      1  0.5569400000000  0.4523100000000  0.5244220000000 1.0
C      1  0.5772760000000  0.4697070000000  0.5349670000000 1.0
C      1  0.5842340000000  0.4938920000000  0.5183340000000 1.0
C      1  0.5961630000000  0.4918550000000  0.4908480000000 1.0
C      1  0.4986170000000  0.4672720000000  0.4886370000000 1.0
C      1  0.4978260000000  0.4878770000000  0.5496310000000 1.0
C      1  0.5412680000000  0.5121760000000  0.5737880000000 1.0
C      1  0.5650060000000  0.5532910000000  0.5443880000000 1.0
C      1  0.5713300000000  0.5529350000000  0.4775940000000 1.0
C      1  0.5511280000000  0.5199220000000  0.4370820000000 1.0
C      1  0.5063480000000  0.4925630000000  0.4416320000000 1.0
C      1  0.5047280000000  0.4410880000000  0.4900390000000 1.0
C      1  0.5113000000000  0.4647080000000  0.5484080000000 1.0
C      1  0.5599790000000  0.4931260000000  0.5765120000000 1.0
C      1  0.5881080000000  0.5397450000000  0.5428620000000 1.0
C      1  0.5952960000000  0.5409490000000  0.4782450000000 1.0
C      1  0.5723670000000  0.5045910000000  0.4313900000000 1.0
C      1  0.5229390000000  0.4709930000000  0.4391160000000 1.0
C      1  0.5239970000000  0.5608410000000  0.4920500000000 1.0
C      1  0.4959790000000  0.5589560000000  0.4814490000000 1.0
C      1  0.4879110000000  0.5311880000000  0.4780460000000 1.0
C      1  0.4737610000000  0.5212910000000  0.5022160000000 1.0
C      1  0.4846040000000  0.5312470000000  0.5276610000000 1.0
C      1  0.4919570000000  0.5593550000000  0.5257080000000 1.0
C      1  0.5215210000000  0.5613880000000  0.5215040000000 1.0
C      1  0.5081260000000  0.5121590000000  0.4648360000000 1.0
C      1  0.5118860000000  0.4921520000000  0.4877790000000 1.0
C      1  0.5003490000000  0.5157860000000  0.5461520000000 1.0
C      1  0.5252270000000  0.5272810000000  0.5560150000000 1.0
C      1  0.5372920000000  0.5494250000000  0.5417470000000 1.0
C      1  0.5436040000000  0.5489000000000  0.4757250000000 1.0
C      1  0.5340580000000  0.5281680000000  0.4580280000000 1.0
C      1  0.4286690000000  0.5166350000000  0.4844870000000 1.0
C      1  0.4457720000000  0.4832520000000  0.5148400000000 1.0
C      1  0.4192690000000  0.4406240000000  0.5297470000000 1.0
C      1  0.3725720000000  0.4197700000000  0.5207030000000 1.0
C      1  0.3352960000000  0.4386220000000  0.4904770000000 1.0
C      1  0.3399870000000  0.4826840000000  0.4641030000000 1.0
C      1  0.3809500000000  0.5146080000000  0.4630280000000 1.0
C      1  0.4609480000000  0.5911350000000  0.5003640000000 1.0
C      1  0.5315230000000  0.4993600000000  0.5058030000000 1.0
C      1  0.5563070000000  0.5047530000000  0.5124700000000 1.0
C      1  0.4802900000000  0.5724050000000  0.5023110000000 1.0
END
