TITL C-2323490-8774-537 0.831775001913789 125000 -365.342956803543 0 0 60 (C1) n - 1
REM
REM in /home/bkarasulu/CARBON/AIRSS/Generating-Clusters/LCBOP/Higher-Symm/Only-C60/SD-CG/FIRE-HFTN
REM
REM
REM
REM
REM
REM ./C.cell (50c204cfd26239f34c78669fe23a5462)
REM
REM compiler GCC version 9.2.1 20190827 (Red Hat 9.2.1-1)
REM options -cpp -mtune=generic -march=x86-64 -g -O0 -fpre-include=/usr/include/finclude/math-vector-fortran.h
REM seed -254092440 269576606 1410541849 -1217478642 -2113196517 2069628189 -1875481109 -834897497 -457836563 1403415504 -490447308 977507741 -91082539 793506351 -1293250459 -1157952579 -169421721 -1646931645 -14337202 -1150924958 -819602820 -897597981 -624362539 -1265084893 -1971338951 -35360515 -579880965 -1620574678 525842417 -1776303121 1273699326 -1550816862 1458965050
REM
CELL 1.54180   50.00000   50.00000   50.00000   90.00000   90.00000   90.00000
LATT -1
SFAC C  
C      1  0.5707620000000  0.4782200000000  0.4654450000000 1.0
C      1  0.4119130000000  0.4955590000000  0.4739990000000 1.0
C      1  0.4834200000000  0.5599890000000  0.5559370000000 1.0
C      1  0.4903920000000  0.4956960000000  0.5818260000000 1.0
C      1  0.5479070000000  0.5390690000000  0.5433430000000 1.0
C      1  0.4505250000000  0.4727070000000  0.5279720000000 1.0
C      1  0.5219210000000  0.4668450000000  0.4491850000000 1.0
C      1  0.5132510000000  0.4927820000000  0.4392410000000 1.0
C      1  0.4927410000000  0.4186630000000  0.4039050000000 1.0
C      1  0.4944200000000  0.5599800000000  0.4358950000000 1.0
C      1  0.4769040000000  0.5811230000000  0.4808140000000 1.0
C      1  0.4832660000000  0.3943710000000  0.3577560000000 1.0
C      1  0.5449380000000  0.4651010000000  0.4654970000000 1.0
C      1  0.4852540000000  0.4970130000000  0.4450140000000 1.0
C      1  0.5128750000000  0.4829860000000  0.5703520000000 1.0
C      1  0.4813850000000  0.5596280000000  0.5276730000000 1.0
C      1  0.4783750000000  0.4269950000000  0.4983960000000 1.0
C      1  0.5484270000000  0.5512780000000  0.4734180000000 1.0
C      1  0.4810980000000  0.5091660000000  0.4699240000000 1.0
C      1  0.5399780000000  0.4608900000000  0.4940170000000 1.0
C      1  0.4922960000000  0.5244460000000  0.5864200000000 1.0
C      1  0.4705260000000  0.5373910000000  0.5704330000000 1.0
C      1  0.4532210000000  0.5155900000000  0.5609940000000 1.0
C      1  0.5153210000000  0.5418220000000  0.5858900000000 1.0
C      1  0.4308830000000  0.4929490000000  0.5209340000000 1.0
C      1  0.5585040000000  0.5317310000000  0.5685910000000 1.0
C      1  0.4880040000000  0.4065180000000  0.3808350000000 1.0
C      1  0.4835580000000  0.5741370000000  0.4558530000000 1.0
C      1  0.5382770000000  0.5202440000000  0.5244220000000 1.0
C      1  0.4774010000000  0.4841530000000  0.5198690000000 1.0
C      1  0.5429970000000  0.5689160000000  0.4932620000000 1.0
C      1  0.4728290000000  0.4259360000000  0.5251660000000 1.0
C      1  0.5022070000000  0.4715700000000  0.5242470000000 1.0
C      1  0.5150590000000  0.5255110000000  0.5079740000000 1.0
C      1  0.5095640000000  0.5398800000000  0.4263400000000 1.0
C      1  0.4974810000000  0.4308870000000  0.4269180000000 1.0
C      1  0.5577220000000  0.4781650000000  0.5103320000000 1.0
C      1  0.4581510000000  0.5113950000000  0.4866500000000 1.0
C      1  0.5352730000000  0.5766310000000  0.5182430000000 1.0
C      1  0.4667710000000  0.4371240000000  0.5496940000000 1.0
C      1  0.4695330000000  0.5145860000000  0.5151830000000 1.0
C      1  0.5435880000000  0.4929010000000  0.5301510000000 1.0
C      1  0.5263940000000  0.5193580000000  0.4373740000000 1.0
C      1  0.5025430000000  0.4446900000000  0.4508820000000 1.0
C      1  0.4753110000000  0.5779740000000  0.5074210000000 1.0
C      1  0.4786060000000  0.3824250000000  0.3350580000000 1.0
C      1  0.4883260000000  0.4354160000000  0.4743630000000 1.0
C      1  0.5452400000000  0.5309130000000  0.4556950000000 1.0
C      1  0.5065810000000  0.5149650000000  0.4829470000000 1.0
C      1  0.5150790000000  0.4555300000000  0.5052130000000 1.0
C      1  0.5115760000000  0.5623100000000  0.5643340000000 1.0
C      1  0.4637570000000  0.4883510000000  0.5707630000000 1.0
C      1  0.4448420000000  0.5159540000000  0.5335460000000 1.0
C      1  0.5420320000000  0.5335640000000  0.5901980000000 1.0
C      1  0.5211820000000  0.4807210000000  0.5437100000000 1.0
C      1  0.4903120000000  0.5344650000000  0.5186690000000 1.0
C      1  0.5324680000000  0.5635880000000  0.5434940000000 1.0
C      1  0.4569030000000  0.4638800000000  0.5550960000000 1.0
C      1  0.4318110000000  0.4996510000000  0.4920290000000 1.0
C      1  0.5781200000000  0.4856980000000  0.4911980000000 1.0
END
