TITL C-2323478-8180-236 13694.0921159079 125000 -342.39718694538 0 0 60 (C1) n - 1
REM
REM in /home/bkarasulu/CARBON/AIRSS/Generating-Clusters/LCBOP/Higher-Symm/Only-C60/SD-CG/FIRE-HFTN
REM
REM
REM
REM
REM
REM ./C.cell (50c204cfd26239f34c78669fe23a5462)
REM
REM compiler GCC version 9.2.1 20190827 (Red Hat 9.2.1-1)
REM options -cpp -mtune=generic -march=x86-64 -g -O0 -fpre-include=/usr/include/finclude/math-vector-fortran.h
REM seed -2084353534 -1021080530 -522768818 1171341644 -1688551368 1429213994 -755096613 222953272 1944370695 -854802779 164594081 1749220460 -487101000 408472239 1527660243 2065333456 1829309239 126176725 544432359 661723311 -110274412 -620031894 -2079726321 -1265816609 -12592494 -1394038984 -522167635 1086098081 1142107809 -2139021759 -1112308148 493235995 1745151543
REM
CELL 1.54180   50.00000   50.00000   50.00000   90.00000   90.00000   90.00000
LATT -1
SFAC C  
C      1  0.5200550000000  0.5160470000000  0.4842840000000 1.0
C      1  0.5184940000000  0.5190030000000  0.5125180000000 1.0
C      1  0.4860600000000  0.5154820000000  0.5149170000000 1.0
C      1  0.4813750000000  0.5128310000000  0.4838110000000 1.0
C      1  0.5135360000000  0.4812600000000  0.4852780000000 1.0
C      1  0.5152600000000  0.4802030000000  0.5160640000000 1.0
C      1  0.4874230000000  0.4826630000000  0.5220840000000 1.0
C      1  0.4834080000000  0.4837560000000  0.4828410000000 1.0
C      1  0.5774030000000  0.5401270000000  0.4811820000000 1.0
C      1  0.5279370000000  0.5165800000000  0.5629300000000 1.0
C      1  0.4258070000000  0.5393620000000  0.5135940000000 1.0
C      1  0.4863310000000  0.5371040000000  0.4222790000000 1.0
C      1  0.5613220000000  0.4845340000000  0.4689000000000 1.0
C      1  0.5195690000000  0.4623260000000  0.5762300000000 1.0
C      1  0.4369850000000  0.4855380000000  0.5315540000000 1.0
C      1  0.4668480000000  0.4827430000000  0.4381100000000 1.0
C      1  0.4746900000000  0.5366450000000  0.5329520000000 1.0
C      1  0.4667150000000  0.5357690000000  0.4705830000000 1.0
C      1  0.5281810000000  0.5381480000000  0.4660240000000 1.0
C      1  0.5333290000000  0.5427420000000  0.5246410000000 1.0
C      1  0.4750040000000  0.4582060000000  0.5358990000000 1.0
C      1  0.4655510000000  0.4594500000000  0.4788490000000 1.0
C      1  0.5222890000000  0.4583450000000  0.4673810000000 1.0
C      1  0.5358080000000  0.4617040000000  0.5260430000000 1.0
C      1  0.4454700000000  0.5443850000000  0.5311870000000 1.0
C      1  0.4700460000000  0.5449510000000  0.4419990000000 1.0
C      1  0.5564430000000  0.5489230000000  0.4668520000000 1.0
C      1  0.5278900000000  0.5432750000000  0.5540530000000 1.0
C      1  0.4451820000000  0.4570840000000  0.5304700000000 1.0
C      1  0.4660550000000  0.4550260000000  0.4483880000000 1.0
C      1  0.5525520000000  0.4565880000000  0.4690650000000 1.0
C      1  0.5354910000000  0.4556030000000  0.5556500000000 1.0
C      1  0.5690300000000  0.4931780000000  0.4961190000000 1.0
C      1  0.4974610000000  0.4795080000000  0.5760010000000 1.0
C      1  0.4295420000000  0.4920400000000  0.5039760000000 1.0
C      1  0.4949850000000  0.4894540000000  0.4309250000000 1.0
C      1  0.5748300000000  0.5213500000000  0.5016920000000 1.0
C      1  0.5014150000000  0.5075290000000  0.5698220000000 1.0
C      1  0.4259660000000  0.5190930000000  0.4943200000000 1.0
C      1  0.5047520000000  0.5165350000000  0.4259040000000 1.0
C      1  0.5180770000000  0.5644560000000  0.5110170000000 1.0
C      1  0.4872840000000  0.5614800000000  0.5178670000000 1.0
C      1  0.4796730000000  0.5592770000000  0.4854300000000 1.0
C      1  0.5122550000000  0.5613890000000  0.4798910000000 1.0
C      1  0.5235420000000  0.4356510000000  0.5145000000000 1.0
C      1  0.4879500000000  0.4364140000000  0.5201580000000 1.0
C      1  0.4816860000000  0.4371500000000  0.4916880000000 1.0
C      1  0.5099630000000  0.4356780000000  0.4822080000000 1.0
C      1  0.5613940000000  0.5291080000000  0.5258790000000 1.0
C      1  0.4752210000000  0.5188850000000  0.5588830000000 1.0
C      1  0.4393810000000  0.5218810000000  0.4686540000000 1.0
C      1  0.5295330000000  0.5212210000000  0.4401800000000 1.0
C      1  0.5594690000000  0.4816390000000  0.5232610000000 1.0
C      1  0.4728310000000  0.4711970000000  0.5638210000000 1.0
C      1  0.4386640000000  0.4756420000000  0.4804520000000 1.0
C      1  0.5197300000000  0.4746200000000  0.4406910000000 1.0
C      1  0.4547660000000  0.4957500000000  0.5557180000000 1.0
C      1  0.5435260000000  0.4953450000000  0.4457690000000 1.0
C      1  0.5548830000000  0.5047170000000  0.5431010000000 1.0
C      1  0.4436770000000  0.4950970000000  0.4554640000000 1.0
END
