TITL C-2323480-5884-472 1.99151607725051 125000 -368.937563846068 0 0 60 (C2) n - 1
REM
REM in /home/bkarasulu/CARBON/AIRSS/Generating-Clusters/LCBOP/Higher-Symm/Only-C60/SD-CG/FIRE-HFTN
REM
REM
REM
REM
REM
REM ./C.cell (50c204cfd26239f34c78669fe23a5462)
REM
REM compiler GCC version 9.2.1 20190827 (Red Hat 9.2.1-1)
REM options -cpp -mtune=generic -march=x86-64 -g -O0 -fpre-include=/usr/include/finclude/math-vector-fortran.h
REM seed 905430386 -2143655927 -1285012059 1904458184 364208130 -727901792 -1602833483 261514366 1412453595 2105769628 -894786620 -1666446349 1629790206 643391748 414810874 404067512 -1315420748 -1839651867 117181302 -73627702 1536402018 2067648657 -1758422131 1331108750 155614252 2134575348 292161088 648038161 565345418 656271795 81923806 322127832 -2046181766
REM
CELL 1.54180   50.00000   50.00000   50.00000   90.00000   90.00000   90.00000
LATT -1
SFAC C  
C      1  0.5104890000000  0.5093260000000  0.4333360000000 1.0
C      1  0.4895140000000  0.5093150000000  0.5666660000000 1.0
C      1  0.5106210000000  0.4822740000000  0.4331290000000 1.0
C      1  0.4893720000000  0.4822630000000  0.5668670000000 1.0
C      1  0.4994310000000  0.4596930000000  0.5530960000000 1.0
C      1  0.5005530000000  0.4597050000000  0.4468950000000 1.0
C      1  0.4996450000000  0.5317590000000  0.5527710000000 1.0
C      1  0.5003670000000  0.5317710000000  0.4472370000000 1.0
C      1  0.5096730000000  0.4966270000000  0.4910330000000 1.0
C      1  0.4903250000000  0.4966290000000  0.5089660000000 1.0
C      1  0.5322270000000  0.4944520000000  0.4772920000000 1.0
C      1  0.4677710000000  0.4944600000000  0.5227060000000 1.0
C      1  0.4681340000000  0.5466080000000  0.4793900000000 1.0
C      1  0.5318840000000  0.5465900000000  0.5206210000000 1.0
C      1  0.4685140000000  0.4456190000000  0.4793760000000 1.0
C      1  0.5314650000000  0.4456020000000  0.5206110000000 1.0
C      1  0.4077430000000  0.5196410000000  0.5477410000000 1.0
C      1  0.5922650000000  0.5196160000000  0.4522630000000 1.0
C      1  0.3799530000000  0.5172310000000  0.5456770000000 1.0
C      1  0.6200540000000  0.5171950000000  0.4543270000000 1.0
C      1  0.4950590000000  0.5564720000000  0.4866550000000 1.0
C      1  0.5049620000000  0.5564670000000  0.5133580000000 1.0
C      1  0.4951550000000  0.4352490000000  0.4865940000000 1.0
C      1  0.5048200000000  0.4352440000000  0.5133910000000 1.0
C      1  0.5432760000000  0.4823930000000  0.5537270000000 1.0
C      1  0.4567170000000  0.4824220000000  0.4462690000000 1.0
C      1  0.5434310000000  0.5091850000000  0.5534520000000 1.0
C      1  0.4565720000000  0.5092140000000  0.4465500000000 1.0
C      1  0.5679830000000  0.4716250000000  0.4984810000000 1.0
C      1  0.4320060000000  0.4716510000000  0.5015130000000 1.0
C      1  0.5746920000000  0.5286720000000  0.4992700000000 1.0
C      1  0.4253190000000  0.5287010000000  0.5007360000000 1.0
C      1  0.4164700000000  0.4848020000000  0.4814550000000 1.0
C      1  0.5835240000000  0.4847660000000  0.5185420000000 1.0
C      1  0.4147430000000  0.5122700000000  0.4797470000000 1.0
C      1  0.5852620000000  0.5122320000000  0.5202560000000 1.0
C      1  0.5598890000000  0.4903240000000  0.4777560000000 1.0
C      1  0.4401070000000  0.4903430000000  0.5222420000000 1.0
C      1  0.5763260000000  0.5133920000000  0.4745120000000 1.0
C      1  0.4236790000000  0.5134160000000  0.5254910000000 1.0
C      1  0.5143010000000  0.4418890000000  0.4654210000000 1.0
C      1  0.4856770000000  0.4418870000000  0.5345660000000 1.0
C      1  0.5141390000000  0.5495670000000  0.4656210000000 1.0
C      1  0.4858810000000  0.5495640000000  0.5343900000000 1.0
C      1  0.5808150000000  0.5278040000000  0.4288060000000 1.0
C      1  0.4191960000000  0.5278190000000  0.5712000000000 1.0
C      1  0.6458070000000  0.5146590000000  0.4574170000000 1.0
C      1  0.3541990000000  0.5147060000000  0.5425860000000 1.0
C      1  0.4721690000000  0.4607580000000  0.4549030000000 1.0
C      1  0.5278150000000  0.4607370000000  0.5450880000000 1.0
C      1  0.4719380000000  0.5309240000000  0.4552200000000 1.0
C      1  0.5280740000000  0.5309030000000  0.5447870000000 1.0
C      1  0.4591510000000  0.5524500000000  0.5260300000000 1.0
C      1  0.5408700000000  0.5524400000000  0.4739820000000 1.0
C      1  0.4588430000000  0.4397740000000  0.5260130000000 1.0
C      1  0.5411340000000  0.4397640000000  0.4739730000000 1.0
C      1  0.4484340000000  0.5455690000000  0.5001010000000 1.0
C      1  0.5515840000000  0.5455490000000  0.4999090000000 1.0
C      1  0.4493620000000  0.4490190000000  0.5003660000000 1.0
C      1  0.5506180000000  0.4489990000000  0.4996220000000 1.0
END
