TITL C-2323484-8600-343 -684.660109721149 125000 -335.044734268472 0 0 60 (Cs) n - 1
REM
REM in /home/bkarasulu/CARBON/AIRSS/Generating-Clusters/LCBOP/Higher-Symm/Only-C60/SD-CG/FIRE-HFTN
REM
REM
REM
REM
REM
REM ./C.cell (50c204cfd26239f34c78669fe23a5462)
REM
REM compiler GCC version 9.2.1 20190827 (Red Hat 9.2.1-1)
REM options -cpp -mtune=generic -march=x86-64 -g -O0 -fpre-include=/usr/include/finclude/math-vector-fortran.h
REM seed -1290139345 1814935782 -1099706682 1111281838 -502137295 -721952144 654485954 -1121905933 1987676034 523645225 -58210220 -940922358 -1417270905 -767621568 -1268455620 -79730356 -1533893338 499991833 -381922658 -131790585 -1684186545 -185928602 150312489 1068798473 1349783075 274798406 -918386859 1201538551 -1088765892 1901520078 -1989990874 -679724586 -605258451
REM
CELL 1.54180   50.00000   50.00000   50.00000   90.00000   90.00000   90.00000
LATT -1
SFAC C  
C      1  0.5106650000000  0.4717500000000  0.4372810000000 1.0
C      1  0.4765730000000  0.4822810000000  0.4405410000000 1.0
C      1  0.4741350000000  0.5168880000000  0.4370940000000 1.0
C      1  0.5069570000000  0.5282580000000  0.4378040000000 1.0
C      1  0.5285480000000  0.5007150000000  0.4401950000000 1.0
C      1  0.5106640000000  0.4717500000000  0.5627190000000 1.0
C      1  0.4765740000000  0.4822800000000  0.5594590000000 1.0
C      1  0.4741350000000  0.5168860000000  0.5629060000000 1.0
C      1  0.5069570000000  0.5282570000000  0.5621950000000 1.0
C      1  0.5285470000000  0.5007140000000  0.5598050000000 1.0
C      1  0.4669640000000  0.5354290000000  0.5152880000000 1.0
C      1  0.5239390000000  0.5418570000000  0.5151630000000 1.0
C      1  0.5642200000000  0.4872680000000  0.5140060000000 1.0
C      1  0.5062200000000  0.4454350000000  0.5183510000000 1.0
C      1  0.4370470000000  0.4737260000000  0.5142260000000 1.0
C      1  0.4669630000000  0.5354290000000  0.4847120000000 1.0
C      1  0.5239380000000  0.5418560000000  0.4848360000000 1.0
C      1  0.5642190000000  0.4872690000000  0.4859940000000 1.0
C      1  0.5062190000000  0.4454340000000  0.4816490000000 1.0
C      1  0.4370460000000  0.4737260000000  0.4857740000000 1.0
C      1  0.5211370000000  0.4888780000000  0.5144790000000 1.0
C      1  0.4979200000000  0.4719540000000  0.5214630000000 1.0
C      1  0.4772920000000  0.4894300000000  0.5141500000000 1.0
C      1  0.4863050000000  0.5152400000000  0.5214950000000 1.0
C      1  0.5145840000000  0.5155670000000  0.5214900000000 1.0
C      1  0.5211360000000  0.4888770000000  0.4855180000000 1.0
C      1  0.4979180000000  0.4719530000000  0.4785370000000 1.0
C      1  0.4772910000000  0.4894290000000  0.4858510000000 1.0
C      1  0.4863030000000  0.5152390000000  0.4785050000000 1.0
C      1  0.5145820000000  0.5155670000000  0.4785090000000 1.0
C      1  0.5009200000000  0.5948980000000  0.4865270000000 1.0
C      1  0.5791340000000  0.5405750000000  0.4864810000000 1.0
C      1  0.5591430000000  0.4261700000000  0.4864730000000 1.0
C      1  0.4554810000000  0.4213360000000  0.4864940000000 1.0
C      1  0.4102860000000  0.5379780000000  0.4864990000000 1.0
C      1  0.5009200000000  0.5948980000000  0.5134730000000 1.0
C      1  0.5791340000000  0.5405740000000  0.5135200000000 1.0
C      1  0.5591430000000  0.4261690000000  0.5135290000000 1.0
C      1  0.4554820000000  0.4213360000000  0.5135050000000 1.0
C      1  0.4102860000000  0.5379780000000  0.5135010000000 1.0
C      1  0.4246100000000  0.5368370000000  0.5365340000000 1.0
C      1  0.5060890000000  0.5809720000000  0.5360980000000 1.0
C      1  0.5703300000000  0.5278880000000  0.5359240000000 1.0
C      1  0.5473580000000  0.4320140000000  0.5373640000000 1.0
C      1  0.4552940000000  0.4364060000000  0.5361320000000 1.0
C      1  0.4246100000000  0.5368390000000  0.4634660000000 1.0
C      1  0.5060890000000  0.5809720000000  0.4639020000000 1.0
C      1  0.5703300000000  0.5278890000000  0.4640770000000 1.0
C      1  0.5473590000000  0.4320150000000  0.4626380000000 1.0
C      1  0.4552930000000  0.4364070000000  0.4638680000000 1.0
C      1  0.4523130000000  0.5344940000000  0.5406930000000 1.0
C      1  0.5155870000000  0.5548920000000  0.5402040000000 1.0
C      1  0.5565470000000  0.5027000000000  0.5388310000000 1.0
C      1  0.5220990000000  0.4431880000000  0.5431490000000 1.0
C      1  0.4523090000000  0.4649780000000  0.5396770000000 1.0
C      1  0.4523130000000  0.5344960000000  0.4593070000000 1.0
C      1  0.5155870000000  0.5548920000000  0.4597950000000 1.0
C      1  0.5565470000000  0.5027010000000  0.4611690000000 1.0
C      1  0.5221000000000  0.4431890000000  0.4568520000000 1.0
C      1  0.4523080000000  0.4649780000000  0.4603230000000 1.0
END
