TITL C-2323480-5884-581 13.2663736133222 125000 -355.365037058991 0 0 60 (C1) n - 1
REM
REM in /home/bkarasulu/CARBON/AIRSS/Generating-Clusters/LCBOP/Higher-Symm/Only-C60/SD-CG/FIRE-HFTN
REM
REM
REM
REM
REM
REM ./C.cell (50c204cfd26239f34c78669fe23a5462)
REM
REM compiler GCC version 9.2.1 20190827 (Red Hat 9.2.1-1)
REM options -cpp -mtune=generic -march=x86-64 -g -O0 -fpre-include=/usr/include/finclude/math-vector-fortran.h
REM seed -1897098283 1909846314 1368640279 1912215793 -1646622445 1805756130 611748585 301843623 1131437426 1519318735 174585627 -24298816 899588222 -1439794917 -446869225 -586078934 -502087782 1630215834 1114236910 -331840958 -1130564729 -1697688666 972192708 -617088169 1548194450 -1725838085 -393076076 1162236914 100420958 -158956647 2033277823 1346208223 -1016243425
REM
CELL 1.54180   50.00000   50.00000   50.00000   90.00000   90.00000   90.00000
LATT -1
SFAC C  
C      1  0.5427870000000  0.5890600000000  0.4315720000000 1.0
C      1  0.4321380000000  0.5054980000000  0.5946450000000 1.0
C      1  0.4629210000000  0.4732630000000  0.4572330000000 1.0
C      1  0.4477080000000  0.4775860000000  0.4821260000000 1.0
C      1  0.5796270000000  0.5243830000000  0.4629330000000 1.0
C      1  0.5127960000000  0.4512340000000  0.5514450000000 1.0
C      1  0.5643600000000  0.4276890000000  0.4331990000000 1.0
C      1  0.4564470000000  0.5197210000000  0.5903760000000 1.0
C      1  0.5085600000000  0.5303130000000  0.4553270000000 1.0
C      1  0.4523070000000  0.5612580000000  0.5276380000000 1.0
C      1  0.4444190000000  0.5073860000000  0.4840950000000 1.0
C      1  0.5267750000000  0.4930110000000  0.5299030000000 1.0
C      1  0.5722700000000  0.4873980000000  0.5135640000000 1.0
C      1  0.4306140000000  0.5213500000000  0.5045830000000 1.0
C      1  0.4987100000000  0.4411180000000  0.4590700000000 1.0
C      1  0.4855490000000  0.5384870000000  0.4712130000000 1.0
C      1  0.4448980000000  0.4751650000000  0.5597510000000 1.0
C      1  0.5055150000000  0.4492060000000  0.4853460000000 1.0
C      1  0.4586270000000  0.4315640000000  0.4328900000000 1.0
C      1  0.5221080000000  0.4868700000000  0.5782760000000 1.0
C      1  0.5143600000000  0.4310930000000  0.5049820000000 1.0
C      1  0.4579360000000  0.4461880000000  0.5259100000000 1.0
C      1  0.5451860000000  0.5515680000000  0.5172810000000 1.0
C      1  0.5001200000000  0.5070670000000  0.4405160000000 1.0
C      1  0.4625890000000  0.4539090000000  0.5534170000000 1.0
C      1  0.5289400000000  0.4760340000000  0.5526450000000 1.0
C      1  0.5907900000000  0.5397310000000  0.4432290000000 1.0
C      1  0.4740000000000  0.4981500000000  0.4483730000000 1.0
C      1  0.5491030000000  0.5286490000000  0.5026730000000 1.0
C      1  0.4729490000000  0.4482140000000  0.4491020000000 1.0
C      1  0.4329640000000  0.5487620000000  0.5108730000000 1.0
C      1  0.5492420000000  0.5034060000000  0.5163060000000 1.0
C      1  0.5935590000000  0.5021000000000  0.4729530000000 1.0
C      1  0.4640670000000  0.5195790000000  0.4669180000000 1.0
C      1  0.4395110000000  0.5870850000000  0.5661560000000 1.0
C      1  0.5509350000000  0.6350430000000  0.4074190000000 1.0
C      1  0.4286090000000  0.4818970000000  0.5815980000000 1.0
C      1  0.4564190000000  0.5429730000000  0.5742850000000 1.0
C      1  0.4763170000000  0.5669290000000  0.5141300000000 1.0
C      1  0.5339510000000  0.5419560000000  0.4574100000000 1.0
C      1  0.5390300000000  0.5658480000000  0.4437600000000 1.0
C      1  0.5540840000000  0.5308350000000  0.4744000000000 1.0
C      1  0.5008340000000  0.4755700000000  0.4943800000000 1.0
C      1  0.4943010000000  0.4809910000000  0.5844210000000 1.0
C      1  0.5468790000000  0.6122460000000  0.4193970000000 1.0
C      1  0.5166370000000  0.4319630000000  0.5316800000000 1.0
C      1  0.4790690000000  0.5028750000000  0.5933270000000 1.0
C      1  0.5349300000000  0.3972540000000  0.4105400000000 1.0
C      1  0.4502220000000  0.4959850000000  0.5408070000000 1.0
C      1  0.5387740000000  0.4173200000000  0.4287170000000 1.0
C      1  0.4767620000000  0.4999490000000  0.5302590000000 1.0
C      1  0.5009560000000  0.4923050000000  0.5171230000000 1.0
C      1  0.5877110000000  0.4381630000000  0.4381200000000 1.0
C      1  0.5911550000000  0.4863980000000  0.4945380000000 1.0
C      1  0.5171790000000  0.4277500000000  0.4430580000000 1.0
C      1  0.4865030000000  0.5579150000000  0.4910910000000 1.0
C      1  0.4881610000000  0.4572200000000  0.5663720000000 1.0
C      1  0.4276850000000  0.5060180000000  0.5277440000000 1.0
C      1  0.4489340000000  0.4579170000000  0.5028740000000 1.0
C      1  0.4495110000000  0.5635860000000  0.5560340000000 1.0
END
