TITL C-2323488-8613-125 -1441.59618638138 125000 -359.392292262738 0 0 60 (C1) n - 1
REM
REM in /home/bkarasulu/CARBON/AIRSS/Generating-Clusters/LCBOP/Higher-Symm/Only-C60/SD-CG/FIRE-HFTN
REM
REM
REM
REM
REM
REM ./C.cell (50c204cfd26239f34c78669fe23a5462)
REM
REM compiler GCC version 9.2.1 20190827 (Red Hat 9.2.1-1)
REM options -cpp -mtune=generic -march=x86-64 -g -O0 -fpre-include=/usr/include/finclude/math-vector-fortran.h
REM seed 1728720685 -1115751616 -1760271913 1830019170 -1551766102 1099660827 -1926138319 1112973445 -1930696723 -45167687 -1007385134 282527792 606156163 2085759233 1866495828 -1271313038 -118740845 274145113 460885903 -859922888 1573249265 -1051066690 -407583863 1661763684 1032504303 420371865 339686534 -1510359067 1740556168 1363983799 -430125297 493080688 335186240
REM
CELL 1.54180   50.00000   50.00000   50.00000   90.00000   90.00000   90.00000
LATT -1
SFAC C  
C      1  0.4937620000000  0.5603370000000  0.4902160000000 1.0
C      1  0.5534540000000  0.4787780000000  0.4929870000000 1.0
C      1  0.4522050000000  0.4628870000000  0.4902680000000 1.0
C      1  0.4937460000000  0.5513630000000  0.5506830000000 1.0
C      1  0.5546170000000  0.4799550000000  0.5534340000000 1.0
C      1  0.4456370000000  0.4603650000000  0.5519310000000 1.0
C      1  0.5390950000000  0.5496440000000  0.4418160000000 1.0
C      1  0.5226920000000  0.4408980000000  0.4445760000000 1.0
C      1  0.4364520000000  0.5093760000000  0.4435470000000 1.0
C      1  0.5312810000000  0.4363240000000  0.4992090000000 1.0
C      1  0.4312170000000  0.5071920000000  0.4960070000000 1.0
C      1  0.5425750000000  0.5584240000000  0.4946530000000 1.0
C      1  0.5598030000000  0.5041070000000  0.5637180000000 1.0
C      1  0.4659020000000  0.4474370000000  0.5635520000000 1.0
C      1  0.4756640000000  0.5359900000000  0.5657200000000 1.0
C      1  0.5117850000000  0.5423520000000  0.4449580000000 1.0
C      1  0.5287630000000  0.4684870000000  0.4480210000000 1.0
C      1  0.4567480000000  0.4895530000000  0.4459380000000 1.0
C      1  0.5101440000000  0.4746740000000  0.5790950000000 1.0
C      1  0.4855860000000  0.5189280000000  0.5855060000000 1.0
C      1  0.4992230000000  0.4964690000000  0.5897560000000 1.0
C      1  0.4404510000000  0.4830010000000  0.5072490000000 1.0
C      1  0.5171620000000  0.5583890000000  0.5067990000000 1.0
C      1  0.5404210000000  0.4601480000000  0.5109980000000 1.0
C      1  0.4398120000000  0.5539420000000  0.5390720000000 1.0
C      1  0.5841010000000  0.5318800000000  0.5344300000000 1.0
C      1  0.4895420000000  0.4181570000000  0.5358750000000 1.0
C      1  0.4103240000000  0.5030140000000  0.4389580000000 1.0
C      1  0.5467930000000  0.5751790000000  0.4360840000000 1.0
C      1  0.5420020000000  0.4221030000000  0.4403380000000 1.0
C      1  0.4912260000000  0.4389550000000  0.5544350000000 1.0
C      1  0.4494150000000  0.5329380000000  0.5553220000000 1.0
C      1  0.5631440000000  0.5299760000000  0.5533730000000 1.0
C      1  0.4403370000000  0.4827800000000  0.5361460000000 1.0
C      1  0.5170710000000  0.5534750000000  0.5353650000000 1.0
C      1  0.5356680000000  0.4640570000000  0.5395420000000 1.0
C      1  0.5129880000000  0.4573280000000  0.5566890000000 1.0
C      1  0.4392120000000  0.5072850000000  0.5501850000000 1.0
C      1  0.5410390000000  0.5469230000000  0.5490670000000 1.0
C      1  0.5135840000000  0.4855860000000  0.4325930000000 1.0
C      1  0.4796200000000  0.4944640000000  0.4312940000000 1.0
C      1  0.5035810000000  0.5207120000000  0.4299610000000 1.0
C      1  0.4686810000000  0.5657620000000  0.5021710000000 1.0
C      1  0.5720210000000  0.4979950000000  0.5024310000000 1.0
C      1  0.4632620000000  0.4390250000000  0.5011060000000 1.0
C      1  0.4920720000000  0.5537790000000  0.4621470000000 1.0
C      1  0.5484710000000  0.4809150000000  0.4645080000000 1.0
C      1  0.4569280000000  0.4658260000000  0.4618750000000 1.0
C      1  0.5785020000000  0.5249600000000  0.5076050000000 1.0
C      1  0.4850810000000  0.4226770000000  0.5084540000000 1.0
C      1  0.4445330000000  0.5546910000000  0.5112590000000 1.0
C      1  0.4656420000000  0.5524010000000  0.4515150000000 1.0
C      1  0.5610920000000  0.5031490000000  0.4518400000000 1.0
C      1  0.4706710000000  0.4439710000000  0.4497590000000 1.0
C      1  0.5659450000000  0.5454810000000  0.4930290000000 1.0
C      1  0.5090160000000  0.4224570000000  0.4938940000000 1.0
C      1  0.4321230000000  0.5339250000000  0.4968290000000 1.0
C      1  0.4454850000000  0.5361230000000  0.4447950000000 1.0
C      1  0.5575150000000  0.5283200000000  0.4435110000000 1.0
C      1  0.4951160000000  0.4347120000000  0.4439020000000 1.0
END
