TITL C-2323488-8613-524 -7.60023061509786e-07 125000 -348.136036121011 0 0 60 (C2) n - 1
REM
REM in /home/bkarasulu/CARBON/AIRSS/Generating-Clusters/LCBOP/Higher-Symm/Only-C60/SD-CG/FIRE-HFTN
REM
REM
REM
REM
REM
REM ./C.cell (50c204cfd26239f34c78669fe23a5462)
REM
REM compiler GCC version 9.2.1 20190827 (Red Hat 9.2.1-1)
REM options -cpp -mtune=generic -march=x86-64 -g -O0 -fpre-include=/usr/include/finclude/math-vector-fortran.h
REM seed -419036918 188013034 -1775008798 -521132108 -398235179 -1612817358 753246312 -2144152340 1803057991 683203438 941094519 -1441898752 1834613427 1173405266 -1643086429 -1800219837 -1323487867 -728495994 223213629 -1545847009 -1474016701 -1796728579 1230025280 1987050645 -1671601461 -510638336 -1526825320 -1875853824 -855126823 -517269350 670407168 -728452988 1858230088
REM
CELL 1.54180   50.00000   50.00000   50.00000   90.00000   90.00000   90.00000
LATT -1
SFAC C  
C      1  0.4329810000000  0.4570540000000  0.5085340000000 1.0
C      1  0.5670210000000  0.5429470000000  0.5085120000000 1.0
C      1  0.4292240000000  0.5446870000000  0.4938630000000 1.0
C      1  0.5707750000000  0.4553130000000  0.4938470000000 1.0
C      1  0.5094590000000  0.5737030000000  0.4717550000000 1.0
C      1  0.4905340000000  0.4262950000000  0.4717620000000 1.0
C      1  0.5090250000000  0.4271580000000  0.5273510000000 1.0
C      1  0.4909830000000  0.5728440000000  0.5273490000000 1.0
C      1  0.5161190000000  0.5262170000000  0.5046270000000 1.0
C      1  0.4838820000000  0.4737840000000  0.5046330000000 1.0
C      1  0.5258710000000  0.4719430000000  0.4844990000000 1.0
C      1  0.4741250000000  0.5280560000000  0.4845040000000 1.0
C      1  0.5199410000000  0.5266420000000  0.4550180000000 1.0
C      1  0.4800470000000  0.4733550000000  0.4550250000000 1.0
C      1  0.5184340000000  0.4740770000000  0.5458380000000 1.0
C      1  0.4815790000000  0.5259260000000  0.5458420000000 1.0
C      1  0.4587950000000  0.4570190000000  0.4938680000000 1.0
C      1  0.5412030000000  0.5429800000000  0.4938540000000 1.0
C      1  0.4569820000000  0.5444240000000  0.5059700000000 1.0
C      1  0.5430190000000  0.4555760000000  0.5059610000000 1.0
C      1  0.5009630000000  0.5239590000000  0.4797340000000 1.0
C      1  0.4990310000000  0.4760400000000  0.4797360000000 1.0
C      1  0.4980960000000  0.4855550000000  0.5257340000000 1.0
C      1  0.5019110000000  0.5144470000000  0.5257320000000 1.0
C      1  0.5269630000000  0.4298030000000  0.5049070000000 1.0
C      1  0.4730390000000  0.5701970000000  0.5049100000000 1.0
C      1  0.5273500000000  0.5703530000000  0.4946350000000 1.0
C      1  0.4726490000000  0.4296460000000  0.4946470000000 1.0
C      1  0.4499020000000  0.4590150000000  0.5497510000000 1.0
C      1  0.5501110000000  0.5409890000000  0.5497350000000 1.0
C      1  0.4454650000000  0.5434660000000  0.4515780000000 1.0
C      1  0.5545220000000  0.4565310000000  0.4515650000000 1.0
C      1  0.5583550000000  0.4991820000000  0.5181450000000 1.0
C      1  0.4416500000000  0.5008190000000  0.5181610000000 1.0
C      1  0.5607400000000  0.5001310000000  0.4819040000000 1.0
C      1  0.4392550000000  0.4998680000000  0.4819200000000 1.0
C      1  0.4556890000000  0.5231600000000  0.5279630000000 1.0
C      1  0.5443190000000  0.4768410000000  0.5279520000000 1.0
C      1  0.4527390000000  0.4771590000000  0.4706100000000 1.0
C      1  0.5472530000000  0.5228390000000  0.4705960000000 1.0
C      1  0.4843810000000  0.5556440000000  0.5492770000000 1.0
C      1  0.5156330000000  0.4443590000000  0.5492760000000 1.0
C      1  0.4829270000000  0.4433500000000  0.4495810000000 1.0
C      1  0.5170590000000  0.5566470000000  0.4495730000000 1.0
C      1  0.4622130000000  0.5650470000000  0.4567100000000 1.0
C      1  0.5377750000000  0.4349500000000  0.4567030000000 1.0
C      1  0.4637960000000  0.4360910000000  0.5433410000000 1.0
C      1  0.5362160000000  0.5639120000000  0.5433270000000 1.0
C      1  0.4808010000000  0.5754110000000  0.4769070000000 1.0
C      1  0.5191920000000  0.4245880000000  0.4769060000000 1.0
C      1  0.4807050000000  0.4249300000000  0.5225210000000 1.0
C      1  0.5193010000000  0.5750710000000  0.5225110000000 1.0
C      1  0.4899360000000  0.5096550000000  0.5700910000000 1.0
C      1  0.5100830000000  0.4903500000000  0.5700890000000 1.0
C      1  0.4898610000000  0.4909910000000  0.4336970000000 1.0
C      1  0.5101210000000  0.5090050000000  0.4336940000000 1.0
C      1  0.5680520000000  0.4737910000000  0.4711070000000 1.0
C      1  0.4319400000000  0.5262070000000  0.4711240000000 1.0
C      1  0.5639470000000  0.5244790000000  0.5305090000000 1.0
C      1  0.4360610000000  0.4755230000000  0.5305280000000 1.0
END
