TITL C-2323482-8828-324 4.880867783389e-05 125000 -343.203586421296 0 0 60 (C1) n - 1
REM
REM in /home/bkarasulu/CARBON/AIRSS/Generating-Clusters/LCBOP/Higher-Symm/Only-C60/SD-CG/FIRE-HFTN
REM
REM
REM
REM
REM
REM ./C.cell (50c204cfd26239f34c78669fe23a5462)
REM
REM compiler GCC version 9.2.1 20190827 (Red Hat 9.2.1-1)
REM options -cpp -mtune=generic -march=x86-64 -g -O0 -fpre-include=/usr/include/finclude/math-vector-fortran.h
REM seed 141008660 244976386 2045089147 -68739075 780664975 -464971961 -681099307 1203977409 -1891702013 2002769681 -1115029826 2070935868 861308646 462634904 -1588092453 1895459090 652394284 566509045 878301281 178727137 -1637724056 992577536 -1217989620 1094620380 1597341413 1474925462 -22142801 -1864273322 864476716 171902589 -1946276940 1751526563 -1015297155
REM
CELL 1.54180   50.00000   50.00000   50.00000   90.00000   90.00000   90.00000
LATT -1
SFAC C  
C      1  0.5117240000000  0.5156490000000  0.3742430000000 1.0
C      1  0.5132720000000  0.4958890000000  0.6363790000000 1.0
C      1  0.5199080000000  0.4903790000000  0.3720900000000 1.0
C      1  0.5266500000000  0.5182260000000  0.6304100000000 1.0
C      1  0.5136460000000  0.4706970000000  0.5485600000000 1.0
C      1  0.5183980000000  0.5328030000000  0.4673980000000 1.0
C      1  0.5268210000000  0.5287260000000  0.5274430000000 1.0
C      1  0.5260030000000  0.4678220000000  0.4648610000000 1.0
C      1  0.4260330000000  0.5257480000000  0.4869540000000 1.0
C      1  0.4280740000000  0.4709580000000  0.5093960000000 1.0
C      1  0.4280120000000  0.4724770000000  0.4822040000000 1.0
C      1  0.4272120000000  0.5246650000000  0.5142120000000 1.0
C      1  0.4483290000000  0.5151990000000  0.4723680000000 1.0
C      1  0.4496380000000  0.4826890000000  0.5239320000000 1.0
C      1  0.4484310000000  0.4870550000000  0.4684540000000 1.0
C      1  0.4490560000000  0.5111810000000  0.5269840000000 1.0
C      1  0.4986050000000  0.4838150000000  0.5280810000000 1.0
C      1  0.4996700000000  0.5140000000000  0.4838420000000 1.0
C      1  0.5012790000000  0.5131540000000  0.5171250000000 1.0
C      1  0.5008170000000  0.4854790000000  0.4709510000000 1.0
C      1  0.5275960000000  0.4446140000000  0.4836420000000 1.0
C      1  0.5266510000000  0.5572200000000  0.5181930000000 1.0
C      1  0.5304950000000  0.5826720000000  0.5141060000000 1.0
C      1  0.5346010000000  0.4222680000000  0.4950880000000 1.0
C      1  0.5526870000000  0.4814840000000  0.4660820000000 1.0
C      1  0.5523150000000  0.5152680000000  0.5192750000000 1.0
C      1  0.5452010000000  0.5393450000000  0.4722110000000 1.0
C      1  0.5397340000000  0.4615910000000  0.5439670000000 1.0
C      1  0.4731650000000  0.4679220000000  0.4325150000000 1.0
C      1  0.4777070000000  0.5293130000000  0.5607990000000 1.0
C      1  0.4654060000000  0.4656380000000  0.4077430000000 1.0
C      1  0.4724080000000  0.5308060000000  0.5862720000000 1.0
C      1  0.5275950000000  0.4571970000000  0.4100360000000 1.0
C      1  0.5349570000000  0.5349950000000  0.5828450000000 1.0
C      1  0.5040540000000  0.5436660000000  0.4164560000000 1.0
C      1  0.4975720000000  0.4650840000000  0.5995250000000 1.0
C      1  0.4717740000000  0.5549700000000  0.5183300000000 1.0
C      1  0.4733100000000  0.4452060000000  0.4773730000000 1.0
C      1  0.4758610000000  0.4453410000000  0.5059460000000 1.0
C      1  0.4712680000000  0.5548060000000  0.4898200000000 1.0
C      1  0.4750600000000  0.5273530000000  0.5309370000000 1.0
C      1  0.4739640000000  0.4718550000000  0.4621830000000 1.0
C      1  0.4748100000000  0.4699780000000  0.5201910000000 1.0
C      1  0.4726730000000  0.5284120000000  0.4784990000000 1.0
C      1  0.4696760000000  0.4218300000000  0.4635000000000 1.0
C      1  0.4683850000000  0.5774440000000  0.5334490000000 1.0
C      1  0.4691040000000  0.5773560000000  0.4746510000000 1.0
C      1  0.4779780000000  0.4218010000000  0.5198380000000 1.0
C      1  0.5017200000000  0.4754150000000  0.6237220000000 1.0
C      1  0.5055550000000  0.5351160000000  0.3913270000000 1.0
C      1  0.5348300000000  0.5323130000000  0.6093010000000 1.0
C      1  0.5261190000000  0.4685330000000  0.3860130000000 1.0
C      1  0.5630490000000  0.4703250000000  0.5341900000000 1.0
C      1  0.5686600000000  0.5270180000000  0.4680760000000 1.0
C      1  0.5683140000000  0.4942390000000  0.5232740000000 1.0
C      1  0.5713060000000  0.5005150000000  0.4647160000000 1.0
C      1  0.5283860000000  0.5298490000000  0.5576570000000 1.0
C      1  0.5248600000000  0.4575440000000  0.4364420000000 1.0
C      1  0.5016360000000  0.4652360000000  0.5732770000000 1.0
C      1  0.5079800000000  0.5418500000000  0.4426440000000 1.0
END
