TITL C-2323480-5884-237 39.550386734287 125000 -352.884009396882 0 0 60 (C1) n - 1
REM
REM in /home/bkarasulu/CARBON/AIRSS/Generating-Clusters/LCBOP/Higher-Symm/Only-C60/SD-CG/FIRE-HFTN
REM
REM
REM
REM
REM
REM ./C.cell (50c204cfd26239f34c78669fe23a5462)
REM
REM compiler GCC version 9.2.1 20190827 (Red Hat 9.2.1-1)
REM options -cpp -mtune=generic -march=x86-64 -g -O0 -fpre-include=/usr/include/finclude/math-vector-fortran.h
REM seed 383153954 1112315392 -387705158 -357442996 848535678 -841928616 -1842162558 -70347116 -1397041897 -437456212 678257234 2028706204 1370275784 -1299721791 601972679 1646423502 -1855846263 -1206290290 182633490 -431780555 2079238705 -1620020088 1125805778 -616095267 -1688815254 -1971681606 1764634749 -399028013 -1210786630 -465355538 1367049335 370686300 -49159205
REM
CELL 1.54180   50.00000   50.00000   50.00000   90.00000   90.00000   90.00000
LATT -1
SFAC C  
C      1  0.5191070000000  0.5072550000000  0.5590160000000 1.0
C      1  0.5032050000000  0.4815430000000  0.5496960000000 1.0
C      1  0.4762290000000  0.4808780000000  0.5610560000000 1.0
C      1  0.4981050000000  0.5308890000000  0.5606150000000 1.0
C      1  0.4781940000000  0.5010340000000  0.4922250000000 1.0
C      1  0.4978140000000  0.5236370000000  0.4905800000000 1.0
C      1  0.5213320000000  0.5048830000000  0.4906530000000 1.0
C      1  0.5017790000000  0.4795810000000  0.4920910000000 1.0
C      1  0.5026310000000  0.4533080000000  0.4527960000000 1.0
C      1  0.4516670000000  0.4952270000000  0.4542260000000 1.0
C      1  0.4954490000000  0.5499990000000  0.4513980000000 1.0
C      1  0.5462450000000  0.5025860000000  0.4512600000000 1.0
C      1  0.4289920000000  0.5221680000000  0.5153520000000 1.0
C      1  0.5285990000000  0.5764740000000  0.5039220000000 1.0
C      1  0.5755820000000  0.4755070000000  0.5062250000000 1.0
C      1  0.4776690000000  0.4224480000000  0.5065050000000 1.0
C      1  0.5028650000000  0.4542380000000  0.4811780000000 1.0
C      1  0.4526330000000  0.4968530000000  0.4827930000000 1.0
C      1  0.4973770000000  0.5491910000000  0.4797520000000 1.0
C      1  0.5466690000000  0.5037590000000  0.4798700000000 1.0
C      1  0.5027040000000  0.4339550000000  0.5010170000000 1.0
C      1  0.4345560000000  0.4964320000000  0.5049200000000 1.0
C      1  0.5017870000000  0.5689660000000  0.4995830000000 1.0
C      1  0.5658500000000  0.5013180000000  0.5008590000000 1.0
C      1  0.4920660000000  0.5739710000000  0.4376860000000 1.0
C      1  0.5695770000000  0.5034360000000  0.4361610000000 1.0
C      1  0.5049970000000  0.4295750000000  0.4385450000000 1.0
C      1  0.4275960000000  0.4924770000000  0.4405700000000 1.0
C      1  0.4760540000000  0.5240550000000  0.5781010000000 1.0
C      1  0.5231450000000  0.4995850000000  0.5890290000000 1.0
C      1  0.4998520000000  0.4915010000000  0.6017650000000 1.0
C      1  0.4761600000000  0.4963110000000  0.5858570000000 1.0
C      1  0.4956660000000  0.5533830000000  0.5445670000000 1.0
C      1  0.5437140000000  0.5132690000000  0.5434440000000 1.0
C      1  0.5157420000000  0.4584120000000  0.5402730000000 1.0
C      1  0.4533830000000  0.4758800000000  0.5456820000000 1.0
C      1  0.5523640000000  0.5666970000000  0.5112790000000 1.0
C      1  0.5683150000000  0.4505020000000  0.5121850000000 1.0
C      1  0.4519700000000  0.4288730000000  0.5101490000000 1.0
C      1  0.4392680000000  0.5464980000000  0.5200010000000 1.0
C      1  0.5965220000000  0.5536580000000  0.5257160000000 1.0
C      1  0.5569540000000  0.4044170000000  0.5215190000000 1.0
C      1  0.4049420000000  0.4401440000000  0.5086800000000 1.0
C      1  0.4450620000000  0.5943250000000  0.5190600000000 1.0
C      1  0.5706250000000  0.5470610000000  0.5198950000000 1.0
C      1  0.5494680000000  0.4305050000000  0.5184200000000 1.0
C      1  0.4308700000000  0.4472500000000  0.5135590000000 1.0
C      1  0.4560480000000  0.5692720000000  0.5204200000000 1.0
C      1  0.5616910000000  0.5200680000000  0.5225580000000 1.0
C      1  0.5223010000000  0.4384440000000  0.5214980000000 1.0
C      1  0.4374700000000  0.4736080000000  0.5223930000000 1.0
C      1  0.4844200000000  0.5663860000000  0.5223240000000 1.0
C      1  0.4046300000000  0.4896060000000  0.4285930000000 1.0
C      1  0.4889710000000  0.5968690000000  0.4256330000000 1.0
C      1  0.5918550000000  0.5041170000000  0.4226580000000 1.0
C      1  0.5072380000000  0.4068710000000  0.4259490000000 1.0
C      1  0.4970400000000  0.5254830000000  0.4383460000000 1.0
C      1  0.5205230000000  0.5005050000000  0.4391320000000 1.0
C      1  0.4998860000000  0.4784050000000  0.4401450000000 1.0
C      1  0.4765780000000  0.4964480000000  0.4406200000000 1.0
END
