TITL C-2323483-8886-97 0.00722204641526958 125000 -351.797194477229 0 0 60 (C1) n - 1
REM
REM in /home/bkarasulu/CARBON/AIRSS/Generating-Clusters/LCBOP/Higher-Symm/Only-C60/SD-CG/FIRE-HFTN
REM
REM
REM
REM
REM
REM ./C.cell (50c204cfd26239f34c78669fe23a5462)
REM
REM compiler GCC version 9.2.1 20190827 (Red Hat 9.2.1-1)
REM options -cpp -mtune=generic -march=x86-64 -g -O0 -fpre-include=/usr/include/finclude/math-vector-fortran.h
REM seed -2075754885 -624410045 -1757623122 -809451703 589679288 1460467089 -2009736798 -7431133 1256627406 -538272809 -644181708 -512891137 -976728994 -1665342102 -916348871 -1868215951 1417436098 1499457382 -1198638665 743019335 1244297872 -352254718 -141702174 1251129337 837558835 -100398712 1207930936 -536316762 -1219235374 1188529880 -401654260 -1076940123 644947947
REM
CELL 1.54180   50.00000   50.00000   50.00000   90.00000   90.00000   90.00000
LATT -1
SFAC C  
C      1  0.5382710000000  0.4708280000000  0.4669700000000 1.0
C      1  0.4687170000000  0.5345960000000  0.5646560000000 1.0
C      1  0.5271140000000  0.6019250000000  0.4195340000000 1.0
C      1  0.4143020000000  0.4321400000000  0.5671450000000 1.0
C      1  0.5237380000000  0.5065850000000  0.4327700000000 1.0
C      1  0.4858920000000  0.4954990000000  0.5884180000000 1.0
C      1  0.4918370000000  0.4902800000000  0.5425340000000 1.0
C      1  0.5053500000000  0.5241480000000  0.4761460000000 1.0
C      1  0.5235200000000  0.5779260000000  0.4290530000000 1.0
C      1  0.4348530000000  0.4481500000000  0.5661640000000 1.0
C      1  0.4557330000000  0.4643790000000  0.5645620000000 1.0
C      1  0.5188220000000  0.5540440000000  0.4395210000000 1.0
C      1  0.4930790000000  0.4206180000000  0.4719240000000 1.0
C      1  0.5084710000000  0.5654200000000  0.5217370000000 1.0
C      1  0.5309390000000  0.4750840000000  0.5879400000000 1.0
C      1  0.4863140000000  0.5094490000000  0.4026840000000 1.0
C      1  0.4638760000000  0.5353050000000  0.5380910000000 1.0
C      1  0.5301020000000  0.4628770000000  0.4928120000000 1.0
C      1  0.5395690000000  0.4468220000000  0.5152350000000 1.0
C      1  0.4674130000000  0.5530540000000  0.4573370000000 1.0
C      1  0.4768480000000  0.4822990000000  0.5648320000000 1.0
C      1  0.5148320000000  0.5279830000000  0.4492730000000 1.0
C      1  0.5084110000000  0.4626300000000  0.4300760000000 1.0
C      1  0.5125960000000  0.5348200000000  0.5847920000000 1.0
C      1  0.5308960000000  0.5107560000000  0.5141760000000 1.0
C      1  0.4665220000000  0.4917100000000  0.4833250000000 1.0
C      1  0.4639120000000  0.4826430000000  0.4376690000000 1.0
C      1  0.5457300000000  0.5095330000000  0.5561400000000 1.0
C      1  0.5425800000000  0.4808190000000  0.5627600000000 1.0
C      1  0.4680610000000  0.5083930000000  0.4243880000000 1.0
C      1  0.4781890000000  0.4692390000000  0.4960590000000 1.0
C      1  0.5279940000000  0.5284110000000  0.4930430000000 1.0
C      1  0.6055800000000  0.5108570000000  0.5116820000000 1.0
C      1  0.3958380000000  0.4822440000000  0.4661820000000 1.0
C      1  0.4789560000000  0.4355370000000  0.4541520000000 1.0
C      1  0.5227230000000  0.5532140000000  0.5416260000000 1.0
C      1  0.5406890000000  0.3990920000000  0.5269160000000 1.0
C      1  0.4660460000000  0.5985930000000  0.4722120000000 1.0
C      1  0.4759990000000  0.5731610000000  0.4764200000000 1.0
C      1  0.5307400000000  0.4195490000000  0.5118110000000 1.0
C      1  0.5094580000000  0.4932590000000  0.5212340000000 1.0
C      1  0.4793650000000  0.5169330000000  0.4888500000000 1.0
C      1  0.5271620000000  0.4799360000000  0.4424280000000 1.0
C      1  0.4863990000000  0.5240300000000  0.5845280000000 1.0
C      1  0.5109490000000  0.4150920000000  0.4914600000000 1.0
C      1  0.4936380000000  0.5702520000000  0.4992660000000 1.0
C      1  0.4688240000000  0.5299810000000  0.5121390000000 1.0
C      1  0.5053010000000  0.4734250000000  0.5016000000000 1.0
C      1  0.5471980000000  0.5470530000000  0.4871010000000 1.0
C      1  0.4631240000000  0.4490040000000  0.5063890000000 1.0
C      1  0.5298720000000  0.5338560000000  0.5624050000000 1.0
C      1  0.4813870000000  0.4588180000000  0.4376270000000 1.0
C      1  0.4217200000000  0.4841370000000  0.4638130000000 1.0
C      1  0.5810640000000  0.5116230000000  0.5204810000000 1.0
C      1  0.4631910000000  0.5330350000000  0.4392060000000 1.0
C      1  0.5447170000000  0.4604610000000  0.5410730000000 1.0
C      1  0.5132740000000  0.5085560000000  0.4061740000000 1.0
C      1  0.5081220000000  0.4825970000000  0.6004360000000 1.0
C      1  0.5548860000000  0.5112150000000  0.5291450000000 1.0
C      1  0.4492950000000  0.4861200000000  0.4618790000000 1.0
END
