TITL C-2323487-9546-370 3.05842686072151e-05 125000 -352.225563808074 0 0 60 (C1) n - 1
REM
REM in /home/bkarasulu/CARBON/AIRSS/Generating-Clusters/LCBOP/Higher-Symm/Only-C60/SD-CG/FIRE-HFTN
REM
REM
REM
REM
REM
REM ./C.cell (50c204cfd26239f34c78669fe23a5462)
REM
REM compiler GCC version 9.2.1 20190827 (Red Hat 9.2.1-1)
REM options -cpp -mtune=generic -march=x86-64 -g -O0 -fpre-include=/usr/include/finclude/math-vector-fortran.h
REM seed 1823202432 241387 678799350 -1777904478 -1623653267 1347390120 -1084658743 -1516329647 -2088847689 -1164056828 529806721 2093515769 -596053006 474989242 1472539993 -707011324 1441082896 1607505034 1622892686 1910958769 2118036279 1507577919 -1287254879 -197401245 712811090 1915736091 -1288868718 702926252 -185208758 1765796291 -272939838 -1877797867 345337688
REM
CELL 1.54180   50.00000   50.00000   50.00000   90.00000   90.00000   90.00000
LATT -1
SFAC C  
C      1  0.4605620000000  0.4717100000000  0.4655960000000 1.0
C      1  0.5558770000000  0.5165630000000  0.4622260000000 1.0
C      1  0.4513450000000  0.5402740000000  0.5288250000000 1.0
C      1  0.5490990000000  0.4660220000000  0.5458340000000 1.0
C      1  0.5880070000000  0.4955720000000  0.4943900000000 1.0
C      1  0.4202750000000  0.5091950000000  0.5030360000000 1.0
C      1  0.5845760000000  0.4915900000000  0.5218830000000 1.0
C      1  0.4220750000000  0.4845200000000  0.4915590000000 1.0
C      1  0.4204250000000  0.5575360000000  0.4953770000000 1.0
C      1  0.5598390000000  0.5082470000000  0.5657780000000 1.0
C      1  0.4464820000000  0.4401400000000  0.4989340000000 1.0
C      1  0.5748960000000  0.4781640000000  0.4458270000000 1.0
C      1  0.5251640000000  0.4807600000000  0.5373510000000 1.0
C      1  0.4847970000000  0.4737730000000  0.4812180000000 1.0
C      1  0.5346740000000  0.4979630000000  0.4679730000000 1.0
C      1  0.4772560000000  0.5409510000000  0.5159140000000 1.0
C      1  0.5009180000000  0.4700650000000  0.5482490000000 1.0
C      1  0.5053540000000  0.4538320000000  0.4744250000000 1.0
C      1  0.4236030000000  0.5493540000000  0.4266890000000 1.0
C      1  0.5018540000000  0.5513880000000  0.5270350000000 1.0
C      1  0.4320950000000  0.5661280000000  0.4711730000000 1.0
C      1  0.5445590000000  0.5317090000000  0.5573510000000 1.0
C      1  0.4592030000000  0.4447230000000  0.5245180000000 1.0
C      1  0.5550750000000  0.4567810000000  0.4487050000000 1.0
C      1  0.5168940000000  0.5420500000000  0.5514800000000 1.0
C      1  0.4856390000000  0.4472690000000  0.5372240000000 1.0
C      1  0.5249910000000  0.4554850000000  0.4513350000000 1.0
C      1  0.4179060000000  0.5666590000000  0.4467420000000 1.0
C      1  0.5794790000000  0.4994320000000  0.4660930000000 1.0
C      1  0.4282660000000  0.5355920000000  0.5116330000000 1.0
C      1  0.5694260000000  0.4868230000000  0.5473500000000 1.0
C      1  0.4388230000000  0.4629070000000  0.4820190000000 1.0
C      1  0.5506850000000  0.4563520000000  0.4950090000000 1.0
C      1  0.4690080000000  0.5314350000000  0.4676870000000 1.0
C      1  0.5433580000000  0.5251300000000  0.5112590000000 1.0
C      1  0.4632190000000  0.4917780000000  0.5269770000000 1.0
C      1  0.4786940000000  0.4948430000000  0.5017470000000 1.0
C      1  0.5377190000000  0.4824500000000  0.4916830000000 1.0
C      1  0.4788900000000  0.5223680000000  0.4931330000000 1.0
C      1  0.5321290000000  0.4980610000000  0.5147940000000 1.0
C      1  0.5121130000000  0.4345620000000  0.4955880000000 1.0
C      1  0.4418500000000  0.5295240000000  0.4269180000000 1.0
C      1  0.5179490000000  0.5629040000000  0.5058330000000 1.0
C      1  0.4871920000000  0.4886110000000  0.5653730000000 1.0
C      1  0.5358610000000  0.5455760000000  0.4924800000000 1.0
C      1  0.4683500000000  0.5050330000000  0.5523830000000 1.0
C      1  0.5361950000000  0.4376600000000  0.5112670000000 1.0
C      1  0.4587670000000  0.5158220000000  0.4452780000000 1.0
C      1  0.4609770000000  0.4758720000000  0.4175600000000 1.0
C      1  0.5549660000000  0.5643390000000  0.4513470000000 1.0
C      1  0.4434720000000  0.5393980000000  0.5777850000000 1.0
C      1  0.5522700000000  0.4171830000000  0.5533570000000 1.0
C      1  0.4467890000000  0.4694610000000  0.5320570000000 1.0
C      1  0.5639300000000  0.4445800000000  0.4732910000000 1.0
C      1  0.4594510000000  0.5584570000000  0.4682140000000 1.0
C      1  0.5576930000000  0.5369160000000  0.5323550000000 1.0
C      1  0.5462820000000  0.4386920000000  0.5379310000000 1.0
C      1  0.4599030000000  0.4874690000000  0.4423030000000 1.0
C      1  0.5492380000000  0.5434240000000  0.4677010000000 1.0
C      1  0.4536170000000  0.5289230000000  0.5549480000000 1.0
END
