TITL C-2323481-8605-357 2.2006637774948e-05 125000 -362.419269182207 0 0 60 (C1) n - 1
REM
REM in /home/bkarasulu/CARBON/AIRSS/Generating-Clusters/LCBOP/Higher-Symm/Only-C60/SD-CG/FIRE-HFTN
REM
REM
REM
REM
REM
REM ./C.cell (50c204cfd26239f34c78669fe23a5462)
REM
REM compiler GCC version 9.2.1 20190827 (Red Hat 9.2.1-1)
REM options -cpp -mtune=generic -march=x86-64 -g -O0 -fpre-include=/usr/include/finclude/math-vector-fortran.h
REM seed -2107133835 -914942412 1401717196 -1009334177 -1965598559 -1509129020 -1699085552 -1907016639 -803456541 320712817 -1821446383 1936176025 853075145 -862496039 -181153522 1682974846 -1331029643 883149744 -1873686348 1215115384 -537336622 -2032153512 1677706729 1368493915 847327775 416731231 1963314768 2031283728 1022093618 984631964 1996430401 1464029972 -1018483572
REM
CELL 1.54180   50.00000   50.00000   50.00000   90.00000   90.00000   90.00000
LATT -1
SFAC C  
C      1  0.5086720000000  0.5586340000000  0.5030000000000 1.0
C      1  0.4757330000000  0.4475540000000  0.5550730000000 1.0
C      1  0.4536750000000  0.4535140000000  0.5403600000000 1.0
C      1  0.5548800000000  0.5054810000000  0.4489400000000 1.0
C      1  0.5023860000000  0.5048170000000  0.4660630000000 1.0
C      1  0.4643900000000  0.4611460000000  0.4286350000000 1.0
C      1  0.4327540000000  0.5013060000000  0.5457620000000 1.0
C      1  0.4680830000000  0.4498370000000  0.4959780000000 1.0
C      1  0.4402290000000  0.4849650000000  0.4654020000000 1.0
C      1  0.4880450000000  0.5633680000000  0.4563860000000 1.0
C      1  0.4677260000000  0.5208340000000  0.4982210000000 1.0
C      1  0.4441370000000  0.5380260000000  0.4988230000000 1.0
C      1  0.5848220000000  0.5137560000000  0.5394560000000 1.0
C      1  0.5009720000000  0.4861120000000  0.5120850000000 1.0
C      1  0.4203800000000  0.5255460000000  0.5068480000000 1.0
C      1  0.4759440000000  0.5123020000000  0.4733520000000 1.0
C      1  0.5504480000000  0.4486320000000  0.5345260000000 1.0
C      1  0.4446910000000  0.5656190000000  0.4934550000000 1.0
C      1  0.5252510000000  0.5209100000000  0.5836730000000 1.0
C      1  0.4329070000000  0.4803340000000  0.5001330000000 1.0
C      1  0.4935780000000  0.4588950000000  0.5032200000000 1.0
C      1  0.4983660000000  0.5187070000000  0.5839160000000 1.0
C      1  0.4886420000000  0.5296440000000  0.5389200000000 1.0
C      1  0.5754250000000  0.5262660000000  0.5169520000000 1.0
C      1  0.5035720000000  0.4852150000000  0.4449020000000 1.0
C      1  0.5297730000000  0.5408100000000  0.4971380000000 1.0
C      1  0.4495010000000  0.4601340000000  0.4526800000000 1.0
C      1  0.5230480000000  0.4406140000000  0.5357330000000 1.0
C      1  0.4522070000000  0.5099880000000  0.5626220000000 1.0
C      1  0.5417350000000  0.5443310000000  0.5442660000000 1.0
C      1  0.5713840000000  0.5132760000000  0.5633250000000 1.0
C      1  0.4756930000000  0.5778170000000  0.5273330000000 1.0
C      1  0.5636030000000  0.4567330000000  0.5098790000000 1.0
C      1  0.5596110000000  0.4906840000000  0.4713510000000 1.0
C      1  0.5025140000000  0.4429590000000  0.5552190000000 1.0
C      1  0.4234720000000  0.5002450000000  0.5185300000000 1.0
C      1  0.4910130000000  0.5716090000000  0.4833440000000 1.0
C      1  0.5511090000000  0.4197350000000  0.4832410000000 1.0
C      1  0.4849440000000  0.4798600000000  0.4233150000000 1.0
C      1  0.4750590000000  0.5038050000000  0.4111870000000 1.0
C      1  0.5527990000000  0.4803340000000  0.4972520000000 1.0
C      1  0.4892260000000  0.5431280000000  0.4362200000000 1.0
C      1  0.4848700000000  0.5102070000000  0.5183130000000 1.0
C      1  0.4546960000000  0.5093420000000  0.4543420000000 1.0
C      1  0.4671590000000  0.5233770000000  0.4306730000000 1.0
C      1  0.5500890000000  0.5393160000000  0.5171170000000 1.0
C      1  0.5466740000000  0.5271410000000  0.5666200000000 1.0
C      1  0.4478280000000  0.4594010000000  0.5130660000000 1.0
C      1  0.5251080000000  0.4217840000000  0.4902500000000 1.0
C      1  0.4948170000000  0.5561950000000  0.5294720000000 1.0
C      1  0.5395250000000  0.5220110000000  0.4335480000000 1.0
C      1  0.5162950000000  0.5354050000000  0.4283680000000 1.0
C      1  0.5224780000000  0.5211020000000  0.4781590000000 1.0
C      1  0.4678030000000  0.5804750000000  0.4994200000000 1.0
C      1  0.4784790000000  0.5209790000000  0.5641120000000 1.0
C      1  0.5292330000000  0.4897880000000  0.5101970000000 1.0
C      1  0.4590990000000  0.4410520000000  0.4711180000000 1.0
C      1  0.5122020000000  0.4381780000000  0.5090640000000 1.0
C      1  0.5986860000000  0.4312010000000  0.4866330000000 1.0
C      1  0.5725590000000  0.4355640000000  0.4928170000000 1.0
END
