TITL C-2323484-8600-276 20.991332616887 125000 -362.357253102471 0 0 60 (C1) n - 1
REM
REM in /home/bkarasulu/CARBON/AIRSS/Generating-Clusters/LCBOP/Higher-Symm/Only-C60/SD-CG/FIRE-HFTN
REM
REM
REM
REM
REM
REM ./C.cell (50c204cfd26239f34c78669fe23a5462)
REM
REM compiler GCC version 9.2.1 20190827 (Red Hat 9.2.1-1)
REM options -cpp -mtune=generic -march=x86-64 -g -O0 -fpre-include=/usr/include/finclude/math-vector-fortran.h
REM seed -1784046217 396493810 -1588142223 824176693 2136314645 -1118052397 109918473 841853919 1407350226 -2003298704 291241334 -1797383214 1816499412 2086888610 -169908930 -327178552 -171482066 453877632 935497124 1928873332 -1860033727 -1762728816 343982126 -834911256 -2107375329 -541488941 1183946234 -2112403802 1821068629 2120255113 103069930 1080478298 -1947668477
REM
CELL 1.54180   50.00000   50.00000   50.00000   90.00000   90.00000   90.00000
LATT -1
SFAC C  
C      1  0.5575840000000  0.5262630000000  0.5754000000000 1.0
C      1  0.4646610000000  0.5517950000000  0.5669140000000 1.0
C      1  0.4518790000000  0.4574810000000  0.4041870000000 1.0
C      1  0.5120680000000  0.4970630000000  0.4056990000000 1.0
C      1  0.4469720000000  0.4578530000000  0.4893480000000 1.0
C      1  0.5381680000000  0.4601810000000  0.4782720000000 1.0
C      1  0.4997100000000  0.5842000000000  0.5876150000000 1.0
C      1  0.5552400000000  0.5654090000000  0.6077010000000 1.0
C      1  0.4897770000000  0.4413680000000  0.5684600000000 1.0
C      1  0.5168060000000  0.4415980000000  0.5650610000000 1.0
C      1  0.5367980000000  0.5033520000000  0.4184290000000 1.0
C      1  0.4312990000000  0.4438410000000  0.4184540000000 1.0
C      1  0.4787140000000  0.4221160000000  0.4763500000000 1.0
C      1  0.5057200000000  0.4227180000000  0.4730100000000 1.0
C      1  0.5717710000000  0.5820790000000  0.5919060000000 1.0
C      1  0.5138540000000  0.5927020000000  0.5638540000000 1.0
C      1  0.4906990000000  0.5183820000000  0.5167070000000 1.0
C      1  0.5159590000000  0.5301030000000  0.5210640000000 1.0
C      1  0.5137150000000  0.4589000000000  0.4350720000000 1.0
C      1  0.4589540000000  0.4790320000000  0.4467560000000 1.0
C      1  0.4734350000000  0.4412180000000  0.5466930000000 1.0
C      1  0.5272630000000  0.4418610000000  0.5399320000000 1.0
C      1  0.4696590000000  0.4729180000000  0.4209770000000 1.0
C      1  0.4976800000000  0.4752160000000  0.4179970000000 1.0
C      1  0.5511180000000  0.4966620000000  0.5141090000000 1.0
C      1  0.4473650000000  0.4974640000000  0.5235820000000 1.0
C      1  0.5214910000000  0.5309460000000  0.6045930000000 1.0
C      1  0.4953020000000  0.5363730000000  0.5973130000000 1.0
C      1  0.4395360000000  0.4771800000000  0.5082160000000 1.0
C      1  0.5517630000000  0.4773970000000  0.4957800000000 1.0
C      1  0.5122050000000  0.5897800000000  0.6125860000000 1.0
C      1  0.5353590000000  0.5796840000000  0.6224340000000 1.0
C      1  0.5164530000000  0.5579350000000  0.5243190000000 1.0
C      1  0.5106690000000  0.5790070000000  0.5395550000000 1.0
C      1  0.4854200000000  0.4969840000000  0.3654470000000 1.0
C      1  0.4675250000000  0.4774950000000  0.3631190000000 1.0
C      1  0.5209440000000  0.5599190000000  0.3704150000000 1.0
C      1  0.4304330000000  0.4172510000000  0.3476420000000 1.0
C      1  0.5629220000000  0.6014560000000  0.5752670000000 1.0
C      1  0.5380850000000  0.6071520000000  0.5665150000000 1.0
C      1  0.5117910000000  0.4416970000000  0.5161470000000 1.0
C      1  0.4825650000000  0.4410870000000  0.5198290000000 1.0
C      1  0.5388760000000  0.5116280000000  0.5595660000000 1.0
C      1  0.4697340000000  0.5243080000000  0.5588570000000 1.0
C      1  0.5483260000000  0.4900380000000  0.4391630000000 1.0
C      1  0.4259370000000  0.4457630000000  0.4450500000000 1.0
C      1  0.5355710000000  0.4675670000000  0.4510480000000 1.0
C      1  0.4417110000000  0.4621940000000  0.4619400000000 1.0
C      1  0.4833740000000  0.5609510000000  0.5870640000000 1.0
C      1  0.5475510000000  0.5395370000000  0.5985260000000 1.0
C      1  0.4679250000000  0.5138580000000  0.5327880000000 1.0
C      1  0.5370370000000  0.5135820000000  0.5312540000000 1.0
C      1  0.5156420000000  0.5047450000000  0.5738490000000 1.0
C      1  0.4899210000000  0.5149170000000  0.5772710000000 1.0
C      1  0.5124010000000  0.5359300000000  0.3759590000000 1.0
C      1  0.4416080000000  0.4365210000000  0.3611690000000 1.0
C      1  0.4534510000000  0.4570100000000  0.3759320000000 1.0
C      1  0.5034670000000  0.5102530000000  0.3821840000000 1.0
C      1  0.5216580000000  0.4397630000000  0.4893170000000 1.0
C      1  0.4664770000000  0.4383200000000  0.4963360000000 1.0
END
