TITL C-2323477-5056-571 0.000566257239245357 125000 -327.966715271355 0 0 60 (D5) n - 1
REM
REM in /home/bkarasulu/CARBON/AIRSS/Generating-Clusters/LCBOP/Higher-Symm/Only-C60/SD-CG/FIRE-HFTN
REM
REM
REM
REM
REM
REM ./C.cell (50c204cfd26239f34c78669fe23a5462)
REM
REM compiler GCC version 9.2.1 20190827 (Red Hat 9.2.1-1)
REM options -cpp -mtune=generic -march=x86-64 -g -O0 -fpre-include=/usr/include/finclude/math-vector-fortran.h
REM seed 546868621 -789653789 -1794936790 1724228073 -110311706 -1469566112 -691536801 -1169632475 -1454908562 -180991076 703236060 -1074439047 1801995569 152756186 -1920736120 -1068859352 -1859053283 -1769880467 -308915750 793042872 -1786328229 496351491 -340565913 1714845999 2069337245 2028916922 1267392239 -1354649635 -1370470384 1996774834 -1163980625 1330438846 950559306
REM
CELL 1.54180   50.00000   50.00000   50.00000   90.00000   90.00000   90.00000
LATT -1
SFAC C  
C      1  0.5129530000000  0.5595280000000  0.5013810000000 1.0
C      1  0.4473880000000  0.5307150000000  0.5013810000000 1.0
C      1  0.4545310000000  0.4594540000000  0.5013810000000 1.0
C      1  0.5245100000000  0.4442270000000  0.5013810000000 1.0
C      1  0.5606180000000  0.5060760000000  0.5013810000000 1.0
C      1  0.4870470000000  0.5595280000000  0.4986190000000 1.0
C      1  0.5526120000000  0.5307150000000  0.4986190000000 1.0
C      1  0.5454690000000  0.4594540000000  0.4986190000000 1.0
C      1  0.4754900000000  0.4442270000000  0.4986190000000 1.0
C      1  0.4393820000000  0.5060760000000  0.4986190000000 1.0
C      1  0.5253070000000  0.4573420000000  0.5592500000000 1.0
C      1  0.5483910000000  0.5108870000000  0.5592500000000 1.0
C      1  0.5046000000000  0.5493870000000  0.5592500000000 1.0
C      1  0.4544520000000  0.5196360000000  0.5592500000000 1.0
C      1  0.4672500000000  0.4627490000000  0.5592500000000 1.0
C      1  0.4746930000000  0.4573420000000  0.4407500000000 1.0
C      1  0.4516090000000  0.5108870000000  0.4407500000000 1.0
C      1  0.4954000000000  0.5493870000000  0.4407500000000 1.0
C      1  0.5455480000000  0.5196360000000  0.4407500000000 1.0
C      1  0.5327500000000  0.4627490000000  0.4407500000000 1.0
C      1  0.5226760000000  0.4930800000000  0.5266250000000 1.0
C      1  0.5135880000000  0.5194280000000  0.5266250000000 1.0
C      1  0.4857220000000  0.5189270000000  0.5266250000000 1.0
C      1  0.4775870000000  0.4922700000000  0.5266250000000 1.0
C      1  0.5004260000000  0.4762950000000  0.5266250000000 1.0
C      1  0.4773240000000  0.4930800000000  0.4733750000000 1.0
C      1  0.4864120000000  0.5194280000000  0.4733750000000 1.0
C      1  0.5142780000000  0.5189270000000  0.4733750000000 1.0
C      1  0.5224130000000  0.4922700000000  0.4733750000000 1.0
C      1  0.4995740000000  0.4762950000000  0.4733750000000 1.0
C      1  0.5174760000000  0.4818010000000  0.4252720000000 1.0
C      1  0.5227090000000  0.5109960000000  0.4252720000000 1.0
C      1  0.4965590000000  0.5249950000000  0.4252720000000 1.0
C      1  0.4751650000000  0.5044520000000  0.4252720000000 1.0
C      1  0.4880920000000  0.4777560000000  0.4252720000000 1.0
C      1  0.4825250000000  0.4818010000000  0.5747280000000 1.0
C      1  0.4772910000000  0.5109960000000  0.5747280000000 1.0
C      1  0.5034410000000  0.5249950000000  0.5747280000000 1.0
C      1  0.5248350000000  0.5044520000000  0.5747280000000 1.0
C      1  0.5119080000000  0.4777560000000  0.5747280000000 1.0
C      1  0.5495750000000  0.4836710000000  0.4731330000000 1.0
C      1  0.5308500000000  0.5421030000000  0.4731330000000 1.0
C      1  0.4694910000000  0.5423500000000  0.4731330000000 1.0
C      1  0.4502950000000  0.4840710000000  0.4731330000000 1.0
C      1  0.4997900000000  0.4478050000000  0.4731330000000 1.0
C      1  0.4504250000000  0.4836710000000  0.5268670000000 1.0
C      1  0.4691500000000  0.5421030000000  0.5268670000000 1.0
C      1  0.5305090000000  0.5423500000000  0.5268670000000 1.0
C      1  0.5497050000000  0.4840710000000  0.5268670000000 1.0
C      1  0.5002100000000  0.4478050000000  0.5268670000000 1.0
C      1  0.4502420000000  0.4632850000000  0.4522960000000 1.0
C      1  0.5195420000000  0.4413320000000  0.4522960000000 1.0
C      1  0.5618350000000  0.5004560000000  0.4522960000000 1.0
C      1  0.5186740000000  0.5589500000000  0.4522960000000 1.0
C      1  0.4497060000000  0.5359770000000  0.4522960000000 1.0
C      1  0.5497580000000  0.4632850000000  0.5477040000000 1.0
C      1  0.4804580000000  0.4413320000000  0.5477040000000 1.0
C      1  0.4381650000000  0.5004560000000  0.5477040000000 1.0
C      1  0.4813260000000  0.5589500000000  0.5477040000000 1.0
C      1  0.5502940000000  0.5359770000000  0.5477040000000 1.0
END
