TITL C-2323492-8884-610 0.277429830691305 125000 -351.548692545403 0 0 60 (C1) n - 1
REM
REM in /home/bkarasulu/CARBON/AIRSS/Generating-Clusters/LCBOP/Higher-Symm/Only-C60/SD-CG/FIRE-HFTN
REM
REM
REM
REM
REM
REM ./C.cell (50c204cfd26239f34c78669fe23a5462)
REM
REM compiler GCC version 9.2.1 20190827 (Red Hat 9.2.1-1)
REM options -cpp -mtune=generic -march=x86-64 -g -O0 -fpre-include=/usr/include/finclude/math-vector-fortran.h
REM seed -534807371 -337905418 -479763605 1641396640 96490870 1444822672 -1337275632 2080732429 1233558482 -1247105119 674787467 1601878435 -1050851092 -1897914218 1564870669 38832487 -1667340427 2137548858 -871536624 508172928 748740020 -1294309871 750147435 921323551 -1363293739 -1860282965 225459242 -178675028 -647564268 -1379245015 940385466 -2006092181 327933352
REM
CELL 1.54180   50.00000   50.00000   50.00000   90.00000   90.00000   90.00000
LATT -1
SFAC C  
C      1  0.4300900000000  0.5857790000000  0.5167250000000 1.0
C      1  0.5807000000000  0.4030030000000  0.4679150000000 1.0
C      1  0.4408420000000  0.4822780000000  0.4575130000000 1.0
C      1  0.5344100000000  0.4993930000000  0.5253660000000 1.0
C      1  0.4270750000000  0.4785320000000  0.5850660000000 1.0
C      1  0.5564430000000  0.5139700000000  0.4186790000000 1.0
C      1  0.4291970000000  0.5079150000000  0.4662630000000 1.0
C      1  0.5486990000000  0.4749210000000  0.5326340000000 1.0
C      1  0.4740020000000  0.4794950000000  0.5153370000000 1.0
C      1  0.5652790000000  0.5687940000000  0.4824680000000 1.0
C      1  0.5597720000000  0.4921390000000  0.4335700000000 1.0
C      1  0.4077510000000  0.4888020000000  0.5695340000000 1.0
C      1  0.4576200000000  0.5408310000000  0.5731630000000 1.0
C      1  0.5169250000000  0.4367980000000  0.4290330000000 1.0
C      1  0.5856540000000  0.5204890000000  0.4870310000000 1.0
C      1  0.4249880000000  0.4641190000000  0.5104210000000 1.0
C      1  0.4571960000000  0.4854250000000  0.4331680000000 1.0
C      1  0.5247620000000  0.5146890000000  0.5486380000000 1.0
C      1  0.4183230000000  0.5241570000000  0.5380060000000 1.0
C      1  0.5529640000000  0.4564050000000  0.4668150000000 1.0
C      1  0.4818130000000  0.5014550000000  0.4987530000000 1.0
C      1  0.5493600000000  0.5800000000000  0.5024810000000 1.0
C      1  0.5590160000000  0.4529760000000  0.5189660000000 1.0
C      1  0.4356060000000  0.5188060000000  0.4913010000000 1.0
C      1  0.5350260000000  0.4434040000000  0.4495210000000 1.0
C      1  0.4341930000000  0.5350770000000  0.5587690000000 1.0
C      1  0.5489750000000  0.4768140000000  0.5618340000000 1.0
C      1  0.4301160000000  0.5230470000000  0.4412280000000 1.0
C      1  0.5573150000000  0.5633900000000  0.4313300000000 1.0
C      1  0.4740350000000  0.4723660000000  0.5670340000000 1.0
C      1  0.5323190000000  0.5765410000000  0.5225720000000 1.0
C      1  0.5007000000000  0.4983700000000  0.4783560000000 1.0
C      1  0.4558550000000  0.5503640000000  0.5987580000000 1.0
C      1  0.5197460000000  0.4137860000000  0.4146050000000 1.0
C      1  0.4516200000000  0.4641080000000  0.5075010000000 1.0
C      1  0.5813930000000  0.5466830000000  0.4888330000000 1.0
C      1  0.5610040000000  0.4439310000000  0.4908370000000 1.0
C      1  0.4229190000000  0.5352960000000  0.5120780000000 1.0
C      1  0.5611070000000  0.5744090000000  0.4553200000000 1.0
C      1  0.4823040000000  0.4759760000000  0.5418940000000 1.0
C      1  0.5645720000000  0.4810910000000  0.4589420000000 1.0
C      1  0.4067550000000  0.4984960000000  0.5429820000000 1.0
C      1  0.4958290000000  0.4546990000000  0.4238970000000 1.0
C      1  0.4828560000000  0.5367430000000  0.5614850000000 1.0
C      1  0.4531400000000  0.4726250000000  0.5836830000000 1.0
C      1  0.5555080000000  0.5405820000000  0.4176480000000 1.0
C      1  0.5718660000000  0.4315220000000  0.5339200000000 1.0
C      1  0.4645330000000  0.5235670000000  0.4965600000000 1.0
C      1  0.5807600000000  0.4115380000000  0.5171940000000 1.0
C      1  0.4650780000000  0.5511890000000  0.5046060000000 1.0
C      1  0.5354720000000  0.4992990000000  0.5707970000000 1.0
C      1  0.4462350000000  0.5102440000000  0.4223960000000 1.0
C      1  0.4844060000000  0.4781170000000  0.4339670000000 1.0
C      1  0.5084270000000  0.5374860000000  0.5499520000000 1.0
C      1  0.4063570000000  0.4790550000000  0.5226210000000 1.0
C      1  0.5793750000000  0.4967090000000  0.4769250000000 1.0
C      1  0.5747370000000  0.4178320000000  0.4898080000000 1.0
C      1  0.4386570000000  0.5605870000000  0.5118750000000 1.0
C      1  0.5180270000000  0.5614390000000  0.5390720000000 1.0
C      1  0.5002950000000  0.4924480000000  0.4523560000000 1.0
END
