TITL C-2323492-8884-337 -0.0106440646896924 125000 -361.476775440689 0 0 60 (Ci) n - 1
REM
REM in /home/bkarasulu/CARBON/AIRSS/Generating-Clusters/LCBOP/Higher-Symm/Only-C60/SD-CG/FIRE-HFTN
REM
REM
REM
REM
REM
REM ./C.cell (50c204cfd26239f34c78669fe23a5462)
REM
REM compiler GCC version 9.2.1 20190827 (Red Hat 9.2.1-1)
REM options -cpp -mtune=generic -march=x86-64 -g -O0 -fpre-include=/usr/include/finclude/math-vector-fortran.h
REM seed 1248004172 49516110 -1121616124 2071697946 207543042 1205295931 -818678841 -1964763362 1588132863 -880999545 -716238232 197570717 -1197584409 -445408404 -1246220164 1713784209 -1408977964 -178334271 757208820 -814090360 193050131 -1205782744 -2130201989 2080667380 1995980301 -284710590 -293954666 1249554563 2126345614 -627915847 -1015863229 -537862814 -468992176
REM
CELL 1.54180   50.00000   50.00000   50.00000   90.00000   90.00000   90.00000
LATT -1
SFAC C  
C      1  0.4320660000000  0.5025380000000  0.5442650000000 1.0
C      1  0.5679340000000  0.4974620000000  0.4557350000000 1.0
C      1  0.5528540000000  0.4545800000000  0.5186190000000 1.0
C      1  0.4471460000000  0.5454200000000  0.4813810000000 1.0
C      1  0.5920430000000  0.5434810000000  0.5064200000000 1.0
C      1  0.4079570000000  0.4565190000000  0.4935800000000 1.0
C      1  0.5958190000000  0.4402530000000  0.5031590000000 1.0
C      1  0.4041810000000  0.5597470000000  0.4968410000000 1.0
C      1  0.5845110000000  0.4978560000000  0.3771730000000 1.0
C      1  0.4154890000000  0.5021440000000  0.6228270000000 1.0
C      1  0.3810950000000  0.4161780000000  0.4732400000000 1.0
C      1  0.6189050000000  0.5838220000000  0.5267600000000 1.0
C      1  0.4581490000000  0.5096000000000  0.5348030000000 1.0
C      1  0.5418510000000  0.4904000000000  0.4651970000000 1.0
C      1  0.4958630000000  0.4747980000000  0.4385370000000 1.0
C      1  0.5041370000000  0.5252020000000  0.5614630000000 1.0
C      1  0.5337920000000  0.3973540000000  0.5026670000000 1.0
C      1  0.4662080000000  0.6026460000000  0.4973330000000 1.0
C      1  0.5086830000000  0.5256430000000  0.5889740000000 1.0
C      1  0.4913170000000  0.4743570000000  0.4110260000000 1.0
C      1  0.5496260000000  0.5178830000000  0.5041020000000 1.0
C      1  0.4503740000000  0.4821170000000  0.4958980000000 1.0
C      1  0.4680330000000  0.4640610000000  0.4832630000000 1.0
C      1  0.5319670000000  0.5359390000000  0.5167370000000 1.0
C      1  0.4233340000000  0.4772760000000  0.5037570000000 1.0
C      1  0.5766660000000  0.5227240000000  0.4962430000000 1.0
C      1  0.4755470000000  0.4676690000000  0.4565080000000 1.0
C      1  0.5244530000000  0.5323310000000  0.5434920000000 1.0
C      1  0.4887570000000  0.4208880000000  0.4980820000000 1.0
C      1  0.5112430000000  0.5791120000000  0.5019180000000 1.0
C      1  0.5124330000000  0.5259130000000  0.6147630000000 1.0
C      1  0.4875670000000  0.4740870000000  0.3852370000000 1.0
C      1  0.5143920000000  0.5512920000000  0.5004680000000 1.0
C      1  0.4856080000000  0.4487080000000  0.4995320000000 1.0
C      1  0.6065210000000  0.4855900000000  0.4830830000000 1.0
C      1  0.3934790000000  0.5144100000000  0.5169170000000 1.0
C      1  0.5576990000000  0.4084470000000  0.5072460000000 1.0
C      1  0.4423010000000  0.5915530000000  0.4927540000000 1.0
C      1  0.3906030000000  0.5391660000000  0.5072150000000 1.0
C      1  0.6093970000000  0.4608340000000  0.4927850000000 1.0
C      1  0.5322930000000  0.4715910000000  0.5101360000000 1.0
C      1  0.4677070000000  0.5284090000000  0.4898640000000 1.0
C      1  0.5865410000000  0.5041980000000  0.4766080000000 1.0
C      1  0.4134590000000  0.4958020000000  0.5233920000000 1.0
C      1  0.5747910000000  0.4980730000000  0.4288260000000 1.0
C      1  0.4252090000000  0.5019270000000  0.5711740000000 1.0
C      1  0.6056730000000  0.5637720000000  0.5166330000000 1.0
C      1  0.3943270000000  0.4362280000000  0.4833670000000 1.0
C      1  0.5077020000000  0.4020360000000  0.4992430000000 1.0
C      1  0.4922980000000  0.5979640000000  0.5007570000000 1.0
C      1  0.5798840000000  0.4980280000000  0.4028280000000 1.0
C      1  0.4201160000000  0.5019720000000  0.5971720000000 1.0
C      1  0.4941610000000  0.5369050000000  0.4872480000000 1.0
C      1  0.5058390000000  0.4630950000000  0.5127520000000 1.0
C      1  0.5387090000000  0.4935430000000  0.4935380000000 1.0
C      1  0.4612910000000  0.5064570000000  0.5064620000000 1.0
C      1  0.5698800000000  0.4333950000000  0.5112420000000 1.0
C      1  0.4301200000000  0.5666050000000  0.4887580000000 1.0
C      1  0.5208560000000  0.4824020000000  0.4487350000000 1.0
C      1  0.4791440000000  0.5175980000000  0.5512650000000 1.0
END
