TITL C-2323478-8180-21 64216.4423508797 125000 -343.269525086962 0 0 60 (C1) n - 1
REM
REM in /home/bkarasulu/CARBON/AIRSS/Generating-Clusters/LCBOP/Higher-Symm/Only-C60/SD-CG/FIRE-HFTN
REM
REM
REM
REM
REM
REM ./C.cell (50c204cfd26239f34c78669fe23a5462)
REM
REM compiler GCC version 9.2.1 20190827 (Red Hat 9.2.1-1)
REM options -cpp -mtune=generic -march=x86-64 -g -O0 -fpre-include=/usr/include/finclude/math-vector-fortran.h
REM seed -1263089323 467359013 -1945802766 1648259900 -355327915 -1915729858 1092307374 1620553863 -895057951 -1007826511 2113404225 739197731 -979615997 1262010383 -927656806 -1036728155 -781921069 -1878437783 1925980344 -1651396992 847829169 -1831668094 714092057 -773595593 1611992081 180933919 -441406814 -1245806094 -1344424298 -555893106 547361139 -1629194482 1614148765
REM
CELL 1.54180   50.00000   50.00000   50.00000   90.00000   90.00000   90.00000
LATT -1
SFAC C  
C      1  0.5305990000000  0.5165140000000  0.4565300000000 1.0
C      1  0.4469850000000  0.5262860000000  0.4605150000000 1.0
C      1  0.4556540000000  0.5534910000000  0.5680760000000 1.0
C      1  0.5413940000000  0.5521090000000  0.5559360000000 1.0
C      1  0.5210430000000  0.5058690000000  0.5432720000000 1.0
C      1  0.4709040000000  0.5067030000000  0.5509220000000 1.0
C      1  0.4664740000000  0.5712220000000  0.5049940000000 1.0
C      1  0.5140370000000  0.5702020000000  0.4981640000000 1.0
C      1  0.5135630000000  0.5409250000000  0.4960160000000 1.0
C      1  0.4655070000000  0.5421340000000  0.5024630000000 1.0
C      1  0.5336080000000  0.5267020000000  0.4826570000000 1.0
C      1  0.4455040000000  0.5281890000000  0.4886930000000 1.0
C      1  0.4680260000000  0.3972850000000  0.4427550000000 1.0
C      1  0.5048800000000  0.3892600000000  0.4644280000000 1.0
C      1  0.5374270000000  0.5252260000000  0.5530070000000 1.0
C      1  0.4580680000000  0.5265080000000  0.5643730000000 1.0
C      1  0.5872570000000  0.4960590000000  0.4635480000000 1.0
C      1  0.4591730000000  0.4699840000000  0.4802790000000 1.0
C      1  0.5294750000000  0.5817950000000  0.5194810000000 1.0
C      1  0.4579220000000  0.5830900000000  0.5297010000000 1.0
C      1  0.5462530000000  0.5022680000000  0.4399750000000 1.0
C      1  0.4537160000000  0.5045410000000  0.4461550000000 1.0
C      1  0.5708100000000  0.4882960000000  0.4419430000000 1.0
C      1  0.4625590000000  0.4786360000000  0.4528420000000 1.0
C      1  0.5815610000000  0.5101360000000  0.4858120000000 1.0
C      1  0.4381280000000  0.4805460000000  0.4959310000000 1.0
C      1  0.5591650000000  0.5225570000000  0.4941040000000 1.0
C      1  0.4323540000000  0.5064140000000  0.5010530000000 1.0
C      1  0.4764100000000  0.4568390000000  0.4076860000000 1.0
C      1  0.5620060000000  0.4422260000000  0.4204140000000 1.0
C      1  0.5743370000000  0.4646110000000  0.4277640000000 1.0
C      1  0.4784610000000  0.4637060000000  0.4352330000000 1.0
C      1  0.5392220000000  0.4286000000000  0.4202330000000 1.0
C      1  0.4938980000000  0.4366160000000  0.4010150000000 1.0
C      1  0.4690810000000  0.5757530000000  0.5552650000000 1.0
C      1  0.5256070000000  0.5747640000000  0.5471870000000 1.0
C      1  0.4974010000000  0.5697590000000  0.5522740000000 1.0
C      1  0.5102570000000  0.4267420000000  0.4251360000000 1.0
C      1  0.5143030000000  0.5225020000000  0.6487860000000 1.0
C      1  0.5011770000000  0.4581710000000  0.5684730000000 1.0
C      1  0.5130910000000  0.5027130000000  0.6318570000000 1.0
C      1  0.4729320000000  0.4289260000000  0.5070180000000 1.0
C      1  0.5004940000000  0.4477730000000  0.4464870000000 1.0
C      1  0.4867930000000  0.6037060000000  0.4724970000000 1.0
C      1  0.4890410000000  0.5828160000000  0.4913040000000 1.0
C      1  0.5109760000000  0.4838770000000  0.6133260000000 1.0
C      1  0.4823820000000  0.5976970000000  0.4461440000000 1.0
C      1  0.4749610000000  0.3913330000000  0.4707100000000 1.0
C      1  0.4820220000000  0.4562060000000  0.4943950000000 1.0
C      1  0.5014820000000  0.3998200000000  0.4334350000000 1.0
C      1  0.5037960000000  0.4504780000000  0.4743900000000 1.0
C      1  0.4912370000000  0.4534200000000  0.5430660000000 1.0
C      1  0.4931630000000  0.5011200000000  0.5282810000000 1.0
C      1  0.4912360000000  0.5286010000000  0.5135740000000 1.0
C      1  0.4910190000000  0.4720750000000  0.5202260000000 1.0
C      1  0.4890510000000  0.6297010000000  0.4807990000000 1.0
C      1  0.5071550000000  0.4683160000000  0.5922140000000 1.0
C      1  0.4787800000000  0.4293160000000  0.5348680000000 1.0
C      1  0.4949820000000  0.5450470000000  0.5384800000000 1.0
C      1  0.4665040000000  0.4061800000000  0.4924670000000 1.0
END
