TITL C-2323486-8761-536 3.18652833364229e-06 125000 -362.364058109438 0 0 60 (C1) n - 1
REM
REM in /home/bkarasulu/CARBON/AIRSS/Generating-Clusters/LCBOP/Higher-Symm/Only-C60/SD-CG/FIRE-HFTN
REM
REM
REM
REM
REM
REM ./C.cell (50c204cfd26239f34c78669fe23a5462)
REM
REM compiler GCC version 9.2.1 20190827 (Red Hat 9.2.1-1)
REM options -cpp -mtune=generic -march=x86-64 -g -O0 -fpre-include=/usr/include/finclude/math-vector-fortran.h
REM seed -1531334350 -785100947 -1838329966 -1497410741 -576082498 -1365912082 -546324914 -1951623912 349821822 -1973709397 -1063682643 -745798248 1369402640 924951438 34659357 1026537359 1659154071 -1009360861 1433964020 -708493362 2006742791 -35865662 -826484682 -1463694313 -338437874 1655199321 -1065173857 -1996145992 -1983164472 1553427684 -1801501375 196670847 -1916385504
REM
CELL 1.54180   50.00000   50.00000   50.00000   90.00000   90.00000   90.00000
LATT -1
SFAC C  
C      1  0.5152280000000  0.5469540000000  0.5562300000000 1.0
C      1  0.5408190000000  0.4333140000000  0.5134980000000 1.0
C      1  0.5203470000000  0.5248240000000  0.4363560000000 1.0
C      1  0.5253580000000  0.4975080000000  0.4334550000000 1.0
C      1  0.5320490000000  0.5688590000000  0.5525360000000 1.0
C      1  0.5600370000000  0.4414610000000  0.5329580000000 1.0
C      1  0.5695280000000  0.5302220000000  0.4403440000000 1.0
C      1  0.5535640000000  0.5115190000000  0.5581310000000 1.0
C      1  0.5641060000000  0.4519950000000  0.4769760000000 1.0
C      1  0.5796380000000  0.5188320000000  0.4631350000000 1.0
C      1  0.5610220000000  0.4902850000000  0.5405630000000 1.0
C      1  0.5495360000000  0.4757880000000  0.4714570000000 1.0
C      1  0.4845100000000  0.5076800000000  0.4868120000000 1.0
C      1  0.4846350000000  0.5290990000000  0.5052810000000 1.0
C      1  0.4908580000000  0.4813420000000  0.4951270000000 1.0
C      1  0.5227060000000  0.4557340000000  0.5582080000000 1.0
C      1  0.5331100000000  0.4495710000000  0.4340740000000 1.0
C      1  0.5584780000000  0.5636940000000  0.5111510000000 1.0
C      1  0.5151780000000  0.5721890000000  0.4661010000000 1.0
C      1  0.4814620000000  0.5036440000000  0.5671610000000 1.0
C      1  0.5118080000000  0.4019530000000  0.4792860000000 1.0
C      1  0.5357900000000  0.4750380000000  0.4460970000000 1.0
C      1  0.5505660000000  0.5745210000000  0.5341370000000 1.0
C      1  0.5714570000000  0.4639420000000  0.5435200000000 1.0
C      1  0.5484860000000  0.4956050000000  0.4927030000000 1.0
C      1  0.5624790000000  0.5201660000000  0.4863120000000 1.0
C      1  0.5401280000000  0.4886390000000  0.5195300000000 1.0
C      1  0.4290550000000  0.4982400000000  0.4477810000000 1.0
C      1  0.4272730000000  0.5613230000000  0.5167250000000 1.0
C      1  0.4440370000000  0.4602090000000  0.5345520000000 1.0
C      1  0.5525380000000  0.5471330000000  0.4896470000000 1.0
C      1  0.5157200000000  0.4775660000000  0.5366020000000 1.0
C      1  0.5343460000000  0.4238780000000  0.4419920000000 1.0
C      1  0.4934140000000  0.5605290000000  0.4546310000000 1.0
C      1  0.4719660000000  0.5291770000000  0.5669270000000 1.0
C      1  0.4988630000000  0.4143820000000  0.4997390000000 1.0
C      1  0.5115720000000  0.4361500000000  0.5130740000000 1.0
C      1  0.4947350000000  0.5332540000000  0.4465510000000 1.0
C      1  0.4868810000000  0.5472760000000  0.5505390000000 1.0
C      1  0.4770740000000  0.5491380000000  0.5237430000000 1.0
C      1  0.4963240000000  0.4625630000000  0.5182880000000 1.0
C      1  0.4781460000000  0.5141410000000  0.4595900000000 1.0
C      1  0.3933420000000  0.5379700000000  0.4907190000000 1.0
C      1  0.4112090000000  0.4960570000000  0.5388780000000 1.0
C      1  0.4015540000000  0.4734850000000  0.4788290000000 1.0
C      1  0.4067260000000  0.5423520000000  0.5150350000000 1.0
C      1  0.4197360000000  0.4719310000000  0.5272490000000 1.0
C      1  0.4056920000000  0.4964130000000  0.4631030000000 1.0
C      1  0.5263800000000  0.5205890000000  0.5593150000000 1.0
C      1  0.5512710000000  0.4289000000000  0.4869460000000 1.0
C      1  0.5432720000000  0.5412230000000  0.4424840000000 1.0
C      1  0.4071850000000  0.4642580000000  0.5032710000000 1.0
C      1  0.3926700000000  0.5201330000000  0.4707920000000 1.0
C      1  0.4057050000000  0.5217620000000  0.5342160000000 1.0
C      1  0.4702170000000  0.4567580000000  0.5314820000000 1.0
C      1  0.4549540000000  0.5042680000000  0.4476340000000 1.0
C      1  0.4537570000000  0.5639010000000  0.5187880000000 1.0
C      1  0.5352920000000  0.4134800000000  0.4682170000000 1.0
C      1  0.5394420000000  0.5576730000000  0.4662990000000 1.0
C      1  0.5067690000000  0.4995100000000  0.5552240000000 1.0
END
