TITL C-2323480-5884-29 3.13321655694506e-06 125000 -378.933976924519 0 0 60 (C2v) n - 1
REM
REM in /home/bkarasulu/CARBON/AIRSS/Generating-Clusters/LCBOP/Higher-Symm/Only-C60/SD-CG/FIRE-HFTN
REM
REM
REM
REM
REM
REM ./C.cell (50c204cfd26239f34c78669fe23a5462)
REM
REM compiler GCC version 9.2.1 20190827 (Red Hat 9.2.1-1)
REM options -cpp -mtune=generic -march=x86-64 -g -O0 -fpre-include=/usr/include/finclude/math-vector-fortran.h
REM seed 609412748 -1376743306 -1647685015 -1985746142 -1370784666 -1621471463 488194344 -1004492188 -829534470 -510646549 -709591923 212064420 -884431635 649638410 -1674164969 271147443 -1676852004 -2133456711 -60784556 -1878660039 599433802 2085383538 1196961451 336716772 -824785790 1655740140 -1037438661 -126016955 394039044 -1721657099 -1329225213 759724841 -1486818969
REM
CELL 1.54180   50.00000   50.00000   50.00000   90.00000   90.00000   90.00000
LATT -1
SFAC C  
C      1  0.4625400000000  0.5676900000000  0.4864500000000 1.0
C      1  0.5374560000000  0.5676920000000  0.5135490000000 1.0
C      1  0.5374550000000  0.5676920000000  0.4864460000000 1.0
C      1  0.4625410000000  0.5676900000000  0.5135530000000 1.0
C      1  0.5756730000000  0.4895860000000  0.4864650000000 1.0
C      1  0.4243280000000  0.4895810000000  0.5135350000000 1.0
C      1  0.4243270000000  0.4895810000000  0.4864730000000 1.0
C      1  0.5756740000000  0.4895860000000  0.5135280000000 1.0
C      1  0.5294450000000  0.4859160000000  0.4223900000000 1.0
C      1  0.4705560000000  0.4859160000000  0.5776110000000 1.0
C      1  0.4705490000000  0.4859150000000  0.4223920000000 1.0
C      1  0.5294520000000  0.4859180000000  0.5776080000000 1.0
C      1  0.4854750000000  0.5477510000000  0.4465450000000 1.0
C      1  0.5145220000000  0.5477530000000  0.5534540000000 1.0
C      1  0.5145170000000  0.5477520000000  0.4465430000000 1.0
C      1  0.4854800000000  0.5477520000000  0.5534560000000 1.0
C      1  0.4747950000000  0.4437900000000  0.4449480000000 1.0
C      1  0.5252090000000  0.4437930000000  0.5550530000000 1.0
C      1  0.5252030000000  0.4437920000000  0.4449460000000 1.0
C      1  0.4748000000000  0.4437910000000  0.5550560000000 1.0
C      1  0.5145960000000  0.5093030000000  0.4155910000000 1.0
C      1  0.4854030000000  0.5093050000000  0.5844090000000 1.0
C      1  0.4853950000000  0.5093030000000  0.4155920000000 1.0
C      1  0.5146040000000  0.5093050000000  0.5844070000000 1.0
C      1  0.4853180000000  0.4614170000000  0.5752680000000 1.0
C      1  0.5146840000000  0.4614160000000  0.4247330000000 1.0
C      1  0.5146910000000  0.4614180000000  0.5752660000000 1.0
C      1  0.4853110000000  0.4614150000000  0.4247350000000 1.0
C      1  0.4753000000000  0.4708540000000  0.4856660000000 1.0
C      1  0.5247020000000  0.4708560000000  0.5143350000000 1.0
C      1  0.5247000000000  0.4708550000000  0.4856630000000 1.0
C      1  0.4753020000000  0.4708540000000  0.5143370000000 1.0
C      1  0.4462650000000  0.4882900000000  0.4376990000000 1.0
C      1  0.5537360000000  0.4882950000000  0.5623010000000 1.0
C      1  0.5537300000000  0.4882930000000  0.4376940000000 1.0
C      1  0.4462710000000  0.4882910000000  0.5623060000000 1.0
C      1  0.4717090000000  0.5457900000000  0.4711650000000 1.0
C      1  0.5282880000000  0.5457930000000  0.5288330000000 1.0
C      1  0.5282850000000  0.5457920000000  0.4711630000000 1.0
C      1  0.4717120000000  0.5457910000000  0.5288360000000 1.0
C      1  0.4853010000000  0.4482110000000  0.4710510000000 1.0
C      1  0.5147030000000  0.4482130000000  0.5289500000000 1.0
C      1  0.5147000000000  0.4482120000000  0.4710500000000 1.0
C      1  0.4853030000000  0.4482120000000  0.5289510000000 1.0
C      1  0.4733280000000  0.5209350000000  0.4854620000000 1.0
C      1  0.5266700000000  0.5209370000000  0.5145380000000 1.0
C      1  0.5266690000000  0.5209370000000  0.4854590000000 1.0
C      1  0.4733300000000  0.5209350000000  0.5145400000000 1.0
C      1  0.5254920000000  0.5344030000000  0.5761180000000 1.0
C      1  0.4745060000000  0.5344000000000  0.4238810000000 1.0
C      1  0.4745130000000  0.5344020000000  0.5761200000000 1.0
C      1  0.5254850000000  0.5344020000000  0.4238790000000 1.0
C      1  0.5685500000000  0.4892620000000  0.4603470000000 1.0
C      1  0.4314510000000  0.4892580000000  0.5396530000000 1.0
C      1  0.4314470000000  0.4892570000000  0.4603540000000 1.0
C      1  0.5685540000000  0.4892620000000  0.5396460000000 1.0
C      1  0.4853810000000  0.4967970000000  0.5245790000000 1.0
C      1  0.5146190000000  0.4967980000000  0.4754210000000 1.0
C      1  0.5146220000000  0.4967980000000  0.5245780000000 1.0
C      1  0.4853780000000  0.4967970000000  0.4754220000000 1.0
END
