TITL C-2323481-8605-146 5.7278949035625e-05 125000 -346.713392728125 0 0 60 (C1) n - 1
REM
REM in /home/bkarasulu/CARBON/AIRSS/Generating-Clusters/LCBOP/Higher-Symm/Only-C60/SD-CG/FIRE-HFTN
REM
REM
REM
REM
REM
REM ./C.cell (50c204cfd26239f34c78669fe23a5462)
REM
REM compiler GCC version 9.2.1 20190827 (Red Hat 9.2.1-1)
REM options -cpp -mtune=generic -march=x86-64 -g -O0 -fpre-include=/usr/include/finclude/math-vector-fortran.h
REM seed 95667536 141240490 -1295442104 -1265681135 -58172528 -1102580405 1176319470 -476902112 1489420722 -906545343 810046030 1961768475 1986036770 -1934065290 2024437477 111473728 1987603002 -1804445855 -1242244143 -1163656650 -80456994 -1606814909 -1587258362 -541022666 557476364 -1923818124 380806560 -535448306 -1245126461 849887649 1148714810 1548551593 -293195641
REM
CELL 1.54180   50.00000   50.00000   50.00000   90.00000   90.00000   90.00000
LATT -1
SFAC C  
C      1  0.5198830000000  0.5198070000000  0.5573580000000 1.0
C      1  0.5257780000000  0.5640570000000  0.5257300000000 1.0
C      1  0.5150080000000  0.5540480000000  0.4749170000000 1.0
C      1  0.5070450000000  0.5076090000000  0.4460590000000 1.0
C      1  0.5169560000000  0.4567650000000  0.4549220000000 1.0
C      1  0.5107320000000  0.4461120000000  0.5042630000000 1.0
C      1  0.5162800000000  0.4685740000000  0.5501100000000 1.0
C      1  0.5029930000000  0.5132140000000  0.5328680000000 1.0
C      1  0.4786330000000  0.5283290000000  0.5335680000000 1.0
C      1  0.4975650000000  0.5327640000000  0.4900760000000 1.0
C      1  0.4881970000000  0.5129450000000  0.4690100000000 1.0
C      1  0.4837630000000  0.4882420000000  0.4852340000000 1.0
C      1  0.4979370000000  0.4739360000000  0.5044200000000 1.0
C      1  0.4986060000000  0.4844850000000  0.5307830000000 1.0
C      1  0.5309220000000  0.4514350000000  0.5286120000000 1.0
C      1  0.5364160000000  0.4926720000000  0.5577720000000 1.0
C      1  0.5373500000000  0.5429320000000  0.5440600000000 1.0
C      1  0.5355920000000  0.5608870000000  0.4977730000000 1.0
C      1  0.5302330000000  0.5340010000000  0.4550450000000 1.0
C      1  0.5258720000000  0.4836840000000  0.4488850000000 1.0
C      1  0.5288470000000  0.4480990000000  0.4798030000000 1.0
C      1  0.5006560000000  0.5773520000000  0.5274880000000 1.0
C      1  0.4939910000000  0.5686510000000  0.4592360000000 1.0
C      1  0.4857520000000  0.5003330000000  0.4248220000000 1.0
C      1  0.4944930000000  0.4436810000000  0.4445450000000 1.0
C      1  0.4866480000000  0.4283750000000  0.5044140000000 1.0
C      1  0.4948730000000  0.4554420000000  0.5661430000000 1.0
C      1  0.4977630000000  0.5210840000000  0.5786430000000 1.0
C      1  0.4632340000000  0.5292580000000  0.4591780000000 1.0
C      1  0.4405470000000  0.4801310000000  0.4470980000000 1.0
C      1  0.4455030000000  0.4531990000000  0.4584940000000 1.0
C      1  0.4391250000000  0.4460090000000  0.4870450000000 1.0
C      1  0.4463640000000  0.4630840000000  0.5469290000000 1.0
C      1  0.4572310000000  0.5176010000000  0.5495050000000 1.0
C      1  0.4719830000000  0.5419010000000  0.5076170000000 1.0
C      1  0.4089900000000  0.4840730000000  0.4840050000000 1.0
C      1  0.4218970000000  0.4655840000000  0.5023180000000 1.0
C      1  0.4328060000000  0.4787210000000  0.5269260000000 1.0
C      1  0.4387350000000  0.5081620000000  0.5276470000000 1.0
C      1  0.4442190000000  0.5267770000000  0.5027010000000 1.0
C      1  0.4393950000000  0.5218120000000  0.4740120000000 1.0
C      1  0.4250420000000  0.4981990000000  0.4645810000000 1.0
C      1  0.5602500000000  0.5297250000000  0.5308130000000 1.0
C      1  0.5584860000000  0.5436410000000  0.4966730000000 1.0
C      1  0.5536220000000  0.5249220000000  0.4656060000000 1.0
C      1  0.5507490000000  0.4898260000000  0.4616640000000 1.0
C      1  0.5522280000000  0.4639450000000  0.4871330000000 1.0
C      1  0.5542060000000  0.4661020000000  0.5182090000000 1.0
C      1  0.5581150000000  0.4945880000000  0.5401830000000 1.0
C      1  0.4679310000000  0.4552430000000  0.5613060000000 1.0
C      1  0.4702250000000  0.5165380000000  0.5754750000000 1.0
C      1  0.4770590000000  0.5705880000000  0.5151270000000 1.0
C      1  0.4708190000000  0.5559180000000  0.4513580000000 1.0
C      1  0.4602930000000  0.4902260000000  0.4283300000000 1.0
C      1  0.4679750000000  0.4400650000000  0.4468320000000 1.0
C      1  0.4598350000000  0.4304710000000  0.4997760000000 1.0
C      1  0.4578870000000  0.4849570000000  0.4894010000000 1.0
C      1  0.5414750000000  0.5041110000000  0.5014480000000 1.0
C      1  0.5174210000000  0.5177430000000  0.5072570000000 1.0
C      1  0.5691910000000  0.5018670000000  0.4989360000000 1.0
END
