TITL C-2323487-9546-478 361230.641055987 125000 -345.301607376903 0 0 60 (C1) n - 1
REM
REM in /home/bkarasulu/CARBON/AIRSS/Generating-Clusters/LCBOP/Higher-Symm/Only-C60/SD-CG/FIRE-HFTN
REM
REM
REM
REM
REM
REM ./C.cell (50c204cfd26239f34c78669fe23a5462)
REM
REM compiler GCC version 9.2.1 20190827 (Red Hat 9.2.1-1)
REM options -cpp -mtune=generic -march=x86-64 -g -O0 -fpre-include=/usr/include/finclude/math-vector-fortran.h
REM seed 1393885066 1887326061 -1601346188 -1755668538 -1248640813 591933002 -378555566 690355007 1629066362 -507801052 19015494 1938745118 2088289833 911098828 -1226898116 -1733830017 -742889479 -1183631072 1984812871 -1295637160 -41486840 -1495054471 -524623119 -351999894 -7357966 -1142986919 1347049882 -46398137 931057675 1514867888 1561256471 1166019831 499589743
REM
CELL 1.54180   50.00000   50.00000   50.00000   90.00000   90.00000   90.00000
LATT -1
SFAC C  
C      1  0.5380350000000  0.5139760000000  0.6109450000000 1.0
C      1  0.4401080000000  0.4827200000000  0.4139830000000 1.0
C      1  0.5232760000000  0.5055150000000  0.5150300000000 1.0
C      1  0.4720580000000  0.4960720000000  0.4934200000000 1.0
C      1  0.5897110000000  0.5804790000000  0.4535780000000 1.0
C      1  0.4139380000000  0.4144250000000  0.5393700000000 1.0
C      1  0.3946900000000  0.4104210000000  0.5203170000000 1.0
C      1  0.6096130000000  0.5831020000000  0.4722030000000 1.0
C      1  0.4779600000000  0.4474180000000  0.5460580000000 1.0
C      1  0.5241170000000  0.5476400000000  0.4541560000000 1.0
C      1  0.5451860000000  0.4674940000000  0.4725470000000 1.0
C      1  0.4566970000000  0.5323770000000  0.5255730000000 1.0
C      1  0.5109710000000  0.4597390000000  0.4101350000000 1.0
C      1  0.4944880000000  0.5574510000000  0.5681520000000 1.0
C      1  0.5410480000000  0.5620300000000  0.4708860000000 1.0
C      1  0.4623260000000  0.4364990000000  0.5257690000000 1.0
C      1  0.4348560000000  0.4851970000000  0.4827380000000 1.0
C      1  0.5671750000000  0.5198210000000  0.5225900000000 1.0
C      1  0.4763420000000  0.5115020000000  0.5178960000000 1.0
C      1  0.5271620000000  0.4843890000000  0.4913950000000 1.0
C      1  0.5953140000000  0.5817470000000  0.4268090000000 1.0
C      1  0.4078070000000  0.4129420000000  0.5660170000000 1.0
C      1  0.4666430000000  0.5592520000000  0.5244080000000 1.0
C      1  0.5309170000000  0.4486100000000  0.4554220000000 1.0
C      1  0.4448900000000  0.4600340000000  0.4864170000000 1.0
C      1  0.5555010000000  0.5427570000000  0.5136470000000 1.0
C      1  0.4308820000000  0.5116500000000  0.4766280000000 1.0
C      1  0.5678940000000  0.4932930000000  0.5288790000000 1.0
C      1  0.5123710000000  0.4995850000000  0.4691300000000 1.0
C      1  0.4859800000000  0.4953240000000  0.5414770000000 1.0
C      1  0.4787930000000  0.5675380000000  0.5486990000000 1.0
C      1  0.5296590000000  0.4517150000000  0.4275600000000 1.0
C      1  0.5162150000000  0.4999690000000  0.5425180000000 1.0
C      1  0.4840950000000  0.4934640000000  0.4689380000000 1.0
C      1  0.5634320000000  0.5757960000000  0.4620150000000 1.0
C      1  0.4400540000000  0.4207980000000  0.5315600000000 1.0
C      1  0.4672170000000  0.4456460000000  0.4989310000000 1.0
C      1  0.5356290000000  0.5570960000000  0.4983700000000 1.0
C      1  0.4837600000000  0.5509650000000  0.4506520000000 1.0
C      1  0.5174380000000  0.4468650000000  0.5546280000000 1.0
C      1  0.4436530000000  0.5361470000000  0.4749740000000 1.0
C      1  0.5561650000000  0.4688120000000  0.5321330000000 1.0
C      1  0.5031100000000  0.5252200000000  0.5095370000000 1.0
C      1  0.5152340000000  0.4598540000000  0.5070710000000 1.0
C      1  0.5219440000000  0.4935460000000  0.5700290000000 1.0
C      1  0.4743160000000  0.5015760000000  0.4427400000000 1.0
C      1  0.5166160000000  0.5212470000000  0.4500130000000 1.0
C      1  0.4812280000000  0.4722680000000  0.5584280000000 1.0
C      1  0.4954610000000  0.4452340000000  0.4915640000000 1.0
C      1  0.5077340000000  0.5521350000000  0.5029550000000 1.0
C      1  0.5234380000000  0.5154660000000  0.5879010000000 1.0
C      1  0.4662290000000  0.4849350000000  0.4215400000000 1.0
C      1  0.5079950000000  0.4360500000000  0.4677440000000 1.0
C      1  0.4807200000000  0.5629360000000  0.4988820000000 1.0
C      1  0.4866660000000  0.4706640000000  0.4084240000000 1.0
C      1  0.5093610000000  0.5392140000000  0.5810340000000 1.0
C      1  0.4674110000000  0.5535920000000  0.4741190000000 1.0
C      1  0.5311780000000  0.4539340000000  0.5308270000000 1.0
C      1  0.4890310000000  0.5259450000000  0.4387890000000 1.0
C      1  0.5082620000000  0.4679090000000  0.5718510000000 1.0
END
