TITL C-2323481-8605-245 406.747467970068 125000 -353.280567819411 0 0 60 (C1) n - 1
REM
REM in /home/bkarasulu/CARBON/AIRSS/Generating-Clusters/LCBOP/Higher-Symm/Only-C60/SD-CG/FIRE-HFTN
REM
REM
REM
REM
REM
REM ./C.cell (50c204cfd26239f34c78669fe23a5462)
REM
REM compiler GCC version 9.2.1 20190827 (Red Hat 9.2.1-1)
REM options -cpp -mtune=generic -march=x86-64 -g -O0 -fpre-include=/usr/include/finclude/math-vector-fortran.h
REM seed -222555623 -1195125098 -2146319226 1645978797 -1328197047 710505831 -692459165 -542113564 639683253 355505629 936794422 1565156452 308149726 650529062 1503587036 -1978849150 1454429393 1562882951 -324064638 -1572010149 -397986315 -1339489761 1362791255 -993358367 -1992542148 -1180315639 984658242 -2106316807 -223325524 -807861998 1171449495 -1847673133 355766142
REM
CELL 1.54180   50.00000   50.00000   50.00000   90.00000   90.00000   90.00000
LATT -1
SFAC C  
C      1  0.4972510000000  0.4809530000000  0.5062520000000 1.0
C      1  0.5573980000000  0.5139700000000  0.4783420000000 1.0
C      1  0.4620970000000  0.5239270000000  0.4704720000000 1.0
C      1  0.4892860000000  0.5199500000000  0.4764320000000 1.0
C      1  0.5080210000000  0.5025170000000  0.4884310000000 1.0
C      1  0.5334030000000  0.4997050000000  0.4765500000000 1.0
C      1  0.5500310000000  0.4640030000000  0.5683480000000 1.0
C      1  0.4994690000000  0.5647240000000  0.5566030000000 1.0
C      1  0.4453610000000  0.4629330000000  0.5593850000000 1.0
C      1  0.5283360000000  0.4330290000000  0.5401360000000 1.0
C      1  0.5366930000000  0.5430630000000  0.5392810000000 1.0
C      1  0.4391380000000  0.5006120000000  0.5336820000000 1.0
C      1  0.4436290000000  0.4919090000000  0.5606000000000 1.0
C      1  0.5259760000000  0.4488100000000  0.5649370000000 1.0
C      1  0.5250660000000  0.5526990000000  0.5639890000000 1.0
C      1  0.5250240000000  0.5348970000000  0.5854910000000 1.0
C      1  0.4634050000000  0.5066090000000  0.5734400000000 1.0
C      1  0.5028450000000  0.4641920000000  0.5598650000000 1.0
C      1  0.4737290000000  0.4582920000000  0.4652010000000 1.0
C      1  0.5854750000000  0.5320170000000  0.4394790000000 1.0
C      1  0.4358550000000  0.5289030000000  0.4257820000000 1.0
C      1  0.4673310000000  0.5439530000000  0.5238560000000 1.0
C      1  0.4743820000000  0.4369930000000  0.5276830000000 1.0
C      1  0.5634430000000  0.4985330000000  0.5351680000000 1.0
C      1  0.5803600000000  0.5567410000000  0.4307450000000 1.0
C      1  0.4159350000000  0.5127640000000  0.4184090000000 1.0
C      1  0.4900770000000  0.4471910000000  0.4472270000000 1.0
C      1  0.4314430000000  0.4880380000000  0.4903280000000 1.0
C      1  0.5409440000000  0.4524450000000  0.4989580000000 1.0
C      1  0.5359720000000  0.5543860000000  0.4947960000000 1.0
C      1  0.4899840000000  0.5062120000000  0.5639330000000 1.0
C      1  0.4961330000000  0.4865730000000  0.5432320000000 1.0
C      1  0.5096230000000  0.5130490000000  0.5830780000000 1.0
C      1  0.5362780000000  0.5730760000000  0.4743300000000 1.0
C      1  0.4142220000000  0.4777080000000  0.4711900000000 1.0
C      1  0.5498570000000  0.4463100000000  0.4734740000000 1.0
C      1  0.5610950000000  0.4710920000000  0.5423750000000 1.0
C      1  0.4917800000000  0.5573640000000  0.5293190000000 1.0
C      1  0.4505740000000  0.4534490000000  0.5319340000000 1.0
C      1  0.5443730000000  0.5882630000000  0.4521440000000 1.0
C      1  0.3983610000000  0.4738610000000  0.4483590000000 1.0
C      1  0.5425820000000  0.4399330000000  0.4470470000000 1.0
C      1  0.4530350000000  0.5330060000000  0.4457330000000 1.0
C      1  0.4739220000000  0.4715790000000  0.4886080000000 1.0
C      1  0.5766610000000  0.5151960000000  0.4582730000000 1.0
C      1  0.5151860000000  0.4409840000000  0.4407260000000 1.0
C      1  0.5645700000000  0.5776280000000  0.4358000000000 1.0
C      1  0.4019050000000  0.4918300000000  0.4271010000000 1.0
C      1  0.5559070000000  0.5247710000000  0.5272310000000 1.0
C      1  0.4484840000000  0.5234370000000  0.5179770000000 1.0
C      1  0.5033400000000  0.4356360000000  0.5234500000000 1.0
C      1  0.5330030000000  0.6124750000000  0.4466670000000 1.0
C      1  0.3802640000000  0.4534790000000  0.4468990000000 1.0
C      1  0.5612810000000  0.4331210000000  0.4283750000000 1.0
C      1  0.4438860000000  0.5146620000000  0.4901960000000 1.0
C      1  0.5130380000000  0.4557850000000  0.5046600000000 1.0
C      1  0.5560110000000  0.5332890000000  0.4989370000000 1.0
C      1  0.5182090000000  0.5534240000000  0.5173860000000 1.0
C      1  0.4374240000000  0.4758440000000  0.5160980000000 1.0
C      1  0.5516340000000  0.4482040000000  0.5256010000000 1.0
END
