TITL C-2323487-9546-83 5.3900627112813e-05 125000 -348.855457427275 0 0 60 (C1) n - 1
REM
REM in /home/bkarasulu/CARBON/AIRSS/Generating-Clusters/LCBOP/Higher-Symm/Only-C60/SD-CG/FIRE-HFTN
REM
REM
REM
REM
REM
REM ./C.cell (50c204cfd26239f34c78669fe23a5462)
REM
REM compiler GCC version 9.2.1 20190827 (Red Hat 9.2.1-1)
REM options -cpp -mtune=generic -march=x86-64 -g -O0 -fpre-include=/usr/include/finclude/math-vector-fortran.h
REM seed -1250646286 -248654226 -573587239 1663614061 2137056270 1063163902 -1128308704 -1098431695 376992406 -1406020275 230471495 1686363986 -1892640983 -1447876997 -2069306645 41174645 -19829502 656189810 -1721362351 -271817519 -1058268371 2056173989 -942809580 557095796 -967222971 1539629066 729249515 902257678 2127742500 -700572192 -1989410404 -1803366182 1499323421
REM
CELL 1.54180   50.00000   50.00000   50.00000   90.00000   90.00000   90.00000
LATT -1
SFAC C  
C      1  0.5215290000000  0.5733850000000  0.5029150000000 1.0
C      1  0.4834580000000  0.4384070000000  0.4862920000000 1.0
C      1  0.4984100000000  0.5066050000000  0.4752610000000 1.0
C      1  0.5049640000000  0.4961540000000  0.5258550000000 1.0
C      1  0.4276180000000  0.5283530000000  0.5391140000000 1.0
C      1  0.5751010000000  0.4730360000000  0.4646860000000 1.0
C      1  0.5079270000000  0.5278110000000  0.4945160000000 1.0
C      1  0.4936480000000  0.4768160000000  0.5077640000000 1.0
C      1  0.5836210000000  0.5379070000000  0.5656310000000 1.0
C      1  0.4173570000000  0.4566760000000  0.4434980000000 1.0
C      1  0.4611780000000  0.4877430000000  0.4445990000000 1.0
C      1  0.5391360000000  0.5080380000000  0.5612430000000 1.0
C      1  0.4959440000000  0.5404790000000  0.5428400000000 1.0
C      1  0.4977540000000  0.4537470000000  0.4659390000000 1.0
C      1  0.4969440000000  0.5329840000000  0.4339900000000 1.0
C      1  0.4994940000000  0.4637080000000  0.5629450000000 1.0
C      1  0.4744300000000  0.5100290000000  0.5718940000000 1.0
C      1  0.5238820000000  0.4891460000000  0.4256140000000 1.0
C      1  0.4718220000000  0.5348630000000  0.5567130000000 1.0
C      1  0.5371670000000  0.4681510000000  0.4368900000000 1.0
C      1  0.5654610000000  0.4897680000000  0.4866540000000 1.0
C      1  0.4316870000000  0.5102890000000  0.5177430000000 1.0
C      1  0.4705760000000  0.4595080000000  0.5009530000000 1.0
C      1  0.5299800000000  0.5467280000000  0.5004720000000 1.0
C      1  0.4573200000000  0.5294960000000  0.4680670000000 1.0
C      1  0.5421470000000  0.4691940000000  0.5320130000000 1.0
C      1  0.4983480000000  0.5228580000000  0.5210010000000 1.0
C      1  0.5052340000000  0.4791630000000  0.4802530000000 1.0
C      1  0.4704830000000  0.5044350000000  0.4659850000000 1.0
C      1  0.5314450000000  0.4949650000000  0.5371310000000 1.0
C      1  0.4994930000000  0.4249950000000  0.5062090000000 1.0
C      1  0.4989020000000  0.5785780000000  0.4861230000000 1.0
C      1  0.5191580000000  0.5458880000000  0.4475080000000 1.0
C      1  0.4771100000000  0.4513830000000  0.5491910000000 1.0
C      1  0.5580410000000  0.5166200000000  0.4782690000000 1.0
C      1  0.4382440000000  0.4831860000000  0.5242530000000 1.0
C      1  0.5426650000000  0.5291380000000  0.4555500000000 1.0
C      1  0.4528850000000  0.4684310000000  0.5456930000000 1.0
C      1  0.5621460000000  0.5232330000000  0.5640270000000 1.0
C      1  0.4384840000000  0.4718140000000  0.4454300000000 1.0
C      1  0.4501520000000  0.5461010000000  0.5408680000000 1.0
C      1  0.5520290000000  0.4560140000000  0.4583350000000 1.0
C      1  0.4701290000000  0.5427590000000  0.4448590000000 1.0
C      1  0.5263230000000  0.4541030000000  0.5520530000000 1.0
C      1  0.4976280000000  0.4437140000000  0.4406140000000 1.0
C      1  0.5132290000000  0.5593100000000  0.5521440000000 1.0
C      1  0.5528640000000  0.4682430000000  0.5050590000000 1.0
C      1  0.4459930000000  0.5328470000000  0.4942570000000 1.0
C      1  0.4958390000000  0.4902830000000  0.5759590000000 1.0
C      1  0.5007330000000  0.5060690000000  0.4227640000000 1.0
C      1  0.5092880000000  0.5704820000000  0.4599280000000 1.0
C      1  0.4865560000000  0.4287930000000  0.5324070000000 1.0
C      1  0.5440900000000  0.4462130000000  0.4863710000000 1.0
C      1  0.4561980000000  0.5545170000000  0.5120580000000 1.0
C      1  0.4736410000000  0.5734960000000  0.4990580000000 1.0
C      1  0.5272110000000  0.4262060000000  0.4984100000000 1.0
C      1  0.4441040000000  0.4671150000000  0.5017340000000 1.0
C      1  0.5555790000000  0.5358460000000  0.4991390000000 1.0
C      1  0.4762770000000  0.4915380000000  0.4209660000000 1.0
C      1  0.5209420000000  0.5026400000000  0.5822910000000 1.0
END
