TITL C-2323492-8884-398 3.74612259993641e-07 125000 -345.707119297096 0 0 60 (C2) n - 1
REM
REM in /home/bkarasulu/CARBON/AIRSS/Generating-Clusters/LCBOP/Higher-Symm/Only-C60/SD-CG/FIRE-HFTN
REM
REM
REM
REM
REM
REM ./C.cell (50c204cfd26239f34c78669fe23a5462)
REM
REM compiler GCC version 9.2.1 20190827 (Red Hat 9.2.1-1)
REM options -cpp -mtune=generic -march=x86-64 -g -O0 -fpre-include=/usr/include/finclude/math-vector-fortran.h
REM seed 27216018 -1144242966 1261174882 -1529962041 423131530 690325962 -1707007566 -1340994816 -581638677 28028040 712605998 1934311106 1241184374 -1645725517 -54117244 939249950 609358772 783711202 1580855940 -312355928 -1229143599 -1819651507 -822244169 -700343722 -423888807 752411128 -986408146 -570349275 1497183553 -1048799811 -1860432446 -1030877268 2008385156
REM
CELL 1.54180   50.00000   50.00000   50.00000   90.00000   90.00000   90.00000
LATT -1
SFAC C  
C      1  0.4728850000000  0.5238580000000  0.4527900000000 1.0
C      1  0.5213190000000  0.5215000000000  0.5499480000000 1.0
C      1  0.5271150000000  0.4761440000000  0.4527900000000 1.0
C      1  0.4786820000000  0.4784980000000  0.5499480000000 1.0
C      1  0.5020820000000  0.4661820000000  0.4900110000000 1.0
C      1  0.4654100000000  0.4985110000000  0.5088140000000 1.0
C      1  0.4979180000000  0.5338180000000  0.4900120000000 1.0
C      1  0.5345900000000  0.5014890000000  0.5088140000000 1.0
C      1  0.5203500000000  0.4660430000000  0.5681490000000 1.0
C      1  0.4690420000000  0.4749180000000  0.4313260000000 1.0
C      1  0.4796500000000  0.5339550000000  0.5681500000000 1.0
C      1  0.5309580000000  0.5250830000000  0.4313270000000 1.0
C      1  0.5412140000000  0.4532500000000  0.4572500000000 1.0
C      1  0.4556770000000  0.4626070000000  0.5453560000000 1.0
C      1  0.4587860000000  0.5467510000000  0.4572510000000 1.0
C      1  0.5443230000000  0.5373920000000  0.5453570000000 1.0
C      1  0.4546540000000  0.5242920000000  0.5137700000000 1.0
C      1  0.5237110000000  0.5452950000000  0.4870280000000 1.0
C      1  0.5453460000000  0.4757070000000  0.5137690000000 1.0
C      1  0.4762880000000  0.4547050000000  0.4870270000000 1.0
C      1  0.4392630000000  0.4799070000000  0.4705060000000 1.0
C      1  0.4816890000000  0.5624370000000  0.5284930000000 1.0
C      1  0.5607360000000  0.5200930000000  0.4705060000000 1.0
C      1  0.5183110000000  0.4375620000000  0.5284910000000 1.0
C      1  0.5138270000000  0.4401380000000  0.5565570000000 1.0
C      1  0.4439570000000  0.4842910000000  0.4425490000000 1.0
C      1  0.4861740000000  0.5598610000000  0.5565590000000 1.0
C      1  0.5560430000000  0.5157110000000  0.4425490000000 1.0
C      1  0.4872810000000  0.4933880000000  0.5263730000000 1.0
C      1  0.4927220000000  0.5125740000000  0.4702980000000 1.0
C      1  0.5127190000000  0.5066120000000  0.5263730000000 1.0
C      1  0.5072780000000  0.4874270000000  0.4702970000000 1.0
C      1  0.5267490000000  0.4532830000000  0.5045030000000 1.0
C      1  0.4534920000000  0.4732480000000  0.4961200000000 1.0
C      1  0.4732520000000  0.5467160000000  0.5045040000000 1.0
C      1  0.5465070000000  0.5267520000000  0.4961200000000 1.0
C      1  0.5407720000000  0.4400040000000  0.4812160000000 1.0
C      1  0.4425550000000  0.4598850000000  0.5212760000000 1.0
C      1  0.4592280000000  0.5599960000000  0.4812170000000 1.0
C      1  0.5574450000000  0.5401150000000  0.5212770000000 1.0
C      1  0.5270200000000  0.5636000000000  0.4652670000000 1.0
C      1  0.5613310000000  0.4726530000000  0.5374370000000 1.0
C      1  0.4729800000000  0.4364010000000  0.4652650000000 1.0
C      1  0.4386690000000  0.5273460000000  0.5374380000000 1.0
C      1  0.5249110000000  0.5515720000000  0.4396410000000 1.0
C      1  0.5469560000000  0.4738110000000  0.5620180000000 1.0
C      1  0.4750890000000  0.4484300000000  0.4396400000000 1.0
C      1  0.4530440000000  0.5261870000000  0.5620190000000 1.0
C      1  0.5044060000000  0.4195290000000  0.5717980000000 1.0
C      1  0.4248750000000  0.4958070000000  0.4266730000000 1.0
C      1  0.4955950000000  0.5804690000000  0.5718000000000 1.0
C      1  0.5751240000000  0.5041940000000  0.4266720000000 1.0
C      1  0.4982180000000  0.4851300000000  0.5701420000000 1.0
C      1  0.4892040000000  0.4916400000000  0.4193840000000 1.0
C      1  0.5017830000000  0.5148680000000  0.5701420000000 1.0
C      1  0.5107960000000  0.5083620000000  0.4193840000000 1.0
C      1  0.5883250000000  0.4689770000000  0.5363680000000 1.0
C      1  0.4683270000000  0.4098190000000  0.4689350000000 1.0
C      1  0.4116750000000  0.5310220000000  0.5363700000000 1.0
C      1  0.5316730000000  0.5901810000000  0.4689370000000 1.0
END
