TITL C-2323489-8765-99 0.158550845618753 125000 -346.805763560397 0 0 60 (C1) n - 1
REM
REM in /home/bkarasulu/CARBON/AIRSS/Generating-Clusters/LCBOP/Higher-Symm/Only-C60/SD-CG/FIRE-HFTN
REM
REM
REM
REM
REM
REM ./C.cell (50c204cfd26239f34c78669fe23a5462)
REM
REM compiler GCC version 9.2.1 20190827 (Red Hat 9.2.1-1)
REM options -cpp -mtune=generic -march=x86-64 -g -O0 -fpre-include=/usr/include/finclude/math-vector-fortran.h
REM seed -1575136590 1866407573 -441401961 -745505478 341203498 1124623894 -1514669967 -939830155 1249551664 -1012792036 -1236596736 1430179285 -617400297 2010929044 -223447413 -1695216872 -1115254854 1809396183 1382823318 -253674362 1537020765 -470925526 1714883002 165048182 1893614679 -431995117 -334933986 644586738 109317483 141709691 112269648 1701311309 -1772141021
REM
CELL 1.54180   50.00000   50.00000   50.00000   90.00000   90.00000   90.00000
LATT -1
SFAC C  
C      1  0.5476160000000  0.5628850000000  0.5672090000000 1.0
C      1  0.4994090000000  0.4787640000000  0.4292240000000 1.0
C      1  0.6047290000000  0.4758850000000  0.4778520000000 1.0
C      1  0.3967430000000  0.4966640000000  0.5221820000000 1.0
C      1  0.5961460000000  0.5473030000000  0.5573280000000 1.0
C      1  0.4597270000000  0.5118050000000  0.4426920000000 1.0
C      1  0.3825110000000  0.5113970000000  0.5383060000000 1.0
C      1  0.6192160000000  0.4564740000000  0.4682110000000 1.0
C      1  0.4491800000000  0.4495360000000  0.4927240000000 1.0
C      1  0.5516320000000  0.5285410000000  0.4908090000000 1.0
C      1  0.4537890000000  0.4367270000000  0.5399960000000 1.0
C      1  0.4391140000000  0.6081120000000  0.4386760000000 1.0
C      1  0.4354230000000  0.4982230000000  0.4472230000000 1.0
C      1  0.6050160000000  0.5416630000000  0.5326030000000 1.0
C      1  0.4894610000000  0.5487160000000  0.5450790000000 1.0
C      1  0.5322460000000  0.4485600000000  0.4746210000000 1.0
C      1  0.5285900000000  0.4759400000000  0.5361330000000 1.0
C      1  0.4646710000000  0.5002400000000  0.5285960000000 1.0
C      1  0.4481010000000  0.5839840000000  0.4449760000000 1.0
C      1  0.4604970000000  0.4117780000000  0.5512710000000 1.0
C      1  0.4365940000000  0.4533320000000  0.5533080000000 1.0
C      1  0.4302750000000  0.6318420000000  0.4324810000000 1.0
C      1  0.5009730000000  0.5219620000000  0.5025140000000 1.0
C      1  0.4961740000000  0.4475690000000  0.5108800000000 1.0
C      1  0.5273780000000  0.5147560000000  0.4901300000000 1.0
C      1  0.4657350000000  0.4445610000000  0.5150910000000 1.0
C      1  0.4570400000000  0.5598730000000  0.4513220000000 1.0
C      1  0.4831480000000  0.3973910000000  0.5529090000000 1.0
C      1  0.5745040000000  0.5557720000000  0.5706770000000 1.0
C      1  0.4802610000000  0.4991890000000  0.4280830000000 1.0
C      1  0.5388320000000  0.4691410000000  0.4564490000000 1.0
C      1  0.5016550000000  0.5458580000000  0.5704180000000 1.0
C      1  0.5399330000000  0.5743830000000  0.5424020000000 1.0
C      1  0.4905410000000  0.4524810000000  0.4350520000000 1.0
C      1  0.4576340000000  0.4388150000000  0.4667720000000 1.0
C      1  0.5490250000000  0.5567240000000  0.4989340000000 1.0
C      1  0.4288170000000  0.4697490000000  0.4879660000000 1.0
C      1  0.5791950000000  0.5204920000000  0.4943970000000 1.0
C      1  0.4123110000000  0.4821710000000  0.5063820000000 1.0
C      1  0.5906690000000  0.4965220000000  0.4867020000000 1.0
C      1  0.5763970000000  0.5655170000000  0.5013490000000 1.0
C      1  0.4380030000000  0.4494300000000  0.4483180000000 1.0
C      1  0.5297860000000  0.5619470000000  0.5190420000000 1.0
C      1  0.4849790000000  0.4412350000000  0.4604410000000 1.0
C      1  0.4661850000000  0.5345360000000  0.4584850000000 1.0
C      1  0.5064180000000  0.4040580000000  0.5410940000000 1.0
C      1  0.4896880000000  0.4981310000000  0.5175170000000 1.0
C      1  0.5053340000000  0.4745610000000  0.5215350000000 1.0
C      1  0.5520110000000  0.4316660000000  0.4846760000000 1.0
C      1  0.4628560000000  0.5566820000000  0.5426870000000 1.0
C      1  0.5936740000000  0.5427530000000  0.5070060000000 1.0
C      1  0.4271680000000  0.4741830000000  0.4589220000000 1.0
C      1  0.5257860000000  0.5515880000000  0.5810430000000 1.0
C      1  0.5261750000000  0.4829930000000  0.4370870000000 1.0
C      1  0.4380840000000  0.5636880000000  0.5386240000000 1.0
C      1  0.5698200000000  0.4151180000000  0.4940710000000 1.0
C      1  0.5044440000000  0.4446180000000  0.4813160000000 1.0
C      1  0.5060520000000  0.5455570000000  0.5217840000000 1.0
C      1  0.4819140000000  0.5308210000000  0.4813230000000 1.0
C      1  0.5107140000000  0.4251380000000  0.5250960000000 1.0
END
