TITL C-2323479-8056-101 0.000202815966378726 125000 -375.73466898133 0 0 60 (C6v) n - 1
REM
REM in /home/bkarasulu/CARBON/AIRSS/Generating-Clusters/LCBOP/Higher-Symm/Only-C60/SD-CG/FIRE-HFTN
REM
REM
REM
REM
REM
REM ./C.cell (50c204cfd26239f34c78669fe23a5462)
REM
REM compiler GCC version 9.2.1 20190827 (Red Hat 9.2.1-1)
REM options -cpp -mtune=generic -march=x86-64 -g -O0 -fpre-include=/usr/include/finclude/math-vector-fortran.h
REM seed 478093530 824301636 1072433663 -1708980266 2054041201 -581626141 1508092670 861258698 974013560 -1475735601 -1229945691 -1160224168 -1793838924 -509251216 673971480 -1162584749 373745640 1120817487 628181153 -1163900119 -1449939844 1380581844 -1811090051 -772989872 523379727 2125930419 1179455931 -1114160285 830012938 -1915795839 1264942638 621034020 1466159169
REM
CELL 1.54180   50.00000   50.00000   50.00000   90.00000   90.00000   90.00000
LATT -1
SFAC C  
C      1  0.5639150000000  0.5284110000000  0.5019200000000 1.0
C      1  0.5639160000000  0.5158670000000  0.4763550000000 1.0
C      1  0.5639150000000  0.4874550000000  0.4744360000000 1.0
C      1  0.5639150000000  0.4715870000000  0.4980830000000 1.0
C      1  0.5639140000000  0.4841320000000  0.5236470000000 1.0
C      1  0.5639150000000  0.5125440000000  0.5255660000000 1.0
C      1  0.4760480000000  0.4470490000000  0.5789090000000 1.0
C      1  0.4760490000000  0.5418620000000  0.5853120000000 1.0
C      1  0.4760510000000  0.5948140000000  0.5064020000000 1.0
C      1  0.4760520000000  0.5529520000000  0.4210900000000 1.0
C      1  0.4760510000000  0.4581380000000  0.4146880000000 1.0
C      1  0.4760490000000  0.4051870000000  0.4935970000000 1.0
C      1  0.4312590000000  0.5162780000000  0.4757420000000 1.0
C      1  0.4312580000000  0.4871330000000  0.4737740000000 1.0
C      1  0.4312580000000  0.4708560000000  0.4980310000000 1.0
C      1  0.4312570000000  0.4837240000000  0.5242550000000 1.0
C      1  0.4312580000000  0.5128690000000  0.5262230000000 1.0
C      1  0.4312580000000  0.5291460000000  0.5019670000000 1.0
C      1  0.5608480000000  0.5248090000000  0.5505620000000 1.0
C      1  0.5608490000000  0.5561920000000  0.5037960000000 1.0
C      1  0.5608500000000  0.5313820000000  0.4532340000000 1.0
C      1  0.5608490000000  0.4751890000000  0.4494400000000 1.0
C      1  0.5608480000000  0.4438070000000  0.4962070000000 1.0
C      1  0.5608470000000  0.4686170000000  0.5467680000000 1.0
C      1  0.5016370000000  0.5450790000000  0.5918680000000 1.0
C      1  0.5016390000000  0.6020990000000  0.5068950000000 1.0
C      1  0.5016400000000  0.5570200000000  0.4150270000000 1.0
C      1  0.5016390000000  0.4549210000000  0.4081320000000 1.0
C      1  0.5016370000000  0.3979010000000  0.4931050000000 1.0
C      1  0.5016360000000  0.4429790000000  0.5849730000000 1.0
C      1  0.4777570000000  0.5127450000000  0.5259720000000 1.0
C      1  0.4777580000000  0.5288660000000  0.5019490000000 1.0
C      1  0.4777580000000  0.5161210000000  0.4759760000000 1.0
C      1  0.4777580000000  0.4872560000000  0.4740270000000 1.0
C      1  0.4777570000000  0.4711350000000  0.4980500000000 1.0
C      1  0.4777570000000  0.4838790000000  0.5240230000000 1.0
C      1  0.4545890000000  0.5477480000000  0.5032230000000 1.0
C      1  0.4545900000000  0.5266670000000  0.4602610000000 1.0
C      1  0.4545890000000  0.4789190000000  0.4570360000000 1.0
C      1  0.4545880000000  0.4522530000000  0.4967750000000 1.0
C      1  0.4545880000000  0.4733340000000  0.5397380000000 1.0
C      1  0.4545880000000  0.5210820000000  0.5429620000000 1.0
C      1  0.4581450000000  0.5331820000000  0.5676210000000 1.0
C      1  0.4581460000000  0.5751530000000  0.5050740000000 1.0
C      1  0.4581470000000  0.5419720000000  0.4374530000000 1.0
C      1  0.4581460000000  0.4668190000000  0.4323780000000 1.0
C      1  0.4581450000000  0.4248480000000  0.4949240000000 1.0
C      1  0.4581440000000  0.4580290000000  0.5625460000000 1.0
C      1  0.5275410000000  0.5424370000000  0.5864860000000 1.0
C      1  0.5275430000000  0.5961170000000  0.5064910000000 1.0
C      1  0.5275440000000  0.5536790000000  0.4200060000000 1.0
C      1  0.5275430000000  0.4575620000000  0.4135150000000 1.0
C      1  0.5275410000000  0.4038830000000  0.4935100000000 1.0
C      1  0.5275400000000  0.4463200000000  0.5799950000000 1.0
C      1  0.5482590000000  0.5444080000000  0.4338230000000 1.0
C      1  0.5482580000000  0.4648920000000  0.4284530000000 1.0
C      1  0.5482560000000  0.4204840000000  0.4946310000000 1.0
C      1  0.5482550000000  0.4555910000000  0.5661790000000 1.0
C      1  0.5482560000000  0.5351070000000  0.5715480000000 1.0
C      1  0.5482580000000  0.5795150000000  0.5053700000000 1.0
END
