TITL C-2323492-8884-527 2.77501732917981 125000 -366.665766039667 0 0 60 (C1) n - 1
REM
REM in /home/bkarasulu/CARBON/AIRSS/Generating-Clusters/LCBOP/Higher-Symm/Only-C60/SD-CG/FIRE-HFTN
REM
REM
REM
REM
REM
REM ./C.cell (50c204cfd26239f34c78669fe23a5462)
REM
REM compiler GCC version 9.2.1 20190827 (Red Hat 9.2.1-1)
REM options -cpp -mtune=generic -march=x86-64 -g -O0 -fpre-include=/usr/include/finclude/math-vector-fortran.h
REM seed 138739577 -140605252 -129219213 -27685 1268360973 -678922723 928585175 1934397252 746794687 -1869514428 -631780183 1629303794 -818749343 -151740318 -1726964399 1213284083 778169668 -2123338753 -1687040554 -1315543094 -2091290573 -6370499 1475779537 -1011678997 -150156746 1946564349 -871090841 -1951986202 1740031007 -1865391712 -389648704 1813435145 1618657777
REM
CELL 1.54180   50.00000   50.00000   50.00000   90.00000   90.00000   90.00000
LATT -1
SFAC C  
C      1  0.6307220000000  0.4387010000000  0.3938520000000 1.0
C      1  0.4645360000000  0.5521740000000  0.6555020000000 1.0
C      1  0.4444090000000  0.6417170000000  0.5218230000000 1.0
C      1  0.5505490000000  0.4197760000000  0.4341640000000 1.0
C      1  0.4713510000000  0.5411040000000  0.5166770000000 1.0
C      1  0.4748300000000  0.4580430000000  0.5503060000000 1.0
C      1  0.5404090000000  0.4987200000000  0.4538550000000 1.0
C      1  0.5150580000000  0.5356730000000  0.3794130000000 1.0
C      1  0.3927040000000  0.5315180000000  0.6055870000000 1.0
C      1  0.5356240000000  0.4268100000000  0.4564340000000 1.0
C      1  0.4766170000000  0.5616840000000  0.4978950000000 1.0
C      1  0.5007300000000  0.3977890000000  0.5351650000000 1.0
C      1  0.4511450000000  0.5315560000000  0.5584610000000 1.0
C      1  0.4374320000000  0.5339820000000  0.5826150000000 1.0
C      1  0.4392960000000  0.6011450000000  0.5488640000000 1.0
C      1  0.4959130000000  0.4669800000000  0.5065090000000 1.0
C      1  0.6175690000000  0.4592980000000  0.4353730000000 1.0
C      1  0.5632230000000  0.3998550000000  0.3940210000000 1.0
C      1  0.5081710000000  0.4883300000000  0.3969640000000 1.0
C      1  0.5484730000000  0.5469650000000  0.4379110000000 1.0
C      1  0.4236170000000  0.5495980000000  0.6747410000000 1.0
C      1  0.5106710000000  0.4527570000000  0.4867100000000 1.0
C      1  0.4832440000000  0.5984380000000  0.4699100000000 1.0
C      1  0.5261710000000  0.3676960000000  0.5059760000000 1.0
C      1  0.5151290000000  0.4762470000000  0.4196280000000 1.0
C      1  0.5132830000000  0.4249750000000  0.4968940000000 1.0
C      1  0.4882160000000  0.4936950000000  0.5074140000000 1.0
C      1  0.4503850000000  0.5406100000000  0.6067770000000 1.0
C      1  0.4193390000000  0.5435410000000  0.6467290000000 1.0
C      1  0.5410130000000  0.5592850000000  0.4154400000000 1.0
C      1  0.4518460000000  0.5804260000000  0.5349640000000 1.0
C      1  0.5333980000000  0.3825160000000  0.4846110000000 1.0
C      1  0.4683750000000  0.6094510000000  0.4920800000000 1.0
C      1  0.4629240000000  0.5073930000000  0.5479600000000 1.0
C      1  0.5852270000000  0.4171010000000  0.4009660000000 1.0
C      1  0.5934360000000  0.4481580000000  0.4397260000000 1.0
C      1  0.5268690000000  0.4757560000000  0.4451000000000 1.0
C      1  0.5285700000000  0.4093120000000  0.4783360000000 1.0
C      1  0.5769470000000  0.4297060000000  0.4266340000000 1.0
C      1  0.4463870000000  0.5452290000000  0.6339350000000 1.0
C      1  0.3968560000000  0.5371580000000  0.6315330000000 1.0
C      1  0.5279890000000  0.5550520000000  0.3924960000000 1.0
C      1  0.4582000000000  0.6342100000000  0.4998840000000 1.0
C      1  0.5001440000000  0.4226230000000  0.5223820000000 1.0
C      1  0.4641940000000  0.5865440000000  0.5096070000000 1.0
C      1  0.6095810000000  0.4228380000000  0.3886370000000 1.0
C      1  0.4643260000000  0.4814510000000  0.5580400000000 1.0
C      1  0.4753040000000  0.5134490000000  0.5220990000000 1.0
C      1  0.5432510000000  0.4013600000000  0.4130860000000 1.0
C      1  0.4560040000000  0.5526430000000  0.5397240000000 1.0
C      1  0.4095380000000  0.5300710000000  0.5846490000000 1.0
C      1  0.4878880000000  0.5712740000000  0.4732940000000 1.0
C      1  0.5077540000000  0.5100940000000  0.3815920000000 1.0
C      1  0.5479820000000  0.5241310000000  0.4516400000000 1.0
C      1  0.4505360000000  0.5546250000000  0.6793720000000 1.0
C      1  0.5119670000000  0.3743370000000  0.5279510000000 1.0
C      1  0.5245260000000  0.4533030000000  0.4616740000000 1.0
C      1  0.6346620000000  0.4552850000000  0.4148270000000 1.0
C      1  0.4893000000000  0.4485250000000  0.5284680000000 1.0
C      1  0.4361930000000  0.6273180000000  0.5431210000000 1.0
END
