TITL C-2323491-8878-575 3.95260089672274 125000 -359.264138205266 0 0 60 (C1) n - 1
REM
REM in /home/bkarasulu/CARBON/AIRSS/Generating-Clusters/LCBOP/Higher-Symm/Only-C60/SD-CG/FIRE-HFTN
REM
REM
REM
REM
REM
REM ./C.cell (50c204cfd26239f34c78669fe23a5462)
REM
REM compiler GCC version 9.2.1 20190827 (Red Hat 9.2.1-1)
REM options -cpp -mtune=generic -march=x86-64 -g -O0 -fpre-include=/usr/include/finclude/math-vector-fortran.h
REM seed 94545816 -319797117 -501084878 -1749338265 -1646098556 231250374 -1465368618 -846031378 198223115 803192487 999960776 -1133515596 2105985035 795980783 1569568143 1588868564 650845749 -157796906 -2027336320 -1782556875 -722607554 -1820901601 279434755 -1003109629 -1754029271 2119661328 -215425365 881917998 -139043593 1814414660 -1818355566 420871077 7763077
REM
CELL 1.54180   50.00000   50.00000   50.00000   90.00000   90.00000   90.00000
LATT -1
SFAC C  
C      1  0.5524890000000  0.4427370000000  0.5621100000000 1.0
C      1  0.4751430000000  0.4285230000000  0.4541280000000 1.0
C      1  0.5423850000000  0.5681630000000  0.4794630000000 1.0
C      1  0.4636620000000  0.5618790000000  0.5291260000000 1.0
C      1  0.4714690000000  0.4130420000000  0.4318630000000 1.0
C      1  0.5555300000000  0.5917390000000  0.4836280000000 1.0
C      1  0.4559230000000  0.5879910000000  0.5319590000000 1.0
C      1  0.5562750000000  0.4195950000000  0.5761700000000 1.0
C      1  0.4048460000000  0.5450960000000  0.4931540000000 1.0
C      1  0.6182360000000  0.4723590000000  0.5373620000000 1.0
C      1  0.4094000000000  0.4565670000000  0.4591890000000 1.0
C      1  0.5151430000000  0.5097950000000  0.5042110000000 1.0
C      1  0.5743450000000  0.4569090000000  0.5519550000000 1.0
C      1  0.4576470000000  0.4496980000000  0.4595140000000 1.0
C      1  0.5458940000000  0.5463820000000  0.4968670000000 1.0
C      1  0.4500730000000  0.5452250000000  0.5111910000000 1.0
C      1  0.4374050000000  0.5135530000000  0.4755230000000 1.0
C      1  0.5787510000000  0.5004250000000  0.5305070000000 1.0
C      1  0.4373700000000  0.4866770000000  0.4849200000000 1.0
C      1  0.5625250000000  0.5008870000000  0.5072140000000 1.0
C      1  0.3847410000000  0.4688710000000  0.5161660000000 1.0
C      1  0.5322930000000  0.4947170000000  0.4476620000000 1.0
C      1  0.3930280000000  0.5321590000000  0.4324150000000 1.0
C      1  0.6330860000000  0.5324350000000  0.5471670000000 1.0
C      1  0.6485340000000  0.5108440000000  0.5430260000000 1.0
C      1  0.3739860000000  0.4591080000000  0.4935610000000 1.0
C      1  0.5071110000000  0.5044800000000  0.4556640000000 1.0
C      1  0.3779330000000  0.5432700000000  0.4516720000000 1.0
C      1  0.5433570000000  0.4333920000000  0.4915640000000 1.0
C      1  0.4939960000000  0.5260290000000  0.4426040000000 1.0
C      1  0.5336620000000  0.5424040000000  0.5619940000000 1.0
C      1  0.4798130000000  0.4712550000000  0.5415580000000 1.0
C      1  0.5414060000000  0.5200580000000  0.5052980000000 1.0
C      1  0.4309940000000  0.5347260000000  0.4937280000000 1.0
C      1  0.5904960000000  0.4760210000000  0.5396090000000 1.0
C      1  0.4352860000000  0.4647080000000  0.4667320000000 1.0
C      1  0.4091350000000  0.4773420000000  0.5233070000000 1.0
C      1  0.5551090000000  0.4884110000000  0.4604120000000 1.0
C      1  0.4181290000000  0.5228350000000  0.4316110000000 1.0
C      1  0.6066700000000  0.5365720000000  0.5483090000000 1.0
C      1  0.3834940000000  0.5486570000000  0.4773990000000 1.0
C      1  0.6416870000000  0.4852110000000  0.5387510000000 1.0
C      1  0.3847670000000  0.4540670000000  0.4694650000000 1.0
C      1  0.5009320000000  0.5011280000000  0.4830900000000 1.0
C      1  0.5074740000000  0.5506450000000  0.4434440000000 1.0
C      1  0.5081970000000  0.5474690000000  0.5564360000000 1.0
C      1  0.5030210000000  0.4623550000000  0.5507810000000 1.0
C      1  0.5199080000000  0.4235010000000  0.4838890000000 1.0
C      1  0.4350020000000  0.4813580000000  0.5129770000000 1.0
C      1  0.5629950000000  0.4810220000000  0.4865830000000 1.0
C      1  0.4409210000000  0.5194340000000  0.4476690000000 1.0
C      1  0.5815130000000  0.5243390000000  0.5461280000000 1.0
C      1  0.5249170000000  0.5649540000000  0.4576760000000 1.0
C      1  0.4851260000000  0.5520240000000  0.5441430000000 1.0
C      1  0.5266800000000  0.4525640000000  0.5576060000000 1.0
C      1  0.4964120000000  0.4232270000000  0.4715470000000 1.0
C      1  0.4666410000000  0.5238230000000  0.4376920000000 1.0
C      1  0.5589770000000  0.5350580000000  0.5587720000000 1.0
C      1  0.4576350000000  0.4784830000000  0.5289770000000 1.0
C      1  0.5604260000000  0.4538030000000  0.4928600000000 1.0
END
