TITL C-2323486-8761-54 -0.0441780052341818 125000 -360.67233328305 0 0 60 (S4) n - 1
REM
REM in /home/bkarasulu/CARBON/AIRSS/Generating-Clusters/LCBOP/Higher-Symm/Only-C60/SD-CG/FIRE-HFTN
REM
REM
REM
REM
REM
REM ./C.cell (50c204cfd26239f34c78669fe23a5462)
REM
REM compiler GCC version 9.2.1 20190827 (Red Hat 9.2.1-1)
REM options -cpp -mtune=generic -march=x86-64 -g -O0 -fpre-include=/usr/include/finclude/math-vector-fortran.h
REM seed 1297750077 -1434522037 -331020816 1024855768 -679741387 1211584339 2007794570 1034044620 108673609 -2120523291 -1412535162 -2017965233 617365388 1388936690 1600906803 -1304844215 -467590692 -1263367904 -967603289 2095828040 -1105506037 -57676436 -378779992 1836396886 572762759 -365793873 1763549335 -1335662670 -176698814 680593491 -842292095 1670060253 -1502975241
REM
CELL 1.54180   50.00000   50.00000   50.00000   90.00000   90.00000   90.00000
LATT -1
SFAC C  
C      1  0.4508260000000  0.4753230000000  0.3989680000000 1.0
C      1  0.5491780000000  0.6010310000000  0.4753260000000 1.0
C      1  0.4508160000000  0.5246740000000  0.6010280000000 1.0
C      1  0.5491800000000  0.3989710000000  0.5246780000000 1.0
C      1  0.4954310000000  0.5301300000000  0.5838160000000 1.0
C      1  0.5045650000000  0.4161840000000  0.5301310000000 1.0
C      1  0.4954400000000  0.4698700000000  0.4161830000000 1.0
C      1  0.5045640000000  0.5838170000000  0.4698700000000 1.0
C      1  0.5128030000000  0.3689850000000  0.5340440000000 1.0
C      1  0.4872050000000  0.4659560000000  0.3689840000000 1.0
C      1  0.5128000000000  0.6310160000000  0.4659570000000 1.0
C      1  0.4871920000000  0.5340430000000  0.6310150000000 1.0
C      1  0.4105000000000  0.4844950000000  0.4308620000000 1.0
C      1  0.5895020000000  0.5691360000000  0.4845010000000 1.0
C      1  0.4104930000000  0.5155010000000  0.5691300000000 1.0
C      1  0.5895040000000  0.4308680000000  0.5155070000000 1.0
C      1  0.6074400000000  0.4805330000000  0.4697380000000 1.0
C      1  0.3925620000000  0.5302640000000  0.4805260000000 1.0
C      1  0.6074360000000  0.5194720000000  0.5302710000000 1.0
C      1  0.3925620000000  0.4697310000000  0.5194650000000 1.0
C      1  0.6170620000000  0.4960050000000  0.5390540000000 1.0
C      1  0.3829380000000  0.4609490000000  0.4959970000000 1.0
C      1  0.6170650000000  0.5040010000000  0.4609570000000 1.0
C      1  0.3829350000000  0.5390460000000  0.5039920000000 1.0
C      1  0.4779450000000  0.5296800000000  0.6056640000000 1.0
C      1  0.5220510000000  0.3943360000000  0.5296820000000 1.0
C      1  0.4779560000000  0.4703190000000  0.3943340000000 1.0
C      1  0.5220480000000  0.6056660000000  0.4703200000000 1.0
C      1  0.3863880000000  0.4681540000000  0.4703760000000 1.0
C      1  0.6136150000000  0.5296220000000  0.4681620000000 1.0
C      1  0.3863830000000  0.5318400000000  0.5296140000000 1.0
C      1  0.6136140000000  0.4703840000000  0.5318480000000 1.0
C      1  0.4014180000000  0.4878350000000  0.4569450000000 1.0
C      1  0.5985840000000  0.5430530000000  0.4878420000000 1.0
C      1  0.4014130000000  0.5121600000000  0.5430460000000 1.0
C      1  0.5985850000000  0.4569520000000  0.5121670000000 1.0
C      1  0.4910370000000  0.4389400000000  0.5289320000000 1.0
C      1  0.5089660000000  0.4710680000000  0.4389400000000 1.0
C      1  0.4910370000000  0.5610600000000  0.4710670000000 1.0
C      1  0.5089600000000  0.5289330000000  0.5610600000000 1.0
C      1  0.5721290000000  0.5886870000000  0.4801650000000 1.0
C      1  0.4278650000000  0.5198370000000  0.5886820000000 1.0
C      1  0.5721320000000  0.4113170000000  0.5198420000000 1.0
C      1  0.4278740000000  0.4801600000000  0.4113120000000 1.0
C      1  0.5241310000000  0.4742200000000  0.4604560000000 1.0
C      1  0.4758710000000  0.5395450000000  0.4742180000000 1.0
C      1  0.5241270000000  0.5257810000000  0.5395470000000 1.0
C      1  0.4758710000000  0.4604540000000  0.5257800000000 1.0
C      1  0.4102750000000  0.4902360000000  0.5271280000000 1.0
C      1  0.5897250000000  0.4728700000000  0.4902430000000 1.0
C      1  0.4102770000000  0.5097590000000  0.4728640000000 1.0
C      1  0.5897230000000  0.5271340000000  0.5097660000000 1.0
C      1  0.4346320000000  0.5074400000000  0.4877670000000 1.0
C      1  0.5653670000000  0.5122320000000  0.5074440000000 1.0
C      1  0.4346320000000  0.4925570000000  0.5122270000000 1.0
C      1  0.5653690000000  0.4877710000000  0.4925620000000 1.0
C      1  0.4573960000000  0.4787210000000  0.5205540000000 1.0
C      1  0.5426050000000  0.4794450000000  0.4787240000000 1.0
C      1  0.4573970000000  0.5212770000000  0.4794420000000 1.0
C      1  0.5426020000000  0.5205570000000  0.5212800000000 1.0
END
