TITL C-2323483-8886-254 1.22453994632851e-05 125000 -347.757048742948 0 0 60 (D2d) n - 1
REM
REM in /home/bkarasulu/CARBON/AIRSS/Generating-Clusters/LCBOP/Higher-Symm/Only-C60/SD-CG/FIRE-HFTN
REM
REM
REM
REM
REM
REM ./C.cell (50c204cfd26239f34c78669fe23a5462)
REM
REM compiler GCC version 9.2.1 20190827 (Red Hat 9.2.1-1)
REM options -cpp -mtune=generic -march=x86-64 -g -O0 -fpre-include=/usr/include/finclude/math-vector-fortran.h
REM seed 1221977104 -1088547752 1902648661 177760218 -200681411 1587600753 -1365607784 -373118161 -963810246 1004477165 -957208695 -1882853517 -2097752568 -643458815 -46396079 -2144439447 -2137313949 -1136198151 706578418 -1670574029 2054685366 -1405685285 -1447945539 -245628469 -774215660 -1992297527 -1571964427 -199484841 -343781413 -484142988 -1997637998 -959369270 -742601381
REM
CELL 1.54180   50.00000   50.00000   50.00000   90.00000   90.00000   90.00000
LATT -1
SFAC C  
C      1  0.5397550000000  0.4911360000000  0.5305950000000 1.0
C      1  0.5397560000000  0.5088720000000  0.4694080000000 1.0
C      1  0.4602430000000  0.5088450000000  0.5305970000000 1.0
C      1  0.4602470000000  0.4911470000000  0.4694000000000 1.0
C      1  0.5397530000000  0.5306030000000  0.4911520000000 1.0
C      1  0.5397580000000  0.4694050000000  0.5088510000000 1.0
C      1  0.4602410000000  0.5305900000000  0.5088660000000 1.0
C      1  0.4602480000000  0.4694030000000  0.4911310000000 1.0
C      1  0.4624020000000  0.5154930000000  0.5596760000000 1.0
C      1  0.4624100000000  0.4844990000000  0.4403220000000 1.0
C      1  0.5375930000000  0.4844710000000  0.5596690000000 1.0
C      1  0.5375950000000  0.5155370000000  0.4403340000000 1.0
C      1  0.4624000000000  0.5596640000000  0.5155320000000 1.0
C      1  0.4624120000000  0.4403290000000  0.4844660000000 1.0
C      1  0.5375890000000  0.5596810000000  0.4845040000000 1.0
C      1  0.5375990000000  0.4403270000000  0.5154980000000 1.0
C      1  0.4757980000000  0.4289600000000  0.5085340000000 1.0
C      1  0.4757840000000  0.5710350000000  0.4914640000000 1.0
C      1  0.5242020000000  0.5710350000000  0.5085790000000 1.0
C      1  0.5242160000000  0.4289700000000  0.4914230000000 1.0
C      1  0.4757930000000  0.5085760000000  0.4289670000000 1.0
C      1  0.4757890000000  0.4914200000000  0.5710310000000 1.0
C      1  0.5242060000000  0.5085370000000  0.5710380000000 1.0
C      1  0.5242120000000  0.4914670000000  0.4289630000000 1.0
C      1  0.5268160000000  0.5570760000000  0.5367080000000 1.0
C      1  0.5268300000000  0.4429290000000  0.4632940000000 1.0
C      1  0.4731810000000  0.4429010000000  0.5366720000000 1.0
C      1  0.4731730000000  0.5570930000000  0.4633260000000 1.0
C      1  0.5268180000000  0.5366760000000  0.5570970000000 1.0
C      1  0.5268290000000  0.4633300000000  0.4429050000000 1.0
C      1  0.4731750000000  0.5367050000000  0.4429250000000 1.0
C      1  0.4731780000000  0.4632900000000  0.5570730000000 1.0
C      1  0.5129920000000  0.4736780000000  0.4936650000000 1.0
C      1  0.5129860000000  0.5263250000000  0.5063360000000 1.0
C      1  0.4870090000000  0.5263260000000  0.4936800000000 1.0
C      1  0.4870130000000  0.4736710000000  0.5063190000000 1.0
C      1  0.5129910000000  0.4936820000000  0.4736730000000 1.0
C      1  0.5129880000000  0.5063200000000  0.5263280000000 1.0
C      1  0.4870110000000  0.4936640000000  0.5263230000000 1.0
C      1  0.4870110000000  0.5063340000000  0.4736760000000 1.0
C      1  0.4609700000000  0.5631810000000  0.5437730000000 1.0
C      1  0.4609850000000  0.4368110000000  0.4562240000000 1.0
C      1  0.5390270000000  0.4367920000000  0.5437380000000 1.0
C      1  0.5390180000000  0.5632150000000  0.4562650000000 1.0
C      1  0.4609710000000  0.5437320000000  0.5632100000000 1.0
C      1  0.4609840000000  0.4562600000000  0.4367870000000 1.0
C      1  0.5390200000000  0.5437780000000  0.4368160000000 1.0
C      1  0.5390240000000  0.4562290000000  0.5631870000000 1.0
C      1  0.4362980000000  0.5084570000000  0.4724900000000 1.0
C      1  0.4362970000000  0.4915300000000  0.5275050000000 1.0
C      1  0.5637040000000  0.4915590000000  0.4724900000000 1.0
C      1  0.5637010000000  0.5084530000000  0.5275150000000 1.0
C      1  0.4363000000000  0.4724810000000  0.5084450000000 1.0
C      1  0.4362950000000  0.5275060000000  0.4915510000000 1.0
C      1  0.5637060000000  0.4724990000000  0.4915390000000 1.0
C      1  0.5637000000000  0.5275140000000  0.5084660000000 1.0
C      1  0.5000080000000  0.4160770000000  0.4999750000000 1.0
C      1  0.4999920000000  0.5839230000000  0.5000250000000 1.0
C      1  0.5000030000000  0.5000250000000  0.4160770000000 1.0
C      1  0.4999970000000  0.4999750000000  0.5839230000000 1.0
END
