TITL C-2323488-8613-585 0.272988380285126 125000 -363.849494037371 0 0 60 (C2h) n - 1
REM
REM in /home/bkarasulu/CARBON/AIRSS/Generating-Clusters/LCBOP/Higher-Symm/Only-C60/SD-CG/FIRE-HFTN
REM
REM
REM
REM
REM
REM ./C.cell (50c204cfd26239f34c78669fe23a5462)
REM
REM compiler GCC version 9.2.1 20190827 (Red Hat 9.2.1-1)
REM options -cpp -mtune=generic -march=x86-64 -g -O0 -fpre-include=/usr/include/finclude/math-vector-fortran.h
REM seed 1802897684 -1408012861 -943979297 2097747662 -1570840456 -372910549 2041585091 798698740 -1309158382 -1436043040 1518502986 2062790402 -461330020 1616910188 -699063913 -1925826856 -1841134515 1117927257 -1482843942 -850746208 -668250264 743980560 -1852331983 1734285736 637002825 -64081817 1745093509 -1289979073 -1310162904 609700347 1710274296 -1735487164 1519997355
REM
CELL 1.54180   50.00000   50.00000   50.00000   90.00000   90.00000   90.00000
LATT -1
SFAC C  
C      1  0.4987770000000  0.4654420000000  0.4303080000000 1.0
C      1  0.5012230000000  0.4654430000000  0.5696930000000 1.0
C      1  0.4987770000000  0.5345570000000  0.4303070000000 1.0
C      1  0.5012230000000  0.5345580000000  0.5696920000000 1.0
C      1  0.4849990000000  0.5868300000000  0.4300920000000 1.0
C      1  0.5150020000000  0.5868310000000  0.5699060000000 1.0
C      1  0.4849980000000  0.4131690000000  0.4300940000000 1.0
C      1  0.5150010000000  0.4131700000000  0.5699080000000 1.0
C      1  0.5215130000000  0.6120570000000  0.5650280000000 1.0
C      1  0.4784880000000  0.6120550000000  0.4349690000000 1.0
C      1  0.5215110000000  0.3879440000000  0.5650310000000 1.0
C      1  0.4784880000000  0.3879430000000  0.4349720000000 1.0
C      1  0.4712410000000  0.4452080000000  0.5030510000000 1.0
C      1  0.5287580000000  0.4452080000000  0.4969510000000 1.0
C      1  0.4712420000000  0.5547920000000  0.5030490000000 1.0
C      1  0.5287590000000  0.5547920000000  0.4969490000000 1.0
C      1  0.4833000000000  0.5134340000000  0.4196680000000 1.0
C      1  0.5167000000000  0.5134360000000  0.5803310000000 1.0
C      1  0.4833000000000  0.4865640000000  0.4196690000000 1.0
C      1  0.5167000000000  0.4865660000000  0.5803320000000 1.0
C      1  0.4864420000000  0.5786390000000  0.5010540000000 1.0
C      1  0.5135580000000  0.5786390000000  0.4989440000000 1.0
C      1  0.4864420000000  0.4213610000000  0.5010560000000 1.0
C      1  0.5135580000000  0.4213610000000  0.4989460000000 1.0
C      1  0.4567970000000  0.5136830000000  0.5694860000000 1.0
C      1  0.5432040000000  0.5136810000000  0.4305140000000 1.0
C      1  0.4567960000000  0.4863190000000  0.5694860000000 1.0
C      1  0.5432040000000  0.4863170000000  0.4305140000000 1.0
C      1  0.5278260000000  0.3632870000000  0.5593950000000 1.0
C      1  0.4721730000000  0.3632860000000  0.4406080000000 1.0
C      1  0.5278280000000  0.6367140000000  0.5593910000000 1.0
C      1  0.4721730000000  0.6367130000000  0.4406050000000 1.0
C      1  0.4781200000000  0.4738210000000  0.5551240000000 1.0
C      1  0.5218790000000  0.4738200000000  0.4448770000000 1.0
C      1  0.4781210000000  0.5261800000000  0.5551230000000 1.0
C      1  0.5218790000000  0.5261790000000  0.4448760000000 1.0
C      1  0.5173840000000  0.5143850000000  0.4710600000000 1.0
C      1  0.4826160000000  0.5143860000000  0.5289400000000 1.0
C      1  0.5173840000000  0.4856140000000  0.4710600000000 1.0
C      1  0.4826160000000  0.4856150000000  0.5289400000000 1.0
C      1  0.5083040000000  0.5613000000000  0.5720990000000 1.0
C      1  0.4916960000000  0.5612980000000  0.4278990000000 1.0
C      1  0.5083040000000  0.4387020000000  0.5721010000000 1.0
C      1  0.4916960000000  0.4387000000000  0.4279010000000 1.0
C      1  0.4436890000000  0.4477470000000  0.5002560000000 1.0
C      1  0.5563100000000  0.4477470000000  0.4997450000000 1.0
C      1  0.4436900000000  0.5522530000000  0.5002550000000 1.0
C      1  0.5563110000000  0.5522530000000  0.4997440000000 1.0
C      1  0.5124350000000  0.5313250000000  0.4929210000000 1.0
C      1  0.4875650000000  0.5313250000000  0.5070790000000 1.0
C      1  0.5124350000000  0.4686750000000  0.4929210000000 1.0
C      1  0.4875650000000  0.4686750000000  0.5070790000000 1.0
C      1  0.4220130000000  0.4630330000000  0.4983470000000 1.0
C      1  0.5779870000000  0.4630330000000  0.5016540000000 1.0
C      1  0.4220130000000  0.5369670000000  0.4983460000000 1.0
C      1  0.5779870000000  0.5369670000000  0.5016530000000 1.0
C      1  0.5900610000000  0.4867050000000  0.5026030000000 1.0
C      1  0.4099380000000  0.4867060000000  0.4973970000000 1.0
C      1  0.5900620000000  0.5132950000000  0.5026030000000 1.0
C      1  0.4099390000000  0.5132950000000  0.4973970000000 1.0
END
