TITL C-2323483-8886-156 1.73340064031338e-06 125000 -360.587583773956 0 0 60 (C1) n - 1
REM
REM in /home/bkarasulu/CARBON/AIRSS/Generating-Clusters/LCBOP/Higher-Symm/Only-C60/SD-CG/FIRE-HFTN
REM
REM
REM
REM
REM
REM ./C.cell (50c204cfd26239f34c78669fe23a5462)
REM
REM compiler GCC version 9.2.1 20190827 (Red Hat 9.2.1-1)
REM options -cpp -mtune=generic -march=x86-64 -g -O0 -fpre-include=/usr/include/finclude/math-vector-fortran.h
REM seed 1857802230 -2043379137 -1039523700 362423852 2123300736 -2029374615 754157634 -651620499 -1973172635 1271793142 2133952753 1913112335 -822278637 688002763 -22950078 -135073408 632140471 -105939526 244533185 972487671 -812126602 -1637524351 730184733 866431375 411506514 1308043898 -1214239963 1505307952 2097505206 -1390883748 -138922358 1589550870 2066693668
REM
CELL 1.54180   50.00000   50.00000   50.00000   90.00000   90.00000   90.00000
LATT -1
SFAC C  
C      1  0.5379200000000  0.5310480000000  0.5665820000000 1.0
C      1  0.5695350000000  0.5367060000000  0.5310080000000 1.0
C      1  0.5317590000000  0.5660870000000  0.5351740000000 1.0
C      1  0.4626500000000  0.4683480000000  0.5681700000000 1.0
C      1  0.4638690000000  0.5319540000000  0.4311550000000 1.0
C      1  0.5362300000000  0.4712130000000  0.4339580000000 1.0
C      1  0.4323370000000  0.4644240000000  0.5303650000000 1.0
C      1  0.4339000000000  0.5365350000000  0.4663500000000 1.0
C      1  0.5660910000000  0.4664440000000  0.4716330000000 1.0
C      1  0.4691810000000  0.4352120000000  0.5352330000000 1.0
C      1  0.4774760000000  0.5599690000000  0.4690670000000 1.0
C      1  0.5293770000000  0.4369690000000  0.4655140000000 1.0
C      1  0.5464360000000  0.4508100000000  0.5144570000000 1.0
C      1  0.5152550000000  0.5460110000000  0.4447220000000 1.0
C      1  0.4483600000000  0.5092030000000  0.5443100000000 1.0
C      1  0.4563280000000  0.5433160000000  0.5097950000000 1.0
C      1  0.4525590000000  0.4507970000000  0.4852230000000 1.0
C      1  0.5476140000000  0.5513070000000  0.4883810000000 1.0
C      1  0.4858030000000  0.4588610000000  0.4458400000000 1.0
C      1  0.4891780000000  0.5431540000000  0.5501310000000 1.0
C      1  0.5143960000000  0.4575880000000  0.5550300000000 1.0
C      1  0.5587200000000  0.4884980000000  0.5491170000000 1.0
C      1  0.5483950000000  0.5106210000000  0.4596700000000 1.0
C      1  0.4403840000000  0.4878340000000  0.4473280000000 1.0
C      1  0.5186270000000  0.5018410000000  0.5344210000000 1.0
C      1  0.5246170000000  0.5108750000000  0.5054520000000 1.0
C      1  0.5031130000000  0.5416440000000  0.5051490000000 1.0
C      1  0.4912630000000  0.4992100000000  0.5393000000000 1.0
C      1  0.4763040000000  0.5000010000000  0.4697370000000 1.0
C      1  0.5036560000000  0.5045860000000  0.4648840000000 1.0
C      1  0.4806510000000  0.4823610000000  0.5193470000000 1.0
C      1  0.4653980000000  0.4974580000000  0.4985120000000 1.0
C      1  0.5149850000000  0.4885930000000  0.4858690000000 1.0
C      1  0.4979400000000  0.4595320000000  0.5141230000000 1.0
C      1  0.5020420000000  0.5607830000000  0.4846200000000 1.0
C      1  0.5019340000000  0.4623490000000  0.4871910000000 1.0
C      1  0.4425770000000  0.4815490000000  0.5512840000000 1.0
C      1  0.5490250000000  0.4474920000000  0.4851270000000 1.0
C      1  0.4848030000000  0.5489650000000  0.4424720000000 1.0
C      1  0.5603060000000  0.5183900000000  0.5514840000000 1.0
C      1  0.5553970000000  0.4841010000000  0.4518870000000 1.0
C      1  0.4403830000000  0.5183210000000  0.4446440000000 1.0
C      1  0.4530750000000  0.5512630000000  0.4821880000000 1.0
C      1  0.4494020000000  0.4462360000000  0.5151280000000 1.0
C      1  0.5526350000000  0.5566080000000  0.5173190000000 1.0
C      1  0.5157520000000  0.4528930000000  0.4434480000000 1.0
C      1  0.5180890000000  0.5491240000000  0.5550310000000 1.0
C      1  0.4837810000000  0.4507490000000  0.5576730000000 1.0
C      1  0.5480610000000  0.5218860000000  0.4871390000000 1.0
C      1  0.4819860000000  0.5482220000000  0.5226390000000 1.0
C      1  0.5301960000000  0.4831690000000  0.5540740000000 1.0
C      1  0.4330800000000  0.4672830000000  0.4681840000000 1.0
C      1  0.4485950000000  0.5161040000000  0.5150610000000 1.0
C      1  0.5653310000000  0.4680060000000  0.5293930000000 1.0
C      1  0.5202240000000  0.4480120000000  0.5276070000000 1.0
C      1  0.5262590000000  0.5606050000000  0.4689960000000 1.0
C      1  0.4800780000000  0.4495470000000  0.4731740000000 1.0
C      1  0.4752130000000  0.5176830000000  0.5541850000000 1.0
C      1  0.4690930000000  0.4830330000000  0.4462670000000 1.0
C      1  0.5223720000000  0.5186190000000  0.4487820000000 1.0
END
