TITL C-2323477-5056-291 1.01907843868911e-05 125000 -369.017618791566 0 0 60 (C1) n - 1
REM
REM in /home/bkarasulu/CARBON/AIRSS/Generating-Clusters/LCBOP/Higher-Symm/Only-C60/SD-CG/FIRE-HFTN
REM
REM
REM
REM
REM
REM ./C.cell (50c204cfd26239f34c78669fe23a5462)
REM
REM compiler GCC version 9.2.1 20190827 (Red Hat 9.2.1-1)
REM options -cpp -mtune=generic -march=x86-64 -g -O0 -fpre-include=/usr/include/finclude/math-vector-fortran.h
REM seed 2064269320 -746192836 1047253075 687524309 -438872938 1067574455 -1324191669 767787751 1787184888 -1397959702 215190037 1157685747 137772869 890103244 -16076010 114115389 982044363 -1680726210 767040006 1322304121 1418540913 -127090934 884300195 -1562829856 276144586 -782382290 942839311 101127342 1872092673 -1810463811 -37380375 -1148909535 1589866557
REM
CELL 1.54180   50.00000   50.00000   50.00000   90.00000   90.00000   90.00000
LATT -1
SFAC C  
C      1  0.5169750000000  0.5121390000000  0.5087960000000 1.0
C      1  0.5165050000000  0.4853370000000  0.5068920000000 1.0
C      1  0.5325050000000  0.5099460000000  0.4298630000000 1.0
C      1  0.5332480000000  0.4807540000000  0.4254520000000 1.0
C      1  0.5278050000000  0.5135030000000  0.5732000000000 1.0
C      1  0.5281970000000  0.4835400000000  0.5724600000000 1.0
C      1  0.4825040000000  0.5455150000000  0.4649050000000 1.0
C      1  0.4827570000000  0.4501970000000  0.4628380000000 1.0
C      1  0.5113320000000  0.4540990000000  0.4679860000000 1.0
C      1  0.5112120000000  0.5406810000000  0.4699170000000 1.0
C      1  0.5542660000000  0.4423250000000  0.5298150000000 1.0
C      1  0.5524990000000  0.5570290000000  0.5323570000000 1.0
C      1  0.5198250000000  0.5383460000000  0.4975050000000 1.0
C      1  0.5204210000000  0.4596790000000  0.4949820000000 1.0
C      1  0.4533940000000  0.5225830000000  0.4282760000000 1.0
C      1  0.4549350000000  0.4746920000000  0.4257510000000 1.0
C      1  0.4387860000000  0.4596880000000  0.5338340000000 1.0
C      1  0.4381750000000  0.5363850000000  0.5348800000000 1.0
C      1  0.4773920000000  0.4345990000000  0.5471110000000 1.0
C      1  0.4760660000000  0.5619540000000  0.5492870000000 1.0
C      1  0.5667870000000  0.5400480000000  0.5492350000000 1.0
C      1  0.5678970000000  0.4592300000000  0.5472810000000 1.0
C      1  0.5348870000000  0.5567580000000  0.5122030000000 1.0
C      1  0.5367130000000  0.4420880000000  0.5096290000000 1.0
C      1  0.5005270000000  0.5219040000000  0.5720120000000 1.0
C      1  0.5011400000000  0.4745050000000  0.5709200000000 1.0
C      1  0.4918000000000  0.5474720000000  0.5653240000000 1.0
C      1  0.4930150000000  0.4489980000000  0.5633220000000 1.0
C      1  0.5283220000000  0.4621150000000  0.4464520000000 1.0
C      1  0.5211240000000  0.5181420000000  0.4544520000000 1.0
C      1  0.5913770000000  0.5267650000000  0.5411330000000 1.0
C      1  0.5920770000000  0.4735820000000  0.5398030000000 1.0
C      1  0.4684160000000  0.4720760000000  0.4505840000000 1.0
C      1  0.4676290000000  0.5235170000000  0.4527740000000 1.0
C      1  0.4586030000000  0.5690060000000  0.5043240000000 1.0
C      1  0.4588120000000  0.4273960000000  0.5026160000000 1.0
C      1  0.5109180000000  0.4788060000000  0.3797840000000 1.0
C      1  0.5111300000000  0.5254550000000  0.3868500000000 1.0
C      1  0.4426070000000  0.5215440000000  0.5585610000000 1.0
C      1  0.4430810000000  0.4739310000000  0.5579040000000 1.0
C      1  0.5549710000000  0.4745910000000  0.5682270000000 1.0
C      1  0.5543320000000  0.5233550000000  0.5694460000000 1.0
C      1  0.4567500000000  0.4382660000000  0.5282820000000 1.0
C      1  0.4559370000000  0.5581290000000  0.5299380000000 1.0
C      1  0.5284620000000  0.4716010000000  0.3990220000000 1.0
C      1  0.5288170000000  0.5267100000000  0.4073140000000 1.0
C      1  0.4687040000000  0.4314300000000  0.4781760000000 1.0
C      1  0.4688270000000  0.5646950000000  0.4800660000000 1.0
C      1  0.4234880000000  0.4729700000000  0.5143000000000 1.0
C      1  0.4230720000000  0.5234390000000  0.5149720000000 1.0
C      1  0.5045610000000  0.4977170000000  0.4649680000000 1.0
C      1  0.4684720000000  0.5015970000000  0.3868010000000 1.0
C      1  0.5715930000000  0.4991300000000  0.5715660000000 1.0
C      1  0.4559400000000  0.4977650000000  0.5655950000000 1.0
C      1  0.4545520000000  0.4995100000000  0.4111900000000 1.0
C      1  0.4178990000000  0.4982570000000  0.5072810000000 1.0
C      1  0.4770990000000  0.4973780000000  0.4605970000000 1.0
C      1  0.5935090000000  0.4999280000000  0.5512150000000 1.0
C      1  0.4836190000000  0.4979840000000  0.5713570000000 1.0
C      1  0.4956690000000  0.5027360000000  0.3795730000000 1.0
END
