TITL C-2323491-8878-326 0.275502126281543 125000 -357.454087478016 0 0 60 (C1) n - 1
REM
REM in /home/bkarasulu/CARBON/AIRSS/Generating-Clusters/LCBOP/Higher-Symm/Only-C60/SD-CG/FIRE-HFTN
REM
REM
REM
REM
REM
REM ./C.cell (50c204cfd26239f34c78669fe23a5462)
REM
REM compiler GCC version 9.2.1 20190827 (Red Hat 9.2.1-1)
REM options -cpp -mtune=generic -march=x86-64 -g -O0 -fpre-include=/usr/include/finclude/math-vector-fortran.h
REM seed -1254435272 -469242494 459750958 -982852153 452810637 360431798 -457250460 1510332430 1575196008 -1499315543 -1059600441 1917816830 -142077673 1869316038 664216835 -1164012483 -1401036776 -1772706617 1509168204 -889526587 1664146486 -1521032737 -477186103 -1729167680 897566885 -529241659 1506370113 778164999 -1653792467 154668392 222309957 1752514357 1858802728
REM
CELL 1.54180   50.00000   50.00000   50.00000   90.00000   90.00000   90.00000
LATT -1
SFAC C  
C      1  0.4549660000000  0.4950810000000  0.5558370000000 1.0
C      1  0.4972260000000  0.4583010000000  0.5368830000000 1.0
C      1  0.5382390000000  0.5264340000000  0.4835020000000 1.0
C      1  0.3719810000000  0.4353050000000  0.4044490000000 1.0
C      1  0.5260920000000  0.5389800000000  0.5326330000000 1.0
C      1  0.4820780000000  0.4512240000000  0.4740600000000 1.0
C      1  0.5345340000000  0.5039330000000  0.4685500000000 1.0
C      1  0.4519970000000  0.4920630000000  0.5264260000000 1.0
C      1  0.4927840000000  0.5538640000000  0.4155980000000 1.0
C      1  0.5055960000000  0.4511870000000  0.5630130000000 1.0
C      1  0.4701500000000  0.5477820000000  0.4284800000000 1.0
C      1  0.5829350000000  0.5208710000000  0.4438450000000 1.0
C      1  0.5812000000000  0.5334200000000  0.5418990000000 1.0
C      1  0.5302260000000  0.5074580000000  0.5740630000000 1.0
C      1  0.3952240000000  0.4267770000000  0.4161460000000 1.0
C      1  0.4723180000000  0.4481840000000  0.5277080000000 1.0
C      1  0.4624170000000  0.5135970000000  0.5101910000000 1.0
C      1  0.4087920000000  0.4436490000000  0.4338880000000 1.0
C      1  0.4803580000000  0.5062250000000  0.4891350000000 1.0
C      1  0.4341890000000  0.4915620000000  0.5731920000000 1.0
C      1  0.4376720000000  0.5310880000000  0.4661380000000 1.0
C      1  0.5956180000000  0.4919120000000  0.4880220000000 1.0
C      1  0.4546660000000  0.6113410000000  0.5244920000000 1.0
C      1  0.5444270000000  0.5448590000000  0.4171270000000 1.0
C      1  0.5643760000000  0.5405310000000  0.5621830000000 1.0
C      1  0.4712510000000  0.5402250000000  0.5189860000000 1.0
C      1  0.5192060000000  0.5520690000000  0.4125290000000 1.0
C      1  0.4361430000000  0.4757680000000  0.4683920000000 1.0
C      1  0.4366680000000  0.5506310000000  0.4870630000000 1.0
C      1  0.4811270000000  0.5174960000000  0.4636070000000 1.0
C      1  0.5369440000000  0.5324520000000  0.5597980000000 1.0
C      1  0.4541550000000  0.5601180000000  0.5079670000000 1.0
C      1  0.5574950000000  0.4748130000000  0.5485960000000 1.0
C      1  0.4568000000000  0.4630610000000  0.4843780000000 1.0
C      1  0.4961790000000  0.5072480000000  0.5402700000000 1.0
C      1  0.5519090000000  0.4879710000000  0.5730200000000 1.0
C      1  0.5035060000000  0.4843460000000  0.5250980000000 1.0
C      1  0.5017290000000  0.4903270000000  0.4976890000000 1.0
C      1  0.4292110000000  0.5037270000000  0.4693110000000 1.0
C      1  0.5512950000000  0.4514070000000  0.5053390000000 1.0
C      1  0.4616350000000  0.5329150000000  0.4503830000000 1.0
C      1  0.5322910000000  0.4410010000000  0.4886750000000 1.0
C      1  0.4217710000000  0.4594860000000  0.4506710000000 1.0
C      1  0.5057410000000  0.4669140000000  0.5852550000000 1.0
C      1  0.5663640000000  0.5341060000000  0.4277250000000 1.0
C      1  0.5040720000000  0.4953000000000  0.5819100000000 1.0
C      1  0.4053430000000  0.4019280000000  0.4106800000000 1.0
C      1  0.6169960000000  0.4750650000000  0.4909250000000 1.0
C      1  0.5184300000000  0.4824110000000  0.4763960000000 1.0
C      1  0.5627540000000  0.4725000000000  0.5208700000000 1.0
C      1  0.4819070000000  0.5022010000000  0.5642780000000 1.0
C      1  0.5923080000000  0.5065430000000  0.4642360000000 1.0
C      1  0.5768670000000  0.4949300000000  0.5092180000000 1.0
C      1  0.5444870000000  0.5321110000000  0.5105570000000 1.0
C      1  0.5113360000000  0.4543530000000  0.4741560000000 1.0
C      1  0.4542060000000  0.5865630000000  0.5164320000000 1.0
C      1  0.4549750000000  0.4657110000000  0.5134550000000 1.0
C      1  0.5668280000000  0.4828770000000  0.5954220000000 1.0
C      1  0.5702530000000  0.5212250000000  0.5187360000000 1.0
C      1  0.4977570000000  0.5345710000000  0.5305180000000 1.0
END
