TITL C-2323484-8600-9 3.69894648632373e-05 125000 -360.276897881444 0 0 60 (C1) n - 1
REM
REM in /home/bkarasulu/CARBON/AIRSS/Generating-Clusters/LCBOP/Higher-Symm/Only-C60/SD-CG/FIRE-HFTN
REM
REM
REM
REM
REM
REM ./C.cell (50c204cfd26239f34c78669fe23a5462)
REM
REM compiler GCC version 9.2.1 20190827 (Red Hat 9.2.1-1)
REM options -cpp -mtune=generic -march=x86-64 -g -O0 -fpre-include=/usr/include/finclude/math-vector-fortran.h
REM seed 1341269222 -971903128 -1523473021 -1138741180 1600986585 -1402907847 2130937211 -2027085294 2043282633 -1523346483 1669399732 -1628995369 -44262754 1680237483 -1469416239 654421065 431055371 -688181110 -1857117396 1945506690 420569176 -1322393379 -1111335051 1838742238 642956815 802684217 -1195749958 -794917924 936370815 -1324316761 854290761 -1594667376 -837227315
REM
CELL 1.54180   50.00000   50.00000   50.00000   90.00000   90.00000   90.00000
LATT -1
SFAC C  
C      1  0.4900480000000  0.5340730000000  0.4713460000000 1.0
C      1  0.4863230000000  0.5082920000000  0.5384170000000 1.0
C      1  0.4833120000000  0.4526760000000  0.4838560000000 1.0
C      1  0.4894150000000  0.5659680000000  0.5078190000000 1.0
C      1  0.4899670000000  0.4613080000000  0.5494200000000 1.0
C      1  0.4848690000000  0.4727560000000  0.4399010000000 1.0
C      1  0.5175690000000  0.5363440000000  0.4835060000000 1.0
C      1  0.5130570000000  0.4978790000000  0.5310910000000 1.0
C      1  0.5107410000000  0.4593280000000  0.4766510000000 1.0
C      1  0.4311920000000  0.5402290000000  0.4683300000000 1.0
C      1  0.4287000000000  0.5094840000000  0.5479570000000 1.0
C      1  0.4264330000000  0.4544620000000  0.4866750000000 1.0
C      1  0.4687490000000  0.4592290000000  0.4594300000000 1.0
C      1  0.4753970000000  0.5552070000000  0.4854780000000 1.0
C      1  0.4737380000000  0.4848680000000  0.5507340000000 1.0
C      1  0.5042390000000  0.5098070000000  0.4151780000000 1.0
C      1  0.5026890000000  0.5682060000000  0.5543660000000 1.0
C      1  0.5075690000000  0.4203690000000  0.5304350000000 1.0
C      1  0.4736860000000  0.5183830000000  0.4536440000000 1.0
C      1  0.4714160000000  0.5325410000000  0.5379510000000 1.0
C      1  0.4701100000000  0.4455430000000  0.5079940000000 1.0
C      1  0.5296790000000  0.4975910000000  0.4187050000000 1.0
C      1  0.5295710000000  0.5703730000000  0.5451720000000 1.0
C      1  0.5337980000000  0.4311230000000  0.5345810000000 1.0
C      1  0.5770890000000  0.4884450000000  0.4632220000000 1.0
C      1  0.5827860000000  0.5397640000000  0.5178990000000 1.0
C      1  0.5836500000000  0.4790050000000  0.5253660000000 1.0
C      1  0.4845480000000  0.5007660000000  0.4340210000000 1.0
C      1  0.4845510000000  0.5577170000000  0.5347420000000 1.0
C      1  0.4861320000000  0.4397210000000  0.5310990000000 1.0
C      1  0.6018340000000  0.4964550000000  0.4615690000000 1.0
C      1  0.6083780000000  0.5425370000000  0.5219790000000 1.0
C      1  0.6095480000000  0.4765480000000  0.5269710000000 1.0
C      1  0.5323800000000  0.4764230000000  0.4850000000000 1.0
C      1  0.5395200000000  0.5221640000000  0.4975310000000 1.0
C      1  0.5354560000000  0.4947040000000  0.5089930000000 1.0
C      1  0.4288670000000  0.5472440000000  0.5181830000000 1.0
C      1  0.4300510000000  0.4605730000000  0.5336900000000 1.0
C      1  0.4300100000000  0.4945010000000  0.4553600000000 1.0
C      1  0.4213710000000  0.4722480000000  0.4673450000000 1.0
C      1  0.4238100000000  0.5500410000000  0.4920960000000 1.0
C      1  0.4234380000000  0.4833220000000  0.5461500000000 1.0
C      1  0.4947080000000  0.5756020000000  0.5799000000000 1.0
C      1  0.5030280000000  0.3932940000000  0.5261420000000 1.0
C      1  0.4988750000000  0.5285590000000  0.3954420000000 1.0
C      1  0.5171350000000  0.5623440000000  0.4997630000000 1.0
C      1  0.5165470000000  0.4728550000000  0.5474650000000 1.0
C      1  0.5116710000000  0.4630380000000  0.4465140000000 1.0
C      1  0.4417710000000  0.4506520000000  0.5100700000000 1.0
C      1  0.4449020000000  0.5183480000000  0.4571010000000 1.0
C      1  0.4426680000000  0.5311830000000  0.5366920000000 1.0
C      1  0.5397680000000  0.4581730000000  0.5399850000000 1.0
C      1  0.5348760000000  0.4781450000000  0.4383590000000 1.0
C      1  0.5383000000000  0.5629180000000  0.5194450000000 1.0
C      1  0.4981680000000  0.3680950000000  0.5216100000000 1.0
C      1  0.4932640000000  0.5465110000000  0.3774020000000 1.0
C      1  0.4866010000000  0.5819800000000  0.6038320000000 1.0
C      1  0.5556650000000  0.5409540000000  0.5128050000000 1.0
C      1  0.5561260000000  0.4773010000000  0.5252670000000 1.0
C      1  0.5502440000000  0.4818290000000  0.4623510000000 1.0
END
