TITL C-2323479-8056-615 0.000666310601842917 125000 -377.135970408553 0 0 60 (C3) n - 1
REM
REM in /home/bkarasulu/CARBON/AIRSS/Generating-Clusters/LCBOP/Higher-Symm/Only-C60/SD-CG/FIRE-HFTN
REM
REM
REM
REM
REM
REM ./C.cell (50c204cfd26239f34c78669fe23a5462)
REM
REM compiler GCC version 9.2.1 20190827 (Red Hat 9.2.1-1)
REM options -cpp -mtune=generic -march=x86-64 -g -O0 -fpre-include=/usr/include/finclude/math-vector-fortran.h
REM seed 678574808 1435311300 -131198741 478307705 1073032246 294315374 47505809 -103523701 -1245137624 -1320964096 -464366036 -546693345 1467278502 -1686404172 -1818926764 -1782392495 1635922316 1978928028 -1560400743 -995569649 1471797377 1774612341 -2145678668 2097574461 1904129030 1265868887 1302546854 1986416903 -1971357833 1343004995 1090177766 122607443 -200431812
REM
CELL 1.54180   50.00000   50.00000   50.00000   90.00000   90.00000   90.00000
LATT -1
SFAC C  
C      1  0.5523060000000  0.5208210000000  0.4630340000000 1.0
C      1  0.4918780000000  0.4442900000000  0.4630360000000 1.0
C      1  0.4558150000000  0.5348870000000  0.4630350000000 1.0
C      1  0.5587550000000  0.4905600000000  0.5448870000000 1.0
C      1  0.4787990000000  0.5556040000000  0.5448870000000 1.0
C      1  0.4624470000000  0.4538380000000  0.5448880000000 1.0
C      1  0.3939420000000  0.5624250000000  0.5395840000000 1.0
C      1  0.6070910000000  0.5606380000000  0.5395820000000 1.0
C      1  0.4989690000000  0.3769390000000  0.5395860000000 1.0
C      1  0.4055920000000  0.4586940000000  0.4493090000000 1.0
C      1  0.5829740000000  0.4388930000000  0.4493080000000 1.0
C      1  0.5114320000000  0.6024110000000  0.4493060000000 1.0
C      1  0.5610290000000  0.4568180000000  0.5101730000000 1.0
C      1  0.4320890000000  0.4687390000000  0.5101740000000 1.0
C      1  0.5068830000000  0.5744430000000  0.5101720000000 1.0
C      1  0.5484700000000  0.5589810000000  0.4925760000000 1.0
C      1  0.4246850000000  0.5124860000000  0.4925780000000 1.0
C      1  0.5268440000000  0.4285320000000  0.4925780000000 1.0
C      1  0.4739130000000  0.5105430000000  0.5015280000000 1.0
C      1  0.5221740000000  0.5173210000000  0.5015280000000 1.0
C      1  0.5039130000000  0.4721370000000  0.5015290000000 1.0
C      1  0.4780200000000  0.4827130000000  0.5079270000000 1.0
C      1  0.5259620000000  0.4896080000000  0.5079270000000 1.0
C      1  0.4960190000000  0.5276790000000  0.5079260000000 1.0
C      1  0.4716030000000  0.4084830000000  0.5678150000000 1.0
C      1  0.4349430000000  0.5703530000000  0.5678130000000 1.0
C      1  0.5934560000000  0.5211670000000  0.5678120000000 1.0
C      1  0.4720040000000  0.5747740000000  0.4337870000000 1.0
C      1  0.4492400000000  0.4383670000000  0.4337890000000 1.0
C      1  0.5787540000000  0.4868560000000  0.4337870000000 1.0
C      1  0.4516060000000  0.5196450000000  0.4861500000000 1.0
C      1  0.5412100000000  0.5320880000000  0.4861490000000 1.0
C      1  0.5071840000000  0.4482670000000  0.4861500000000 1.0
C      1  0.4578500000000  0.4677890000000  0.5212110000000 1.0
C      1  0.5489710000000  0.4796030000000  0.5212100000000 1.0
C      1  0.4931790000000  0.5526090000000  0.5212090000000 1.0
C      1  0.5198540000000  0.4027010000000  0.5004650000000 1.0
C      1  0.4058100000000  0.5314550000000  0.5004640000000 1.0
C      1  0.5743360000000  0.5658440000000  0.5004630000000 1.0
C      1  0.5279860000000  0.5786700000000  0.4922370000000 1.0
C      1  0.4178770000000  0.4849020000000  0.4922390000000 1.0
C      1  0.5541370000000  0.4364280000000  0.4922390000000 1.0
C      1  0.4734570000000  0.4389340000000  0.4447210000000 1.0
C      1  0.4603870000000  0.5535190000000  0.4447200000000 1.0
C      1  0.5661550000000  0.5075450000000  0.4447200000000 1.0
C      1  0.4599630000000  0.5636660000000  0.5617570000000 1.0
C      1  0.4648830000000  0.4334940000000  0.5617590000000 1.0
C      1  0.5751550000000  0.5028420000000  0.5617570000000 1.0
C      1  0.4839980000000  0.3864110000000  0.5595030000000 1.0
C      1  0.4096300000000  0.5706550000000  0.5595000000000 1.0
C      1  0.6063740000000  0.5429370000000  0.5594990000000 1.0
C      1  0.4908140000000  0.5935900000000  0.4348830000000 1.0
C      1  0.4235400000000  0.4452490000000  0.4348860000000 1.0
C      1  0.5856440000000  0.4611580000000  0.4348850000000 1.0
C      1  0.3935520000000  0.5480690000000  0.5171720000000 1.0
C      1  0.5948530000000  0.5681530000000  0.5171700000000 1.0
C      1  0.5115960000000  0.3837790000000  0.5171730000000 1.0
C      1  0.4032930000000  0.4736120000000  0.4712840000000 1.0
C      1  0.5712060000000  0.4294430000000  0.4712830000000 1.0
C      1  0.5255010000000  0.5969440000000  0.4712810000000 1.0
END
