TITL C-2323490-8774-418 0.0852561158535914 125000 -351.274047881864 0 0 60 (C1) n - 1
REM
REM in /home/bkarasulu/CARBON/AIRSS/Generating-Clusters/LCBOP/Higher-Symm/Only-C60/SD-CG/FIRE-HFTN
REM
REM
REM
REM
REM
REM ./C.cell (50c204cfd26239f34c78669fe23a5462)
REM
REM compiler GCC version 9.2.1 20190827 (Red Hat 9.2.1-1)
REM options -cpp -mtune=generic -march=x86-64 -g -O0 -fpre-include=/usr/include/finclude/math-vector-fortran.h
REM seed -1442542370 2120774419 2005032666 2078159641 1706086004 492628030 1476514283 -557079021 1348322426 1375608597 -205221059 -1274672528 -2054073846 -2080804131 1239820754 -1732548430 -2023064012 -1472453045 -558022609 1879695009 194529284 1328100016 1210528633 -373413690 -671554167 -442048356 -1129612845 877768330 689539151 -31460678 637197082 -1964399667 -702896496
REM
CELL 1.54180   50.00000   50.00000   50.00000   90.00000   90.00000   90.00000
LATT -1
SFAC C  
C      1  0.4349900000000  0.5408010000000  0.4974170000000 1.0
C      1  0.5600680000000  0.4726790000000  0.5053940000000 1.0
C      1  0.5521290000000  0.5750240000000  0.4622880000000 1.0
C      1  0.4476410000000  0.4375020000000  0.4633980000000 1.0
C      1  0.4702210000000  0.5302100000000  0.4675850000000 1.0
C      1  0.5276160000000  0.4824790000000  0.4722140000000 1.0
C      1  0.5426480000000  0.4832820000000  0.5615430000000 1.0
C      1  0.4667900000000  0.4861670000000  0.5363750000000 1.0
C      1  0.4795920000000  0.5139440000000  0.5383180000000 1.0
C      1  0.5210900000000  0.4924500000000  0.5457760000000 1.0
C      1  0.5251510000000  0.4604250000000  0.4551440000000 1.0
C      1  0.4737650000000  0.5523020000000  0.4508020000000 1.0
C      1  0.5137800000000  0.4804130000000  0.5206120000000 1.0
C      1  0.4810540000000  0.5314450000000  0.5158900000000 1.0
C      1  0.5765490000000  0.4949010000000  0.4996910000000 1.0
C      1  0.4181380000000  0.5201490000000  0.4877940000000 1.0
C      1  0.4956050000000  0.4307380000000  0.4964640000000 1.0
C      1  0.5002730000000  0.5867410000000  0.4899590000000 1.0
C      1  0.4860770000000  0.4728810000000  0.5166780000000 1.0
C      1  0.5053550000000  0.5450970000000  0.5115040000000 1.0
C      1  0.4595420000000  0.4592860000000  0.4763960000000 1.0
C      1  0.5380120000000  0.5555830000000  0.4765850000000 1.0
C      1  0.4277950000000  0.3972040000000  0.4361090000000 1.0
C      1  0.5772740000000  0.6119180000000  0.4345540000000 1.0
C      1  0.5325380000000  0.4786820000000  0.4997370000000 1.0
C      1  0.4625110000000  0.5334350000000  0.4947900000000 1.0
C      1  0.5247570000000  0.4411900000000  0.4375570000000 1.0
C      1  0.4755190000000  0.5703160000000  0.4320400000000 1.0
C      1  0.5849270000000  0.5160620000000  0.5685950000000 1.0
C      1  0.4128940000000  0.4814280000000  0.5303510000000 1.0
C      1  0.4513740000000  0.4855740000000  0.4684040000000 1.0
C      1  0.5458890000000  0.5281180000000  0.4739960000000 1.0
C      1  0.5648490000000  0.5935960000000  0.4483200000000 1.0
C      1  0.4375240000000  0.4171810000000  0.4497410000000 1.0
C      1  0.4262660000000  0.4969020000000  0.4761160000000 1.0
C      1  0.5689580000000  0.5178400000000  0.4872660000000 1.0
C      1  0.5393780000000  0.4335650000000  0.5822100000000 1.0
C      1  0.4700470000000  0.4592210000000  0.5854180000000 1.0
C      1  0.4749560000000  0.5952070000000  0.4934210000000 1.0
C      1  0.5199560000000  0.4206930000000  0.5018120000000 1.0
C      1  0.4792200000000  0.4539430000000  0.4966230000000 1.0
C      1  0.5161070000000  0.5634650000000  0.4931670000000 1.0
C      1  0.5649870000000  0.4995650000000  0.5655370000000 1.0
C      1  0.4384650000000  0.4862980000000  0.5285280000000 1.0
C      1  0.5640430000000  0.4451250000000  0.5096030000000 1.0
C      1  0.4316110000000  0.5685960000000  0.5004310000000 1.0
C      1  0.5414610000000  0.4579410000000  0.5732340000000 1.0
C      1  0.4687050000000  0.4720410000000  0.5627890000000 1.0
C      1  0.5458950000000  0.4251720000000  0.5073570000000 1.0
C      1  0.4492250000000  0.5889430000000  0.4980420000000 1.0
C      1  0.5294200000000  0.5086690000000  0.4608470000000 1.0
C      1  0.4693810000000  0.5040770000000  0.4561250000000 1.0
C      1  0.5032600000000  0.5129010000000  0.5547230000000 1.0
C      1  0.5076530000000  0.5295790000000  0.5764210000000 1.0
C      1  0.4870940000000  0.5005780000000  0.4342190000000 1.0
C      1  0.4727230000000  0.4734570000000  0.3900590000000 1.0
C      1  0.4798870000000  0.4874450000000  0.4108450000000 1.0
C      1  0.5128420000000  0.5118250000000  0.4383380000000 1.0
C      1  0.5139650000000  0.5449020000000  0.5970880000000 1.0
C      1  0.5207930000000  0.5597440000000  0.6174020000000 1.0
END
