TITL C-2323487-9546-564 4.34653521944851 125000 -354.55857019265 0 0 60 (C1) n - 1
REM
REM in /home/bkarasulu/CARBON/AIRSS/Generating-Clusters/LCBOP/Higher-Symm/Only-C60/SD-CG/FIRE-HFTN
REM
REM
REM
REM
REM
REM ./C.cell (50c204cfd26239f34c78669fe23a5462)
REM
REM compiler GCC version 9.2.1 20190827 (Red Hat 9.2.1-1)
REM options -cpp -mtune=generic -march=x86-64 -g -O0 -fpre-include=/usr/include/finclude/math-vector-fortran.h
REM seed -144197154 -582141674 213298377 1774726390 1477026839 -720315572 -36870296 409449529 511961536 1091143911 28881244 -1148560879 -1669684047 1988369799 1740846220 1102249770 -1121098058 -1177049633 -1996430389 1251761232 -1852105298 2119420062 -1653644351 -851019907 223314470 -1131745679 -1747091106 2138872322 -1257390283 1030829094 -640983848 142315272 -1198892478
REM
CELL 1.54180   50.00000   50.00000   50.00000   90.00000   90.00000   90.00000
LATT -1
SFAC C  
C      1  0.5299340000000  0.4613510000000  0.5676720000000 1.0
C      1  0.5654570000000  0.4451600000000  0.5405690000000 1.0
C      1  0.6344490000000  0.5157450000000  0.6037500000000 1.0
C      1  0.5010040000000  0.5666810000000  0.5294700000000 1.0
C      1  0.4206520000000  0.4793740000000  0.3643310000000 1.0
C      1  0.5178940000000  0.5170590000000  0.6131150000000 1.0
C      1  0.3947940000000  0.4298280000000  0.3523340000000 1.0
C      1  0.5571720000000  0.4550260000000  0.5654720000000 1.0
C      1  0.5833580000000  0.5482840000000  0.5607620000000 1.0
C      1  0.5385220000000  0.4319840000000  0.4986670000000 1.0
C      1  0.4503200000000  0.4487100000000  0.4269420000000 1.0
C      1  0.6056970000000  0.4558410000000  0.6234090000000 1.0
C      1  0.5058070000000  0.6241560000000  0.5249980000000 1.0
C      1  0.5445090000000  0.5266060000000  0.6207310000000 1.0
C      1  0.4964840000000  0.4417620000000  0.4755870000000 1.0
C      1  0.4824930000000  0.5306750000000  0.5024710000000 1.0
C      1  0.5888630000000  0.4991710000000  0.6096540000000 1.0
C      1  0.4399070000000  0.4559500000000  0.4521700000000 1.0
C      1  0.4767750000000  0.4583940000000  0.4882500000000 1.0
C      1  0.3674300000000  0.4643370000000  0.2911080000000 1.0
C      1  0.4014780000000  0.4989040000000  0.3240270000000 1.0
C      1  0.4830640000000  0.4767910000000  0.5088580000000 1.0
C      1  0.4818950000000  0.6040580000000  0.4861170000000 1.0
C      1  0.4816330000000  0.5042220000000  0.5034640000000 1.0
C      1  0.5989200000000  0.5320900000000  0.5749910000000 1.0
C      1  0.4929780000000  0.6228870000000  0.5016160000000 1.0
C      1  0.5050680000000  0.4950850000000  0.6224880000000 1.0
C      1  0.4873580000000  0.5577730000000  0.5065880000000 1.0
C      1  0.5079850000000  0.5361900000000  0.5937030000000 1.0
C      1  0.4777640000000  0.4420930000000  0.4274850000000 1.0
C      1  0.5308390000000  0.6364660000000  0.5921130000000 1.0
C      1  0.5130710000000  0.4240380000000  0.4902050000000 1.0
C      1  0.5901500000000  0.4709360000000  0.6067580000000 1.0
C      1  0.4956890000000  0.4402370000000  0.4474010000000 1.0
C      1  0.5672220000000  0.5108170000000  0.6231380000000 1.0
C      1  0.5749350000000  0.4591350000000  0.5864740000000 1.0
C      1  0.6593590000000  0.5149600000000  0.6113690000000 1.0
C      1  0.5609990000000  0.5619120000000  0.5558820000000 1.0
C      1  0.5461940000000  0.5535370000000  0.6102100000000 1.0
C      1  0.5065920000000  0.4650100000000  0.5554710000000 1.0
C      1  0.6076340000000  0.5157040000000  0.5959980000000 1.0
C      1  0.5231710000000  0.6244920000000  0.5702730000000 1.0
C      1  0.3916530000000  0.4518180000000  0.3352420000000 1.0
C      1  0.5268250000000  0.5577960000000  0.5888820000000 1.0
C      1  0.3732640000000  0.4901600000000  0.2856400000000 1.0
C      1  0.4209980000000  0.4251560000000  0.3951250000000 1.0
C      1  0.4047710000000  0.4768930000000  0.3413630000000 1.0
C      1  0.5348190000000  0.5681310000000  0.5640080000000 1.0
C      1  0.4052420000000  0.4190470000000  0.3743730000000 1.0
C      1  0.4794480000000  0.5774390000000  0.4881130000000 1.0
C      1  0.5168400000000  0.5818270000000  0.5469840000000 1.0
C      1  0.3890360000000  0.5056910000000  0.3011570000000 1.0
C      1  0.4348730000000  0.4481450000000  0.4035700000000 1.0
C      1  0.5039440000000  0.3989140000000  0.4962220000000 1.0
C      1  0.4908830000000  0.4683600000000  0.5343300000000 1.0
C      1  0.3757450000000  0.4496460000000  0.3120600000000 1.0
C      1  0.5575680000000  0.4378100000000  0.5162410000000 1.0
C      1  0.4320270000000  0.4704870000000  0.3867340000000 1.0
C      1  0.5154100000000  0.6103620000000  0.5474740000000 1.0
C      1  0.4511340000000  0.4588860000000  0.4763910000000 1.0
END
