TITL C-2323485-8600-236 0.0569595016434388 125000 -345.072047663355 0 0 60 (D3) n - 1
REM
REM in /home/bkarasulu/CARBON/AIRSS/Generating-Clusters/LCBOP/Higher-Symm/Only-C60/SD-CG/FIRE-HFTN
REM
REM
REM
REM
REM
REM ./C.cell (50c204cfd26239f34c78669fe23a5462)
REM
REM compiler GCC version 9.2.1 20190827 (Red Hat 9.2.1-1)
REM options -cpp -mtune=generic -march=x86-64 -g -O0 -fpre-include=/usr/include/finclude/math-vector-fortran.h
REM seed -869256532 -1756644266 737141672 1176683108 -1675818983 1001242204 699279674 -1505923127 1154371417 -72170587 -915954779 273516379 -115056550 -636904123 75178136 1186705955 2086471966 -50415850 -1463574031 -1433212224 1352780843 -1969655138 1290647163 -582241040 -1161363703 1472337760 -1231635246 618090341 -849377115 -1992412352 -1202480457 -706442015 805931217
REM
CELL 1.54180   50.00000   50.00000   50.00000   90.00000   90.00000   90.00000
LATT -1
SFAC C  
C      1  0.5737300000000  0.5485320000000  0.5035870000000 1.0
C      1  0.5737300000000  0.4788420000000  0.4561760000000 1.0
C      1  0.5737310000000  0.4726280000000  0.5402350000000 1.0
C      1  0.4262700000000  0.5485310000000  0.4964130000000 1.0
C      1  0.4262700000000  0.4788410000000  0.5438240000000 1.0
C      1  0.4262700000000  0.4726270000000  0.4597650000000 1.0
C      1  0.5094660000000  0.5267970000000  0.4305660000000 1.0
C      1  0.5094670000000  0.4264700000000  0.5115100000000 1.0
C      1  0.5094670000000  0.5467330000000  0.5579230000000 1.0
C      1  0.4905340000000  0.5267960000000  0.5694340000000 1.0
C      1  0.4905340000000  0.4264700000000  0.4884890000000 1.0
C      1  0.4905330000000  0.5467330000000  0.4420770000000 1.0
C      1  0.5360580000000  0.5415380000000  0.5672730000000 1.0
C      1  0.5360570000000  0.5374910000000  0.4303910000000 1.0
C      1  0.5360580000000  0.4209710000000  0.5023360000000 1.0
C      1  0.4639420000000  0.5415380000000  0.4327280000000 1.0
C      1  0.4639430000000  0.5374900000000  0.5696100000000 1.0
C      1  0.4639430000000  0.4209710000000  0.4976630000000 1.0
C      1  0.4818130000000  0.4807850000000  0.4313190000000 1.0
C      1  0.4818140000000  0.4501280000000  0.5509820000000 1.0
C      1  0.4818140000000  0.5690870000000  0.5177000000000 1.0
C      1  0.5181870000000  0.4807840000000  0.5686810000000 1.0
C      1  0.5181860000000  0.4501290000000  0.4490180000000 1.0
C      1  0.5181860000000  0.5690870000000  0.4823010000000 1.0
C      1  0.5063960000000  0.4420460000000  0.5379120000000 1.0
C      1  0.5063950000000  0.5618100000000  0.5312330000000 1.0
C      1  0.5063940000000  0.4961440000000  0.4308550000000 1.0
C      1  0.4936050000000  0.4420470000000  0.4620880000000 1.0
C      1  0.4936040000000  0.5618100000000  0.4687670000000 1.0
C      1  0.4936060000000  0.4961430000000  0.5691450000000 1.0
C      1  0.5480340000000  0.4877920000000  0.4564460000000 1.0
C      1  0.5480350000000  0.4683860000000  0.5323490000000 1.0
C      1  0.5480350000000  0.5438230000000  0.5112040000000 1.0
C      1  0.4519660000000  0.4877910000000  0.5435540000000 1.0
C      1  0.4519650000000  0.4683860000000  0.4676510000000 1.0
C      1  0.4519650000000  0.5438220000000  0.4887960000000 1.0
C      1  0.4603800000000  0.5207630000000  0.4740940000000 1.0
C      1  0.4603800000000  0.4671830000000  0.4949720000000 1.0
C      1  0.4603800000000  0.5120540000000  0.5309350000000 1.0
C      1  0.5396200000000  0.5207630000000  0.5259060000000 1.0
C      1  0.5396200000000  0.4671830000000  0.5050280000000 1.0
C      1  0.5396200000000  0.5120540000000  0.4690650000000 1.0
C      1  0.4731940000000  0.4766030000000  0.5586640000000 1.0
C      1  0.4731930000000  0.5625030000000  0.4909310000000 1.0
C      1  0.4731930000000  0.4608950000000  0.4504060000000 1.0
C      1  0.5268070000000  0.4766030000000  0.4413360000000 1.0
C      1  0.5268070000000  0.5625030000000  0.5090690000000 1.0
C      1  0.5268080000000  0.4608940000000  0.5495940000000 1.0
C      1  0.5133370000000  0.5118070000000  0.4796380000000 1.0
C      1  0.5133370000000  0.4764630000000  0.4999550000000 1.0
C      1  0.5133370000000  0.5117300000000  0.5204060000000 1.0
C      1  0.4866630000000  0.5118070000000  0.5203620000000 1.0
C      1  0.4866630000000  0.4764630000000  0.5000450000000 1.0
C      1  0.4866630000000  0.5117300000000  0.4795940000000 1.0
C      1  0.4508530000000  0.5226000000000  0.4472950000000 1.0
C      1  0.4508540000000  0.4430560000000  0.5067810000000 1.0
C      1  0.4508540000000  0.5343440000000  0.5459250000000 1.0
C      1  0.5491470000000  0.5226000000000  0.5527050000000 1.0
C      1  0.5491470000000  0.4430560000000  0.4932190000000 1.0
C      1  0.5491460000000  0.5343440000000  0.4540750000000 1.0
END
