TITL C-2323489-8765-120 -1558.0894048908 125000 -368.785050061422 0 0 60 (C2h) n - 1
REM
REM in /home/bkarasulu/CARBON/AIRSS/Generating-Clusters/LCBOP/Higher-Symm/Only-C60/SD-CG/FIRE-HFTN
REM
REM
REM
REM
REM
REM ./C.cell (50c204cfd26239f34c78669fe23a5462)
REM
REM compiler GCC version 9.2.1 20190827 (Red Hat 9.2.1-1)
REM options -cpp -mtune=generic -march=x86-64 -g -O0 -fpre-include=/usr/include/finclude/math-vector-fortran.h
REM seed 905588504 -353906365 -752297016 1023495709 1545886816 -674803270 1311154629 -2075073003 1470523467 -992522009 1755700172 -1060006826 151116661 624014098 -23311880 1303228506 -583220734 270395639 782534417 1421283738 1377815023 1014090090 -2086565530 793131880 -1649410668 1897567273 1500850082 -1856202768 418208617 -1833955776 -1566457257 1995764791 -1210228496
REM
CELL 1.54180   50.00000   50.00000   50.00000   90.00000   90.00000   90.00000
LATT -1
SFAC C  
C      1  0.5604700000000  0.4653200000000  0.4947520000000 1.0
C      1  0.5604690000000  0.5346810000000  0.5052480000000 1.0
C      1  0.4395310000000  0.4653190000000  0.4947520000000 1.0
C      1  0.4395300000000  0.5346800000000  0.5052490000000 1.0
C      1  0.5135890000000  0.4914320000000  0.5898910000000 1.0
C      1  0.5135890000000  0.5085680000000  0.4101090000000 1.0
C      1  0.4864110000000  0.4914320000000  0.5898910000000 1.0
C      1  0.4864110000000  0.5085680000000  0.4101090000000 1.0
C      1  0.5224660000000  0.5073830000000  0.4880760000000 1.0
C      1  0.5224660000000  0.4926170000000  0.5119230000000 1.0
C      1  0.4775340000000  0.5073830000000  0.4880760000000 1.0
C      1  0.4775340000000  0.4926170000000  0.5119230000000 1.0
C      1  0.5522660000000  0.5229490000000  0.4459010000000 1.0
C      1  0.5522660000000  0.4770510000000  0.5540980000000 1.0
C      1  0.4477340000000  0.5229490000000  0.4459020000000 1.0
C      1  0.4477340000000  0.4770510000000  0.5540990000000 1.0
C      1  0.5417840000000  0.4457540000000  0.5372670000000 1.0
C      1  0.5417840000000  0.5542470000000  0.4627330000000 1.0
C      1  0.4582170000000  0.4457530000000  0.5372680000000 1.0
C      1  0.4582160000000  0.5542470000000  0.4627330000000 1.0
C      1  0.5297420000000  0.5290500000000  0.5444600000000 1.0
C      1  0.5297430000000  0.4709500000000  0.4555400000000 1.0
C      1  0.4702570000000  0.5290490000000  0.5444600000000 1.0
C      1  0.4702580000000  0.4709500000000  0.4555400000000 1.0
C      1  0.4858450000000  0.4647590000000  0.5077440000000 1.0
C      1  0.4858450000000  0.5352410000000  0.4922560000000 1.0
C      1  0.5141550000000  0.4647590000000  0.5077430000000 1.0
C      1  0.5141550000000  0.5352410000000  0.4922560000000 1.0
C      1  0.5146380000000  0.4532150000000  0.5586880000000 1.0
C      1  0.5146370000000  0.5467850000000  0.4413120000000 1.0
C      1  0.4853620000000  0.4532150000000  0.5586870000000 1.0
C      1  0.4853620000000  0.5467850000000  0.4413120000000 1.0
C      1  0.4860540000000  0.4929170000000  0.4649410000000 1.0
C      1  0.4860540000000  0.5070830000000  0.5350590000000 1.0
C      1  0.5139460000000  0.4929170000000  0.4649410000000 1.0
C      1  0.5139460000000  0.5070830000000  0.5350590000000 1.0
C      1  0.5137250000000  0.4504460000000  0.4443080000000 1.0
C      1  0.5137250000000  0.5495540000000  0.5556930000000 1.0
C      1  0.4862750000000  0.4504450000000  0.4443080000000 1.0
C      1  0.4862750000000  0.5495540000000  0.5556930000000 1.0
C      1  0.5293380000000  0.4764320000000  0.5721430000000 1.0
C      1  0.5293370000000  0.5235690000000  0.4278560000000 1.0
C      1  0.4706630000000  0.4764310000000  0.5721440000000 1.0
C      1  0.4706620000000  0.5235690000000  0.4278570000000 1.0
C      1  0.5731290000000  0.5119750000000  0.4909480000000 1.0
C      1  0.5731290000000  0.4880260000000  0.5090510000000 1.0
C      1  0.4268710000000  0.5119740000000  0.4909490000000 1.0
C      1  0.4268710000000  0.4880250000000  0.5090520000000 1.0
C      1  0.5560430000000  0.5249500000000  0.5335260000000 1.0
C      1  0.5560430000000  0.4750510000000  0.4664740000000 1.0
C      1  0.4439570000000  0.5249490000000  0.5335260000000 1.0
C      1  0.4439570000000  0.4750500000000  0.4664740000000 1.0
C      1  0.5394850000000  0.4512050000000  0.5099780000000 1.0
C      1  0.5394840000000  0.5487950000000  0.4900220000000 1.0
C      1  0.4605160000000  0.4512050000000  0.5099780000000 1.0
C      1  0.4605150000000  0.5487950000000  0.4900220000000 1.0
C      1  0.5649410000000  0.4959090000000  0.5363270000000 1.0
C      1  0.5649410000000  0.5040920000000  0.4636730000000 1.0
C      1  0.4350590000000  0.4959080000000  0.5363270000000 1.0
C      1  0.4350590000000  0.5040910000000  0.4636730000000 1.0
END
