TITL C-2323486-8761-467 -0.00689063069590862 125000 -356.446317840072 0 0 60 (C1) n - 1
REM
REM in /home/bkarasulu/CARBON/AIRSS/Generating-Clusters/LCBOP/Higher-Symm/Only-C60/SD-CG/FIRE-HFTN
REM
REM
REM
REM
REM
REM ./C.cell (50c204cfd26239f34c78669fe23a5462)
REM
REM compiler GCC version 9.2.1 20190827 (Red Hat 9.2.1-1)
REM options -cpp -mtune=generic -march=x86-64 -g -O0 -fpre-include=/usr/include/finclude/math-vector-fortran.h
REM seed -726588237 1195226443 -119979396 1761171341 -834416372 -514363119 -1441267449 -1249798620 -203809332 -1536518334 594650600 849117579 -19255767 606061336 1866187766 -1600089806 1870612738 -1838303864 1269876972 562775763 1900216109 516928372 678621957 1122329946 -211523052 596882779 1690877886 700999716 558500357 1433561243 -557619297 -264729183 -318448250
REM
CELL 1.54180   50.00000   50.00000   50.00000   90.00000   90.00000   90.00000
LATT -1
SFAC C  
C      1  0.4295270000000  0.4687520000000  0.4465930000000 1.0
C      1  0.4838110000000  0.5085830000000  0.4356110000000 1.0
C      1  0.4971950000000  0.5300860000000  0.4274950000000 1.0
C      1  0.5022080000000  0.5290310000000  0.5238780000000 1.0
C      1  0.3667420000000  0.4868460000000  0.5222220000000 1.0
C      1  0.4722470000000  0.5691630000000  0.4870480000000 1.0
C      1  0.4504770000000  0.4162120000000  0.5010500000000 1.0
C      1  0.4633700000000  0.4785150000000  0.5200100000000 1.0
C      1  0.5284210000000  0.4888940000000  0.5273150000000 1.0
C      1  0.5502960000000  0.4765570000000  0.5715040000000 1.0
C      1  0.5446110000000  0.4434380000000  0.5208510000000 1.0
C      1  0.5828610000000  0.5811100000000  0.5493230000000 1.0
C      1  0.4269380000000  0.5158780000000  0.4598710000000 1.0
C      1  0.4173520000000  0.4470050000000  0.4389840000000 1.0
C      1  0.5825240000000  0.5254030000000  0.5028200000000 1.0
C      1  0.5702970000000  0.4505490000000  0.4508410000000 1.0
C      1  0.6116390000000  0.4347960000000  0.4608590000000 1.0
C      1  0.5801260000000  0.5536220000000  0.5056080000000 1.0
C      1  0.5597550000000  0.4379250000000  0.5441210000000 1.0
C      1  0.4011160000000  0.5141490000000  0.4714030000000 1.0
C      1  0.4312030000000  0.4028780000000  0.4896560000000 1.0
C      1  0.4642050000000  0.4522890000000  0.5310380000000 1.0
C      1  0.5143580000000  0.5691300000000  0.5550670000000 1.0
C      1  0.5623600000000  0.4805830000000  0.4922060000000 1.0
C      1  0.5037330000000  0.5507350000000  0.5391110000000 1.0
C      1  0.5647890000000  0.5084850000000  0.4884040000000 1.0
C      1  0.5100510000000  0.5515930000000  0.4367150000000 1.0
C      1  0.4423500000000  0.4964020000000  0.5265930000000 1.0
C      1  0.4848290000000  0.4877530000000  0.5034750000000 1.0
C      1  0.5444900000000  0.4707660000000  0.5119740000000 1.0
C      1  0.4595810000000  0.4484150000000  0.5577690000000 1.0
C      1  0.4466560000000  0.5244560000000  0.5266930000000 1.0
C      1  0.4972030000000  0.5722140000000  0.4780390000000 1.0
C      1  0.5175280000000  0.5611390000000  0.4621240000000 1.0
C      1  0.5901560000000  0.5680160000000  0.5272520000000 1.0
C      1  0.4405260000000  0.5403710000000  0.4639960000000 1.0
C      1  0.5056570000000  0.5021570000000  0.5167600000000 1.0
C      1  0.4706530000000  0.4300090000000  0.5144860000000 1.0
C      1  0.5350420000000  0.5824170000000  0.5652620000000 1.0
C      1  0.4420640000000  0.4925470000000  0.4539740000000 1.0
C      1  0.6041020000000  0.4519360000000  0.4816500000000 1.0
C      1  0.4974710000000  0.4223700000000  0.5118940000000 1.0
C      1  0.5236890000000  0.4266430000000  0.5130610000000 1.0
C      1  0.5357240000000  0.4916470000000  0.5545510000000 1.0
C      1  0.5026800000000  0.4608280000000  0.4675170000000 1.0
C      1  0.3910020000000  0.4976330000000  0.5161750000000 1.0
C      1  0.4858080000000  0.4809010000000  0.4757470000000 1.0
C      1  0.5606710000000  0.5651530000000  0.4882300000000 1.0
C      1  0.4153420000000  0.4881210000000  0.5269680000000 1.0
C      1  0.3941880000000  0.5197110000000  0.4983250000000 1.0
C      1  0.5464790000000  0.5229510000000  0.4722990000000 1.0
C      1  0.4351180000000  0.5450670000000  0.5110440000000 1.0
C      1  0.5773230000000  0.4629880000000  0.4765510000000 1.0
C      1  0.4066520000000  0.5431140000000  0.5090190000000 1.0
C      1  0.4489870000000  0.5537200000000  0.4875420000000 1.0
C      1  0.5612700000000  0.5870100000000  0.5638610000000 1.0
C      1  0.5414050000000  0.5509720000000  0.4731350000000 1.0
C      1  0.5616160000000  0.4524670000000  0.5668300000000 1.0
C      1  0.5910560000000  0.4339520000000  0.4421010000000 1.0
C      1  0.4704690000000  0.4939500000000  0.4555000000000 1.0
END
