TITL C-2323479-8056-626 4625.37828255617 125000 -347.266353549877 0 0 60 (C1) n - 1
REM
REM in /home/bkarasulu/CARBON/AIRSS/Generating-Clusters/LCBOP/Higher-Symm/Only-C60/SD-CG/FIRE-HFTN
REM
REM
REM
REM
REM
REM ./C.cell (50c204cfd26239f34c78669fe23a5462)
REM
REM compiler GCC version 9.2.1 20190827 (Red Hat 9.2.1-1)
REM options -cpp -mtune=generic -march=x86-64 -g -O0 -fpre-include=/usr/include/finclude/math-vector-fortran.h
REM seed -1746434761 -2030832612 1225871789 706403266 -139597237 1718108086 1165234142 -576191902 2057930592 1480760210 1555852856 918687911 1392373597 -411969240 -1511213463 2125692243 -702371218 -778521862 1311291558 -473883173 1333442790 1394085997 -612392670 -1077026322 -6077858 1780689431 -988232956 1983839688 605830605 -477948916 -1510534391 1740608771 1543522023
REM
CELL 1.54180   50.00000   50.00000   50.00000   90.00000   90.00000   90.00000
LATT -1
SFAC C  
C      1  0.5166540000000  0.5588640000000  0.5426080000000 1.0
C      1  0.5263940000000  0.5261100000000  0.4427730000000 1.0
C      1  0.4533650000000  0.5605980000000  0.5176860000000 1.0
C      1  0.4660390000000  0.4513160000000  0.5434980000000 1.0
C      1  0.5516970000000  0.4638340000000  0.5125190000000 1.0
C      1  0.4679270000000  0.4682890000000  0.4554900000000 1.0
C      1  0.5059560000000  0.5101160000000  0.5347420000000 1.0
C      1  0.5061860000000  0.5023730000000  0.4870110000000 1.0
C      1  0.4667280000000  0.5114030000000  0.5137700000000 1.0
C      1  0.5535600000000  0.5336720000000  0.4394010000000 1.0
C      1  0.4375370000000  0.5623180000000  0.4941150000000 1.0
C      1  0.5196730000000  0.5654290000000  0.5701890000000 1.0
C      1  0.5191620000000  0.5080610000000  0.4629270000000 1.0
C      1  0.4720670000000  0.5398070000000  0.5211020000000 1.0
C      1  0.4985480000000  0.5389580000000  0.5343510000000 1.0
C      1  0.5651900000000  0.3911290000000  0.5113540000000 1.0
C      1  0.4963840000000  0.4100430000000  0.4197310000000 1.0
C      1  0.4478490000000  0.3828320000000  0.5229810000000 1.0
C      1  0.4491310000000  0.5791850000000  0.5381730000000 1.0
C      1  0.5335030000000  0.5708060000000  0.5237420000000 1.0
C      1  0.5060660000000  0.5408630000000  0.4304330000000 1.0
C      1  0.4100540000000  0.5575240000000  0.4956000000000 1.0
C      1  0.5408860000000  0.5549910000000  0.5849540000000 1.0
C      1  0.5690080000000  0.5233020000000  0.4186950000000 1.0
C      1  0.4298200000000  0.3642990000000  0.5262570000000 1.0
C      1  0.5827000000000  0.3729810000000  0.5179330000000 1.0
C      1  0.5015510000000  0.4003020000000  0.3961160000000 1.0
C      1  0.5828390000000  0.5137990000000  0.3981930000000 1.0
C      1  0.3844150000000  0.5512020000000  0.4977330000000 1.0
C      1  0.5616040000000  0.5437040000000  0.5970050000000 1.0
C      1  0.5219160000000  0.4033480000000  0.4944250000000 1.0
C      1  0.4992970000000  0.4074350000000  0.4676180000000 1.0
C      1  0.4874670000000  0.3993810000000  0.5014550000000 1.0
C      1  0.5209720000000  0.5012340000000  0.5119640000000 1.0
C      1  0.4771040000000  0.5025630000000  0.4884860000000 1.0
C      1  0.4797040000000  0.4969340000000  0.5359230000000 1.0
C      1  0.5473520000000  0.4914200000000  0.5139390000000 1.0
C      1  0.4607450000000  0.4923560000000  0.4678270000000 1.0
C      1  0.4697790000000  0.4773170000000  0.5530890000000 1.0
C      1  0.4667870000000  0.4029810000000  0.5189370000000 1.0
C      1  0.5460840000000  0.4105070000000  0.5050080000000 1.0
C      1  0.4914100000000  0.4207030000000  0.4450740000000 1.0
C      1  0.4493980000000  0.5682540000000  0.4695380000000 1.0
C      1  0.5006580000000  0.5822820000000  0.5819310000000 1.0
C      1  0.5639300000000  0.5520210000000  0.4578320000000 1.0
C      1  0.5821110000000  0.5323590000000  0.6084230000000 1.0
C      1  0.5962490000000  0.5045940000000  0.3778200000000 1.0
C      1  0.3592960000000  0.5446160000000  0.5000270000000 1.0
C      1  0.4636910000000  0.4834270000000  0.5790540000000 1.0
C      1  0.5683550000000  0.5086130000000  0.5172840000000 1.0
C      1  0.4380610000000  0.5054920000000  0.4600440000000 1.0
C      1  0.4643900000000  0.5656050000000  0.4478230000000 1.0
C      1  0.4763300000000  0.5925700000000  0.5783670000000 1.0
C      1  0.5616050000000  0.5661680000000  0.4801920000000 1.0
C      1  0.4644080000000  0.4271390000000  0.5328280000000 1.0
C      1  0.5516950000000  0.4375040000000  0.5097030000000 1.0
C      1  0.4783300000000  0.4453190000000  0.4474050000000 1.0
C      1  0.4840610000000  0.5555090000000  0.4331260000000 1.0
C      1  0.4563790000000  0.5912420000000  0.5607350000000 1.0
C      1  0.5499420000000  0.5729990000000  0.5030420000000 1.0
END
