TITL C-2323477-5056-519 -1.95590739519212e-07 125000 -374.521302534109 0 0 60 (D2) n - 1
REM
REM in /home/bkarasulu/CARBON/AIRSS/Generating-Clusters/LCBOP/Higher-Symm/Only-C60/SD-CG/FIRE-HFTN
REM
REM
REM
REM
REM
REM ./C.cell (50c204cfd26239f34c78669fe23a5462)
REM
REM compiler GCC version 9.2.1 20190827 (Red Hat 9.2.1-1)
REM options -cpp -mtune=generic -march=x86-64 -g -O0 -fpre-include=/usr/include/finclude/math-vector-fortran.h
REM seed 994743217 -321061653 257690737 -1437343640 -97164302 1647150144 -990819302 -137072078 -2039317324 515471186 122070490 -2128666069 591779609 -1224795673 -614612160 -1675758419 -2137470068 -1712902707 1045254668 -1378663127 -1475979720 -517201270 -1865060495 1274013884 1496462551 493976902 -1632901927 -1756125528 157379383 1524554358 1736543691 1394042338 -869888894
REM
CELL 1.54180   50.00000   50.00000   50.00000   90.00000   90.00000   90.00000
LATT -1
SFAC C  
C      1  0.5489160000000  0.4751370000000  0.5751300000000 1.0
C      1  0.4510650000000  0.4751980000000  0.4248630000000 1.0
C      1  0.4510880000000  0.5248410000000  0.5751390000000 1.0
C      1  0.5489320000000  0.5248240000000  0.4248680000000 1.0
C      1  0.5316710000000  0.4930200000000  0.4882380000000 1.0
C      1  0.4683240000000  0.4930420000000  0.5117600000000 1.0
C      1  0.4683290000000  0.5069840000000  0.4882420000000 1.0
C      1  0.5316770000000  0.5069550000000  0.5117600000000 1.0
C      1  0.5234220000000  0.5130410000000  0.4256480000000 1.0
C      1  0.4765880000000  0.5130390000000  0.5743560000000 1.0
C      1  0.4765740000000  0.4869800000000  0.4256450000000 1.0
C      1  0.5234160000000  0.4869400000000  0.5743510000000 1.0
C      1  0.4628940000000  0.4480160000000  0.5123420000000 1.0
C      1  0.5370650000000  0.4479890000000  0.4876430000000 1.0
C      1  0.5371070000000  0.5519810000000  0.5123550000000 1.0
C      1  0.4629350000000  0.5520140000000  0.4876600000000 1.0
C      1  0.5101370000000  0.5478270000000  0.4602260000000 1.0
C      1  0.4899020000000  0.5478230000000  0.5397870000000 1.0
C      1  0.4898610000000  0.4521850000000  0.4602130000000 1.0
C      1  0.5101000000000  0.4521650000000  0.5397730000000 1.0
C      1  0.4492330000000  0.5270190000000  0.4815510000000 1.0
C      1  0.5507880000000  0.5269730000000  0.5184570000000 1.0
C      1  0.5507660000000  0.4729860000000  0.4815400000000 1.0
C      1  0.4492130000000  0.4730210000000  0.5184520000000 1.0
C      1  0.5585180000000  0.4671820000000  0.5495280000000 1.0
C      1  0.4414550000000  0.4672430000000  0.4504620000000 1.0
C      1  0.4414840000000  0.5328040000000  0.5495410000000 1.0
C      1  0.5585420000000  0.5327710000000  0.4504690000000 1.0
C      1  0.5200180000000  0.5121600000000  0.5592420000000 1.0
C      1  0.4799910000000  0.5121930000000  0.4407620000000 1.0
C      1  0.4799850000000  0.4878230000000  0.5592390000000 1.0
C      1  0.5200060000000  0.4878240000000  0.4407570000000 1.0
C      1  0.5747610000000  0.5125370000000  0.4627870000000 1.0
C      1  0.4252490000000  0.5125860000000  0.5372160000000 1.0
C      1  0.4252370000000  0.4874740000000  0.4627880000000 1.0
C      1  0.5747530000000  0.4874030000000  0.5372090000000 1.0
C      1  0.4532170000000  0.5636560000000  0.5117880000000 1.0
C      1  0.5468340000000  0.5636220000000  0.4882300000000 1.0
C      1  0.5467840000000  0.4363400000000  0.5117670000000 1.0
C      1  0.4531650000000  0.4363810000000  0.4882150000000 1.0
C      1  0.5397050000000  0.4492200000000  0.5360480000000 1.0
C      1  0.4602550000000  0.4492620000000  0.4639380000000 1.0
C      1  0.4602970000000  0.5507690000000  0.5360640000000 1.0
C      1  0.5397440000000  0.5507480000000  0.4639500000000 1.0
C      1  0.4929810000000  0.4474820000000  0.5141640000000 1.0
C      1  0.5069770000000  0.4474810000000  0.4858210000000 1.0
C      1  0.5070190000000  0.5525140000000  0.5141790000000 1.0
C      1  0.4930230000000  0.5525230000000  0.4858360000000 1.0
C      1  0.5732550000000  0.5138240000000  0.5298860000000 1.0
C      1  0.4267560000000  0.5138910000000  0.4701180000000 1.0
C      1  0.4267470000000  0.4861680000000  0.5298860000000 1.0
C      1  0.5732420000000  0.4861180000000  0.4701100000000 1.0
C      1  0.4981630000000  0.5311990000000  0.5638740000000 1.0
C      1  0.5018620000000  0.5312160000000  0.4361350000000 1.0
C      1  0.5018400000000  0.4687820000000  0.5638650000000 1.0
C      1  0.4981350000000  0.4688020000000  0.4361270000000 1.0
C      1  0.4865700000000  0.5039190000000  0.4682830000000 1.0
C      1  0.5134330000000  0.5038990000000  0.5317180000000 1.0
C      1  0.5134280000000  0.4960900000000  0.4682810000000 1.0
C      1  0.4865690000000  0.4960920000000  0.5317170000000 1.0
END
