TITL C-2323485-8600-460 -0.298622006262739 125000 -350.164566843425 0 0 60 (C1) n - 1
REM
REM in /home/bkarasulu/CARBON/AIRSS/Generating-Clusters/LCBOP/Higher-Symm/Only-C60/SD-CG/FIRE-HFTN
REM
REM
REM
REM
REM
REM ./C.cell (50c204cfd26239f34c78669fe23a5462)
REM
REM compiler GCC version 9.2.1 20190827 (Red Hat 9.2.1-1)
REM options -cpp -mtune=generic -march=x86-64 -g -O0 -fpre-include=/usr/include/finclude/math-vector-fortran.h
REM seed 1602107433 -1826256973 -152648812 2103612102 1866931489 -1578710634 -741365563 373722664 -84625188 -1515879549 638530979 -1991745529 -2544667 -1119092565 1661230809 -32595471 -864015676 886054050 -1047360317 1766997618 2048063992 -401421259 1548560079 -1120117498 1848289862 -1440924583 2004852938 -393175343 -1256898892 662358657 1728382448 407933982 1664129176
REM
CELL 1.54180   50.00000   50.00000   50.00000   90.00000   90.00000   90.00000
LATT -1
SFAC C  
C      1  0.4669980000000  0.4731820000000  0.4363130000000 1.0
C      1  0.4654990000000  0.5253020000000  0.4458410000000 1.0
C      1  0.4515140000000  0.4334930000000  0.4609850000000 1.0
C      1  0.4655560000000  0.5653510000000  0.4760490000000 1.0
C      1  0.4961280000000  0.4617010000000  0.5460530000000 1.0
C      1  0.4867780000000  0.5393160000000  0.5706630000000 1.0
C      1  0.4712260000000  0.4353080000000  0.5119490000000 1.0
C      1  0.4691700000000  0.5643020000000  0.5311650000000 1.0
C      1  0.4999950000000  0.4140400000000  0.4105860000000 1.0
C      1  0.5266610000000  0.5300630000000  0.4541730000000 1.0
C      1  0.4276570000000  0.4217560000000  0.4542490000000 1.0
C      1  0.4501290000000  0.5854560000000  0.4654220000000 1.0
C      1  0.5316270000000  0.5136600000000  0.5077090000000 1.0
C      1  0.5380710000000  0.5656280000000  0.5123080000000 1.0
C      1  0.4738270000000  0.4694470000000  0.5632490000000 1.0
C      1  0.4661400000000  0.5184030000000  0.5744570000000 1.0
C      1  0.5191950000000  0.4598220000000  0.4737020000000 1.0
C      1  0.5351170000000  0.5861130000000  0.5291310000000 1.0
C      1  0.4983090000000  0.5861240000000  0.5623890000000 1.0
C      1  0.5182760000000  0.4319110000000  0.5143900000000 1.0
C      1  0.5116730000000  0.5263890000000  0.5619740000000 1.0
C      1  0.5138340000000  0.4832340000000  0.5397730000000 1.0
C      1  0.4475200000000  0.4687870000000  0.5516150000000 1.0
C      1  0.4422790000000  0.5169650000000  0.5577430000000 1.0
C      1  0.4814330000000  0.5641360000000  0.5569790000000 1.0
C      1  0.4944800000000  0.4402890000000  0.5272090000000 1.0
C      1  0.5065450000000  0.5477540000000  0.4539580000000 1.0
C      1  0.4837740000000  0.4290440000000  0.4244020000000 1.0
C      1  0.5376910000000  0.4923180000000  0.5268700000000 1.0
C      1  0.5407950000000  0.5235660000000  0.5627010000000 1.0
C      1  0.5747940000000  0.5064230000000  0.4979630000000 1.0
C      1  0.6037310000000  0.5199410000000  0.5356260000000 1.0
C      1  0.4674950000000  0.4452110000000  0.4402880000000 1.0
C      1  0.4786750000000  0.5474660000000  0.4578880000000 1.0
C      1  0.4595380000000  0.4338920000000  0.4879710000000 1.0
C      1  0.4676040000000  0.5635790000000  0.5043180000000 1.0
C      1  0.5265100000000  0.4400170000000  0.4900940000000 1.0
C      1  0.5203590000000  0.5947840000000  0.5497110000000 1.0
C      1  0.4218700000000  0.5350410000000  0.5598160000000 1.0
C      1  0.4303380000000  0.4477570000000  0.5534500000000 1.0
C      1  0.4407910000000  0.4941240000000  0.5396570000000 1.0
C      1  0.4832110000000  0.4942100000000  0.4769260000000 1.0
C      1  0.4340680000000  0.4938100000000  0.4648440000000 1.0
C      1  0.5567770000000  0.5069870000000  0.5440550000000 1.0
C      1  0.6166630000000  0.4442250000000  0.3996480000000 1.0
C      1  0.5794820000000  0.5114610000000  0.5262980000000 1.0
C      1  0.4758610000000  0.4917990000000  0.5815600000000 1.0
C      1  0.5336240000000  0.5050140000000  0.4651800000000 1.0
C      1  0.5906080000000  0.4721620000000  0.4357710000000 1.0
C      1  0.5615620000000  0.4995590000000  0.4729770000000 1.0
C      1  0.5335690000000  0.5404020000000  0.5050980000000 1.0
C      1  0.5113380000000  0.4868190000000  0.4710830000000 1.0
C      1  0.4262290000000  0.4931830000000  0.4906510000000 1.0
C      1  0.4622860000000  0.4965330000000  0.4539740000000 1.0
C      1  0.4715280000000  0.5017120000000  0.5023200000000 1.0
C      1  0.5772310000000  0.4860610000000  0.4539180000000 1.0
C      1  0.5006090000000  0.5085040000000  0.5425330000000 1.0
C      1  0.4447310000000  0.4961690000000  0.5114580000000 1.0
C      1  0.6037450000000  0.4580790000000  0.4175600000000 1.0
C      1  0.4861050000000  0.5165480000000  0.5205060000000 1.0
END
