TITL C-2323478-8180-319 5.61570304421383e-07 125000 -354.482249541273 0 0 60 (C1) n - 1
REM
REM in /home/bkarasulu/CARBON/AIRSS/Generating-Clusters/LCBOP/Higher-Symm/Only-C60/SD-CG/FIRE-HFTN
REM
REM
REM
REM
REM
REM ./C.cell (50c204cfd26239f34c78669fe23a5462)
REM
REM compiler GCC version 9.2.1 20190827 (Red Hat 9.2.1-1)
REM options -cpp -mtune=generic -march=x86-64 -g -O0 -fpre-include=/usr/include/finclude/math-vector-fortran.h
REM seed 323390275 1199294685 -668002743 -1410882 -1360680915 -35261539 -736835361 451666659 -1154568 -473786483 -602434866 -2062645891 2010033199 -563417644 -593231854 -1832293540 -383882520 -271713567 1578625506 -297976178 1745427660 1520996458 -993462809 -2036472032 1706104548 1026569243 214934596 -1306558739 -501493228 1900378652 184199676 1297840136 1683464184
REM
CELL 1.54180   50.00000   50.00000   50.00000   90.00000   90.00000   90.00000
LATT -1
SFAC C  
C      1  0.4458550000000  0.5209100000000  0.4955410000000 1.0
C      1  0.5145450000000  0.5662080000000  0.4774680000000 1.0
C      1  0.5135960000000  0.5505910000000  0.5659740000000 1.0
C      1  0.5414200000000  0.4157330000000  0.5377570000000 1.0
C      1  0.4466540000000  0.4557490000000  0.4744510000000 1.0
C      1  0.5126800000000  0.5790990000000  0.5229820000000 1.0
C      1  0.5025480000000  0.4662620000000  0.5584000000000 1.0
C      1  0.4471440000000  0.5796700000000  0.5209220000000 1.0
C      1  0.5304290000000  0.4271840000000  0.5621500000000 1.0
C      1  0.4909270000000  0.4908190000000  0.5506140000000 1.0
C      1  0.4665280000000  0.4327050000000  0.5418650000000 1.0
C      1  0.4525640000000  0.5526740000000  0.4582690000000 1.0
C      1  0.5709590000000  0.4840940000000  0.5359640000000 1.0
C      1  0.5032560000000  0.4628780000000  0.4511970000000 1.0
C      1  0.4942380000000  0.4366860000000  0.4571510000000 1.0
C      1  0.5555170000000  0.4619760000000  0.5439490000000 1.0
C      1  0.4940020000000  0.4829930000000  0.4322900000000 1.0
C      1  0.4648480000000  0.5675330000000  0.5038000000000 1.0
C      1  0.5692550000000  0.5189940000000  0.4221350000000 1.0
C      1  0.5313750000000  0.5173590000000  0.5279260000000 1.0
C      1  0.4326060000000  0.5699780000000  0.4492640000000 1.0
C      1  0.5079760000000  0.5411270000000  0.4689020000000 1.0
C      1  0.5859580000000  0.5018640000000  0.4922260000000 1.0
C      1  0.5089630000000  0.5080240000000  0.4345650000000 1.0
C      1  0.5620730000000  0.4356740000000  0.5320920000000 1.0
C      1  0.5116490000000  0.5737920000000  0.5501560000000 1.0
C      1  0.5339790000000  0.4991600000000  0.4483350000000 1.0
C      1  0.4511630000000  0.4404690000000  0.5197230000000 1.0
C      1  0.4298370000000  0.5061470000000  0.4764430000000 1.0
C      1  0.4607010000000  0.4392840000000  0.4926960000000 1.0
C      1  0.5085680000000  0.4299590000000  0.5029670000000 1.0
C      1  0.5184030000000  0.5047070000000  0.5059340000000 1.0
C      1  0.4835620000000  0.4449290000000  0.5585320000000 1.0
C      1  0.4060430000000  0.5163320000000  0.4674680000000 1.0
C      1  0.4311840000000  0.4598600000000  0.5252410000000 1.0
C      1  0.5298870000000  0.4569560000000  0.5597300000000 1.0
C      1  0.5572740000000  0.5273220000000  0.5207250000000 1.0
C      1  0.5085530000000  0.5505700000000  0.5927370000000 1.0
C      1  0.5210890000000  0.5274100000000  0.5519270000000 1.0
C      1  0.4310110000000  0.4867160000000  0.5265490000000 1.0
C      1  0.5607800000000  0.5072450000000  0.4453370000000 1.0
C      1  0.4499330000000  0.5071730000000  0.5206230000000 1.0
C      1  0.5756010000000  0.5057210000000  0.5180260000000 1.0
C      1  0.4136460000000  0.5862220000000  0.4418010000000 1.0
C      1  0.4378520000000  0.4802940000000  0.4689760000000 1.0
C      1  0.5226780000000  0.4098500000000  0.5171450000000 1.0
C      1  0.4974780000000  0.5323280000000  0.4439400000000 1.0
C      1  0.5247830000000  0.4773570000000  0.4654090000000 1.0
C      1  0.5788630000000  0.5031090000000  0.4665080000000 1.0
C      1  0.5235680000000  0.4795320000000  0.4938040000000 1.0
C      1  0.4915880000000  0.5758910000000  0.5036020000000 1.0
C      1  0.4868630000000  0.4307150000000  0.4844810000000 1.0
C      1  0.4927410000000  0.4173700000000  0.4378480000000 1.0
C      1  0.4711650000000  0.5414510000000  0.4400410000000 1.0
C      1  0.5047620000000  0.5223570000000  0.4894140000000 1.0
C      1  0.5193190000000  0.4556720000000  0.5070060000000 1.0
C      1  0.5563430000000  0.5538710000000  0.5109250000000 1.0
C      1  0.4732690000000  0.5056080000000  0.5365440000000 1.0
C      1  0.4549460000000  0.5467770000000  0.4865800000000 1.0
C      1  0.5350040000000  0.5710590000000  0.5049720000000 1.0
END
