TITL C-2323480-5884-171 -2.00031594125334e-08 125000 -368.4325729028 0 0 60 (C5) n - 1
REM
REM in /home/bkarasulu/CARBON/AIRSS/Generating-Clusters/LCBOP/Higher-Symm/Only-C60/SD-CG/FIRE-HFTN
REM
REM
REM
REM
REM
REM ./C.cell (50c204cfd26239f34c78669fe23a5462)
REM
REM compiler GCC version 9.2.1 20190827 (Red Hat 9.2.1-1)
REM options -cpp -mtune=generic -march=x86-64 -g -O0 -fpre-include=/usr/include/finclude/math-vector-fortran.h
REM seed -2124608402 1281434075 1366944683 -1185938838 -2037862346 206396962 -1728912354 -1245170893 333721566 -48761010 102921243 365248341 -1858992307 -1547908625 306647831 1326724169 -1549482646 1647352481 117223945 -620264402 95938554 820102123 200034809 -1844741076 202538156 -5119959 1769947189 862782753 1306903399 -1151496742 -25799043 -1195121772 166658136
REM
CELL 1.54180   50.00000   50.00000   50.00000   90.00000   90.00000   90.00000
LATT -1
SFAC C  
C      1  0.4888430000000  0.5161030000000  0.5925300000000 1.0
C      1  0.4888470000000  0.4169740000000  0.5439080000000 1.0
C      1  0.4888520000000  0.4325840000000  0.4346060000000 1.0
C      1  0.4888510000000  0.5413600000000  0.4156750000000 1.0
C      1  0.4888450000000  0.5929780000000  0.5132780000000 1.0
C      1  0.5054190000000  0.5567570000000  0.5519160000000 1.0
C      1  0.5054200000000  0.4681640000000  0.5700220000000 1.0
C      1  0.5054240000000  0.4235680000000  0.4913600000000 1.0
C      1  0.5054260000000  0.4845980000000  0.4246390000000 1.0
C      1  0.5054230000000  0.5669140000000  0.4620640000000 1.0
C      1  0.4706160000000  0.5535840000000  0.4320560000000 1.0
C      1  0.4706110000000  0.5811750000000  0.5299650000000 1.0
C      1  0.4706100000000  0.4965840000000  0.5864610000000 1.0
C      1  0.4706140000000  0.4167130000000  0.5234690000000 1.0
C      1  0.4706180000000  0.4519410000000  0.4280410000000 1.0
C      1  0.4778500000000  0.5564950000000  0.5425810000000 1.0
C      1  0.4778510000000  0.4769600000000  0.5668880000000 1.0
C      1  0.4778550000000  0.4292650000000  0.4987570000000 1.0
C      1  0.4778570000000  0.4793230000000  0.4323420000000 1.0
C      1  0.4778540000000  0.5579560000000  0.4594270000000 1.0
C      1  0.4463050000000  0.5189830000000  0.5173990000000 1.0
C      1  0.4463050000000  0.4893160000000  0.5234290000000 1.0
C      1  0.4463070000000  0.4744130000000  0.4970780000000 1.0
C      1  0.4463080000000  0.4948690000000  0.4747610000000 1.0
C      1  0.4463070000000  0.5224150000000  0.4873200000000 1.0
C      1  0.4696980000000  0.4911120000000  0.4568840000000 1.0
C      1  0.4696960000000  0.5382570000000  0.4782230000000 1.0
C      1  0.4696940000000  0.5325310000000  0.5296550000000 1.0
C      1  0.4696940000000  0.4818480000000  0.5401030000000 1.0
C      1  0.4696970000000  0.4562490000000  0.4951280000000 1.0
C      1  0.5237570000000  0.4245420000000  0.5132300000000 1.0
C      1  0.5237600000000  0.4641010000000  0.4323230000000 1.0
C      1  0.5237580000000  0.5532720000000  0.4449450000000 1.0
C      1  0.5237540000000  0.5688240000000  0.5336520000000 1.0
C      1  0.5237530000000  0.4892640000000  0.5758550000000 1.0
C      1  0.5217540000000  0.5341920000000  0.5607820000000 1.0
C      1  0.5217560000000  0.4527600000000  0.5513010000000 1.0
C      1  0.5217600000000  0.4366130000000  0.4709250000000 1.0
C      1  0.5217610000000  0.5080650000000  0.4307310000000 1.0
C      1  0.5217570000000  0.5683720000000  0.4862660000000 1.0
C      1  0.5144970000000  0.4406260000000  0.4444360000000 1.0
C      1  0.5144960000000  0.5344980000000  0.4263620000000 1.0
C      1  0.5144910000000  0.5806950000000  0.5100540000000 1.0
C      1  0.5144890000000  0.5153750000000  0.5798530000000 1.0
C      1  0.5144930000000  0.4288080000000  0.5392980000000 1.0
C      1  0.4918880000000  0.5180970000000  0.5168110000000 1.0
C      1  0.4918880000000  0.4896030000000  0.5224070000000 1.0
C      1  0.4918900000000  0.4754770000000  0.4970360000000 1.0
C      1  0.4918910000000  0.4952400000000  0.4757610000000 1.0
C      1  0.4918900000000  0.5215810000000  0.4879830000000 1.0
C      1  0.5482830000000  0.4982990000000  0.4749680000000 1.0
C      1  0.5482820000000  0.5232840000000  0.4906480000000 1.0
C      1  0.5482810000000  0.5160930000000  0.5192560000000 1.0
C      1  0.5482810000000  0.4866630000000  0.5212560000000 1.0
C      1  0.5482830000000  0.4756660000000  0.4938850000000 1.0
C      1  0.5410790000000  0.5330610000000  0.5403390000000 1.0
C      1  0.5410800000000  0.4718540000000  0.5439090000000 1.0
C      1  0.5410830000000  0.4495450000000  0.4868010000000 1.0
C      1  0.5410840000000  0.4969640000000  0.4479370000000 1.0
C      1  0.5410810000000  0.5485790000000  0.4810250000000 1.0
END
