TITL C-2323491-8878-339 -0.185132697237986 125000 -359.646499892475 0 0 60 (C1) n - 1
REM
REM in /home/bkarasulu/CARBON/AIRSS/Generating-Clusters/LCBOP/Higher-Symm/Only-C60/SD-CG/FIRE-HFTN
REM
REM
REM
REM
REM
REM ./C.cell (50c204cfd26239f34c78669fe23a5462)
REM
REM compiler GCC version 9.2.1 20190827 (Red Hat 9.2.1-1)
REM options -cpp -mtune=generic -march=x86-64 -g -O0 -fpre-include=/usr/include/finclude/math-vector-fortran.h
REM seed -1113691889 -421615106 1401489542 1861803074 -1249639101 2069288748 2129156185 -1316147019 116830568 1933843501 -203329009 -1841444752 -1769496494 1923316175 124017420 444388535 273345022 -223279242 517155870 -555581955 -1135257335 -1258583624 -1292572063 -178510704 -723974920 394900670 1639536243 -1695035066 721248426 2015745181 1576159485 -594293820 1839855637
REM
CELL 1.54180   50.00000   50.00000   50.00000   90.00000   90.00000   90.00000
LATT -1
SFAC C  
C      1  0.5318330000000  0.6038970000000  0.5025900000000 1.0
C      1  0.5082300000000  0.4013360000000  0.4989040000000 1.0
C      1  0.4746640000000  0.5252370000000  0.5046760000000 1.0
C      1  0.4977750000000  0.5086760000000  0.4676290000000 1.0
C      1  0.4349430000000  0.4555480000000  0.5349840000000 1.0
C      1  0.5513330000000  0.5579580000000  0.5121240000000 1.0
C      1  0.5206570000000  0.4646500000000  0.4881480000000 1.0
C      1  0.5731430000000  0.4514960000000  0.5677260000000 1.0
C      1  0.5669630000000  0.5199430000000  0.4856420000000 1.0
C      1  0.5026620000000  0.4326290000000  0.5391640000000 1.0
C      1  0.5493310000000  0.5859990000000  0.5121390000000 1.0
C      1  0.4178450000000  0.4511440000000  0.5541510000000 1.0
C      1  0.4928970000000  0.5321120000000  0.4834630000000 1.0
C      1  0.5504740000000  0.4559220000000  0.5809430000000 1.0
C      1  0.5385460000000  0.5357590000000  0.5616480000000 1.0
C      1  0.4469160000000  0.5875710000000  0.4514590000000 1.0
C      1  0.4757440000000  0.4403120000000  0.4458430000000 1.0
C      1  0.4794090000000  0.4876820000000  0.4733400000000 1.0
C      1  0.5096920000000  0.6018630000000  0.4876650000000 1.0
C      1  0.4275980000000  0.5206730000000  0.5151030000000 1.0
C      1  0.4710640000000  0.5861510000000  0.4622470000000 1.0
C      1  0.4955730000000  0.4596500000000  0.5424230000000 1.0
C      1  0.5552850000000  0.5415020000000  0.5825680000000 1.0
C      1  0.4919850000000  0.4186500000000  0.4534800000000 1.0
C      1  0.4814210000000  0.5032980000000  0.5224920000000 1.0
C      1  0.4954010000000  0.5015680000000  0.5697690000000 1.0
C      1  0.4502760000000  0.4463320000000  0.4888170000000 1.0
C      1  0.5076550000000  0.4117900000000  0.5233860000000 1.0
C      1  0.4954680000000  0.5813480000000  0.4747660000000 1.0
C      1  0.4474200000000  0.5182300000000  0.4953930000000 1.0
C      1  0.4539570000000  0.4580450000000  0.5147580000000 1.0
C      1  0.5628340000000  0.4920510000000  0.4854800000000 1.0
C      1  0.5040230000000  0.4746940000000  0.5651770000000 1.0
C      1  0.5232460000000  0.5007900000000  0.4585130000000 1.0
C      1  0.5146120000000  0.5219150000000  0.5666090000000 1.0
C      1  0.5870100000000  0.4533200000000  0.5450950000000 1.0
C      1  0.5340990000000  0.5505960000000  0.4659800000000 1.0
C      1  0.5004650000000  0.4769390000000  0.4135450000000 1.0
C      1  0.5029630000000  0.4041990000000  0.4729590000000 1.0
C      1  0.5377620000000  0.4833010000000  0.4754490000000 1.0
C      1  0.3984470000000  0.5880530000000  0.4310940000000 1.0
C      1  0.4509790000000  0.4432260000000  0.4604450000000 1.0
C      1  0.4225000000000  0.5878970000000  0.4411480000000 1.0
C      1  0.4681360000000  0.5079070000000  0.5729940000000 1.0
C      1  0.5457460000000  0.5437300000000  0.5356890000000 1.0
C      1  0.4806950000000  0.4723700000000  0.5198130000000 1.0
C      1  0.4441600000000  0.5144460000000  0.5630450000000 1.0
C      1  0.5803500000000  0.4747920000000  0.4986090000000 1.0
C      1  0.4929750000000  0.4695830000000  0.4920110000000 1.0
C      1  0.4282680000000  0.5191830000000  0.5419790000000 1.0
C      1  0.5374740000000  0.5395720000000  0.4393890000000 1.0
C      1  0.5299140000000  0.5125630000000  0.4335620000000 1.0
C      1  0.5179550000000  0.4977420000000  0.4126340000000 1.0
C      1  0.4273050000000  0.4425920000000  0.4465630000000 1.0
C      1  0.5891410000000  0.4615430000000  0.5198970000000 1.0
C      1  0.4853280000000  0.4585860000000  0.4262580000000 1.0
C      1  0.5069100000000  0.5553530000000  0.4751120000000 1.0
C      1  0.4522110000000  0.4972360000000  0.4761460000000 1.0
C      1  0.5252730000000  0.4644560000000  0.5804100000000 1.0
C      1  0.5530590000000  0.5443990000000  0.4869540000000 1.0
END
