TITL C-2323479-8056-147 -0.00103601594390671 125000 -363.858981582484 0 0 60 (C1) n - 1
REM
REM in /home/bkarasulu/CARBON/AIRSS/Generating-Clusters/LCBOP/Higher-Symm/Only-C60/SD-CG/FIRE-HFTN
REM
REM
REM
REM
REM
REM ./C.cell (50c204cfd26239f34c78669fe23a5462)
REM
REM compiler GCC version 9.2.1 20190827 (Red Hat 9.2.1-1)
REM options -cpp -mtune=generic -march=x86-64 -g -O0 -fpre-include=/usr/include/finclude/math-vector-fortran.h
REM seed 1102552423 1410297704 -1877329511 -253195569 -222451298 -849739989 2068322162 -2030281917 -1635101304 1037469916 945787603 -1017529595 672212729 626086317 191157314 -923029164 -1297908761 -1277929546 1218147830 -1822171932 -830212748 -1692591474 -306604509 1622255127 -1882405437 -2000264793 201442492 -1512490187 1684593094 -1660936221 493222307 1962176183 -971053478
REM
CELL 1.54180   50.00000   50.00000   50.00000   90.00000   90.00000   90.00000
LATT -1
SFAC C  
C      1  0.4699160000000  0.5105520000000  0.4456430000000 1.0
C      1  0.5515500000000  0.5078490000000  0.5483670000000 1.0
C      1  0.5799230000000  0.3976440000000  0.4708430000000 1.0
C      1  0.4148370000000  0.4759600000000  0.5414440000000 1.0
C      1  0.5547430000000  0.4836450000000  0.5335120000000 1.0
C      1  0.4049760000000  0.4347970000000  0.4517330000000 1.0
C      1  0.4464570000000  0.5702180000000  0.5143610000000 1.0
C      1  0.5268570000000  0.5665040000000  0.5114490000000 1.0
C      1  0.4391840000000  0.5115850000000  0.4865380000000 1.0
C      1  0.5362770000000  0.5393030000000  0.5113630000000 1.0
C      1  0.4572770000000  0.5228500000000  0.4692090000000 1.0
C      1  0.5326280000000  0.5270560000000  0.5381830000000 1.0
C      1  0.4842210000000  0.5414100000000  0.4057300000000 1.0
C      1  0.5796470000000  0.5175040000000  0.5938340000000 1.0
C      1  0.4226450000000  0.4909930000000  0.4950810000000 1.0
C      1  0.5981150000000  0.4306420000000  0.4987080000000 1.0
C      1  0.5170290000000  0.4556910000000  0.5207050000000 1.0
C      1  0.4840640000000  0.4604810000000  0.4551190000000 1.0
C      1  0.5122080000000  0.5720840000000  0.4628780000000 1.0
C      1  0.4630190000000  0.5533610000000  0.5582150000000 1.0
C      1  0.4867780000000  0.5842910000000  0.5306990000000 1.0
C      1  0.4870180000000  0.5868320000000  0.5008570000000 1.0
C      1  0.4287850000000  0.4635190000000  0.4902700000000 1.0
C      1  0.5741570000000  0.4463770000000  0.5009190000000 1.0
C      1  0.4944170000000  0.4516140000000  0.5035400000000 1.0
C      1  0.5011560000000  0.4493050000000  0.4757950000000 1.0
C      1  0.4852380000000  0.5488200000000  0.3807680000000 1.0
C      1  0.5930890000000  0.5221830000000  0.6156760000000 1.0
C      1  0.5101100000000  0.5680460000000  0.5363210000000 1.0
C      1  0.4644000000000  0.5700830000000  0.4915540000000 1.0
C      1  0.4607570000000  0.5743190000000  0.5394340000000 1.0
C      1  0.5130910000000  0.5804230000000  0.4899580000000 1.0
C      1  0.5525280000000  0.4379690000000  0.4814720000000 1.0
C      1  0.4439100000000  0.4523950000000  0.5123480000000 1.0
C      1  0.5329650000000  0.4806760000000  0.4676180000000 1.0
C      1  0.4751080000000  0.4847120000000  0.5314970000000 1.0
C      1  0.5659850000000  0.5127480000000  0.5716400000000 1.0
C      1  0.4834890000000  0.5336610000000  0.4321260000000 1.0
C      1  0.4708060000000  0.4614570000000  0.5152770000000 1.0
C      1  0.5300530000000  0.4527200000000  0.4711570000000 1.0
C      1  0.5080520000000  0.5403750000000  0.5477930000000 1.0
C      1  0.4709160000000  0.5480810000000  0.4749620000000 1.0
C      1  0.4805960000000  0.5315670000000  0.5512290000000 1.0
C      1  0.4968390000000  0.5471870000000  0.4568840000000 1.0
C      1  0.4196090000000  0.4978150000000  0.5239770000000 1.0
C      1  0.6009390000000  0.4072520000000  0.4851710000000 1.0
C      1  0.4407750000000  0.5162300000000  0.5266270000000 1.0
C      1  0.5316750000000  0.5225310000000  0.4895330000000 1.0
C      1  0.5354650000000  0.4943400000000  0.4927660000000 1.0
C      1  0.5147240000000  0.4979270000000  0.4532140000000 1.0
C      1  0.5225950000000  0.4378070000000  0.5406470000000 1.0
C      1  0.4676800000000  0.4445250000000  0.4401680000000 1.0
C      1  0.4181850000000  0.4485950000000  0.4694680000000 1.0
C      1  0.5739750000000  0.4654180000000  0.5226200000000 1.0
C      1  0.5569320000000  0.4120890000000  0.4698330000000 1.0
C      1  0.4279770000000  0.4524390000000  0.5362760000000 1.0
C      1  0.5166440000000  0.5250030000000  0.4649390000000 1.0
C      1  0.4667170000000  0.5109330000000  0.5368530000000 1.0
C      1  0.4878950000000  0.4883200000000  0.4488760000000 1.0
C      1  0.5323960000000  0.4792870000000  0.5163250000000 1.0
END
