TITL C-2323481-8605-227 0.00256451328776205 125000 -364.126489561322 0 0 60 (C1) n - 1
REM
REM in /home/bkarasulu/CARBON/AIRSS/Generating-Clusters/LCBOP/Higher-Symm/Only-C60/SD-CG/FIRE-HFTN
REM
REM
REM
REM
REM
REM ./C.cell (50c204cfd26239f34c78669fe23a5462)
REM
REM compiler GCC version 9.2.1 20190827 (Red Hat 9.2.1-1)
REM options -cpp -mtune=generic -march=x86-64 -g -O0 -fpre-include=/usr/include/finclude/math-vector-fortran.h
REM seed -833057161 -1158929329 -854175343 304810330 -1838359651 -401906693 1698927116 -123768188 -1424306260 7787625 -920276090 -1502119530 1328900561 -1262423619 -1146566590 1795743008 1552003397 -597600516 1544931666 1361964949 -1764793693 -1734239034 -1089391586 -1815114611 697603908 354135704 -2131260756 -811910169 581635287 -334385343 1023318714 1286605168 670495063
REM
CELL 1.54180   50.00000   50.00000   50.00000   90.00000   90.00000   90.00000
LATT -1
SFAC C  
C      1  0.3865810000000  0.5400340000000  0.4972780000000 1.0
C      1  0.5850410000000  0.5882340000000  0.4890330000000 1.0
C      1  0.5397390000000  0.3790590000000  0.4862840000000 1.0
C      1  0.4483370000000  0.5254700000000  0.5386040000000 1.0
C      1  0.5468050000000  0.5431400000000  0.5368020000000 1.0
C      1  0.5060890000000  0.4271760000000  0.5342150000000 1.0
C      1  0.5019740000000  0.5547380000000  0.5503420000000 1.0
C      1  0.5301220000000  0.4650790000000  0.5522110000000 1.0
C      1  0.4571710000000  0.4805180000000  0.5545780000000 1.0
C      1  0.5071550000000  0.3786580000000  0.5288620000000 1.0
C      1  0.4145170000000  0.5608160000000  0.5381720000000 1.0
C      1  0.5923050000000  0.5606250000000  0.5344590000000 1.0
C      1  0.5416530000000  0.5000750000000  0.4544040000000 1.0
C      1  0.4726250000000  0.4610960000000  0.4511110000000 1.0
C      1  0.4803260000000  0.5326710000000  0.4508180000000 1.0
C      1  0.5503290000000  0.4299810000000  0.4555130000000 1.0
C      1  0.4132300000000  0.4982900000000  0.4611890000000 1.0
C      1  0.5372880000000  0.5743900000000  0.4528640000000 1.0
C      1  0.5167350000000  0.5586920000000  0.4921130000000 1.0
C      1  0.5351400000000  0.4533450000000  0.4935150000000 1.0
C      1  0.4416930000000  0.4896140000000  0.4978230000000 1.0
C      1  0.3772650000000  0.5623660000000  0.5096830000000 1.0
C      1  0.6089530000000  0.5899410000000  0.5018540000000 1.0
C      1  0.5318950000000  0.3551950000000  0.4966790000000 1.0
C      1  0.3914840000000  0.5729580000000  0.5303290000000 1.0
C      1  0.6126670000000  0.5758520000000  0.5248330000000 1.0
C      1  0.5152850000000  0.3549930000000  0.5182300000000 1.0
C      1  0.5318540000000  0.4048420000000  0.4957270000000 1.0
C      1  0.4107810000000  0.5263530000000  0.5036930000000 1.0
C      1  0.5627720000000  0.5723580000000  0.4972380000000 1.0
C      1  0.5090250000000  0.5194980000000  0.5184520000000 1.0
C      1  0.4977540000000  0.4715470000000  0.5173640000000 1.0
C      1  0.4865190000000  0.4996450000000  0.5189970000000 1.0
C      1  0.4726620000000  0.5176010000000  0.4715100000000 1.0
C      1  0.5304990000000  0.5147970000000  0.4736200000000 1.0
C      1  0.4923410000000  0.4600020000000  0.4690550000000 1.0
C      1  0.5147080000000  0.4046580000000  0.5196900000000 1.0
C      1  0.4255500000000  0.5370290000000  0.5268220000000 1.0
C      1  0.5663080000000  0.5579960000000  0.5228230000000 1.0
C      1  0.5397700000000  0.5706690000000  0.4807290000000 1.0
C      1  0.5401010000000  0.4280440000000  0.4817040000000 1.0
C      1  0.4197730000000  0.5046930000000  0.4878420000000 1.0
C      1  0.4428530000000  0.4626070000000  0.5399930000000 1.0
C      1  0.4915890000000  0.5731230000000  0.5331790000000 1.0
C      1  0.5525690000000  0.4699520000000  0.5376430000000 1.0
C      1  0.4492490000000  0.4690700000000  0.4408900000000 1.0
C      1  0.4963240000000  0.5491910000000  0.4371220000000 1.0
C      1  0.5501120000000  0.4784120000000  0.4412840000000 1.0
C      1  0.4668950000000  0.5042250000000  0.5420750000000 1.0
C      1  0.5198200000000  0.5349420000000  0.5402770000000 1.0
C      1  0.5069470000000  0.4550500000000  0.5390590000000 1.0
C      1  0.5539980000000  0.4651840000000  0.5110080000000 1.0
C      1  0.4373060000000  0.4667680000000  0.5138260000000 1.0
C      1  0.4978870000000  0.5737730000000  0.5068320000000 1.0
C      1  0.5081680000000  0.4629670000000  0.4919940000000 1.0
C      1  0.4674950000000  0.5021160000000  0.4944800000000 1.0
C      1  0.5174750000000  0.5299820000000  0.4932550000000 1.0
C      1  0.4265570000000  0.4831180000000  0.4433490000000 1.0
C      1  0.5180980000000  0.5648720000000  0.4364220000000 1.0
C      1  0.5538370000000  0.4519040000000  0.4402520000000 1.0
END
