TITL C-2323480-5884-339 6166.10566716676 125000 -325.073181335396 0 0 60 (S4) n - 1
REM
REM in /home/bkarasulu/CARBON/AIRSS/Generating-Clusters/LCBOP/Higher-Symm/Only-C60/SD-CG/FIRE-HFTN
REM
REM
REM
REM
REM
REM ./C.cell (50c204cfd26239f34c78669fe23a5462)
REM
REM compiler GCC version 9.2.1 20190827 (Red Hat 9.2.1-1)
REM options -cpp -mtune=generic -march=x86-64 -g -O0 -fpre-include=/usr/include/finclude/math-vector-fortran.h
REM seed -1123476321 1449698235 2077138294 477898976 -1242702066 1208827204 205112961 1680477963 -796690965 141685069 -838683425 -246937736 1513072534 -109811344 -128700629 763285808 271697060 1314015971 25833174 -1537329539 -1719511667 -612070486 -121530397 1971592949 1252928148 -317187148 -481810708 763297806 241976483 1648752853 -974603704 -2040514572 -476650896
REM
CELL 1.54180   50.00000   50.00000   50.00000   90.00000   90.00000   90.00000
LATT -1
SFAC C  
C      1  0.5135970000000  0.4785030000000  0.5552680000000 1.0
C      1  0.5273620000000  0.4849630000000  0.4386880000000 1.0
C      1  0.5310880000000  0.5017760000000  0.5596830000000 1.0
C      1  0.5215230000000  0.5136050000000  0.4447440000000 1.0
C      1  0.5150090000000  0.5273530000000  0.5613230000000 1.0
C      1  0.4982510000000  0.5310970000000  0.4403200000000 1.0
C      1  0.4863690000000  0.5215140000000  0.5552530000000 1.0
C      1  0.4726750000000  0.5150190000000  0.4386670000000 1.0
C      1  0.4688760000000  0.4982420000000  0.5596650000000 1.0
C      1  0.4785110000000  0.4863770000000  0.4447350000000 1.0
C      1  0.4849530000000  0.4726660000000  0.5613220000000 1.0
C      1  0.5017860000000  0.4688850000000  0.4403310000000 1.0
C      1  0.5113610000000  0.4364810000000  0.5152260000000 1.0
C      1  0.5355910000000  0.4477150000000  0.4769180000000 1.0
C      1  0.5641740000000  0.4706420000000  0.4999510000000 1.0
C      1  0.5635260000000  0.5113640000000  0.4848060000000 1.0
C      1  0.5522750000000  0.5355870000000  0.5231120000000 1.0
C      1  0.5293570000000  0.5641740000000  0.5000720000000 1.0
C      1  0.4886300000000  0.5635240000000  0.5151990000000 1.0
C      1  0.4644230000000  0.5522780000000  0.4768800000000 1.0
C      1  0.4358260000000  0.5293580000000  0.4999020000000 1.0
C      1  0.4364830000000  0.4886320000000  0.4847700000000 1.0
C      1  0.4477110000000  0.4644200000000  0.5230910000000 1.0
C      1  0.4706420000000  0.4358260000000  0.5000740000000 1.0
C      1  0.4846280000000  0.5307150000000  0.5275450000000 1.0
C      1  0.4805210000000  0.5189570000000  0.4845140000000 1.0
C      1  0.4699440000000  0.5155180000000  0.5096000000000 1.0
C      1  0.4692980000000  0.4846320000000  0.4724380000000 1.0
C      1  0.4810360000000  0.4805190000000  0.5154740000000 1.0
C      1  0.4844870000000  0.4699450000000  0.4903890000000 1.0
C      1  0.5153550000000  0.4692930000000  0.5275640000000 1.0
C      1  0.5194880000000  0.4810380000000  0.4845320000000 1.0
C      1  0.5300500000000  0.4844850000000  0.5096230000000 1.0
C      1  0.5307190000000  0.5153590000000  0.4724520000000 1.0
C      1  0.5189540000000  0.5194860000000  0.5154790000000 1.0
C      1  0.5155190000000  0.5300520000000  0.4903890000000 1.0
C      1  0.5555610000000  0.5580440000000  0.5066650000000 1.0
C      1  0.5141360000000  0.5687170000000  0.5243050000000 1.0
C      1  0.4869630000000  0.5661730000000  0.4788050000000 1.0
C      1  0.4419590000000  0.5555620000000  0.4933170000000 1.0
C      1  0.4312940000000  0.5141400000000  0.4756650000000 1.0
C      1  0.4338170000000  0.4869600000000  0.5211620000000 1.0
C      1  0.4444350000000  0.4419580000000  0.5066480000000 1.0
C      1  0.4858490000000  0.4312900000000  0.5243180000000 1.0
C      1  0.5130500000000  0.4338210000000  0.4788330000000 1.0
C      1  0.5580450000000  0.4444360000000  0.4933700000000 1.0
C      1  0.5687210000000  0.4858520000000  0.4757120000000 1.0
C      1  0.5661700000000  0.5130470000000  0.5211990000000 1.0
C      1  0.4290880000000  0.5782580000000  0.5002760000000 1.0
C      1  0.4451590000000  0.5210500000000  0.4499800000000 1.0
C      1  0.4420310000000  0.5008480000000  0.5460780000000 1.0
C      1  0.4217430000000  0.4290880000000  0.4996770000000 1.0
C      1  0.4789270000000  0.4451520000000  0.5500020000000 1.0
C      1  0.4991730000000  0.4420380000000  0.4539120000000 1.0
C      1  0.5709120000000  0.4217420000000  0.5003440000000 1.0
C      1  0.5548710000000  0.4789340000000  0.4500200000000 1.0
C      1  0.5579410000000  0.4991660000000  0.5461140000000 1.0
C      1  0.5782580000000  0.5709120000000  0.4997030000000 1.0
C      1  0.5210430000000  0.5548640000000  0.5499980000000 1.0
C      1  0.5008560000000  0.5579480000000  0.4538950000000 1.0
END
