TITL C-2323492-8884-410 9497.17930299012 125000 -351.681467660445 0 0 60 (C1) n - 1
REM
REM in /home/bkarasulu/CARBON/AIRSS/Generating-Clusters/LCBOP/Higher-Symm/Only-C60/SD-CG/FIRE-HFTN
REM
REM
REM
REM
REM
REM ./C.cell (50c204cfd26239f34c78669fe23a5462)
REM
REM compiler GCC version 9.2.1 20190827 (Red Hat 9.2.1-1)
REM options -cpp -mtune=generic -march=x86-64 -g -O0 -fpre-include=/usr/include/finclude/math-vector-fortran.h
REM seed -104145937 1758729433 795458878 1641498152 311526809 2055116436 579059852 1919360578 1220586866 -1997228168 -1884596157 -1685838212 1722280270 -751725375 2000908250 -3066429 -561563165 721312694 -1688264546 -2005904184 1075068588 2143885643 1532930036 771520151 1294115724 849372210 -720059144 1891490074 -1856527368 -61572597 961044108 1467660188 319601749
REM
CELL 1.54180   50.00000   50.00000   50.00000   90.00000   90.00000   90.00000
LATT -1
SFAC C  
C      1  0.4614550000000  0.4974850000000  0.5107100000000 1.0
C      1  0.5230450000000  0.4983390000000  0.5256920000000 1.0
C      1  0.5158710000000  0.5034240000000  0.4693830000000 1.0
C      1  0.4551700000000  0.4693890000000  0.5681580000000 1.0
C      1  0.5807080000000  0.4732140000000  0.5054100000000 1.0
C      1  0.4549850000000  0.4722930000000  0.4369310000000 1.0
C      1  0.4803510000000  0.4637910000000  0.4303570000000 1.0
C      1  0.4430980000000  0.4546850000000  0.5485600000000 1.0
C      1  0.5700840000000  0.4571270000000  0.5246600000000 1.0
C      1  0.5326380000000  0.4569840000000  0.4857390000000 1.0
C      1  0.4764870000000  0.4605170000000  0.4812250000000 1.0
C      1  0.4952000000000  0.4553690000000  0.5347770000000 1.0
C      1  0.4244150000000  0.5281800000000  0.5152720000000 1.0
C      1  0.5411660000000  0.5223470000000  0.5630870000000 1.0
C      1  0.5354410000000  0.5228220000000  0.4302570000000 1.0
C      1  0.5456130000000  0.4424360000000  0.5269780000000 1.0
C      1  0.5009840000000  0.4497190000000  0.4450080000000 1.0
C      1  0.4529630000000  0.4421770000000  0.5247740000000 1.0
C      1  0.5243810000000  0.5793600000000  0.5172180000000 1.0
C      1  0.5109850000000  0.5797520000000  0.4682430000000 1.0
C      1  0.4758320000000  0.5851390000000  0.5041600000000 1.0
C      1  0.4332430000000  0.5035170000000  0.5034270000000 1.0
C      1  0.5228970000000  0.5017850000000  0.5549830000000 1.0
C      1  0.5392930000000  0.5048900000000  0.4521160000000 1.0
C      1  0.4796490000000  0.4313540000000  0.5290070000000 1.0
C      1  0.5369300000000  0.4325710000000  0.5009490000000 1.0
C      1  0.4867660000000  0.4374180000000  0.4672140000000 1.0
C      1  0.4514120000000  0.5731920000000  0.5117150000000 1.0
C      1  0.5397650000000  0.5681170000000  0.5382110000000 1.0
C      1  0.5164280000000  0.5692430000000  0.4425010000000 1.0
C      1  0.4923530000000  0.5358040000000  0.5309000000000 1.0
C      1  0.5398720000000  0.5460940000000  0.4854300000000 1.0
C      1  0.4650640000000  0.5302400000000  0.4720990000000 1.0
C      1  0.5642570000000  0.5080760000000  0.4677660000000 1.0
C      1  0.4287120000000  0.5015650000000  0.4731640000000 1.0
C      1  0.4955490000000  0.5039460000000  0.5666910000000 1.0
C      1  0.5107870000000  0.5220130000000  0.5145100000000 1.0
C      1  0.5194110000000  0.5261620000000  0.4882860000000 1.0
C      1  0.4750150000000  0.5085270000000  0.4876180000000 1.0
C      1  0.5265520000000  0.4556590000000  0.4573760000000 1.0
C      1  0.4536190000000  0.4535900000000  0.4981970000000 1.0
C      1  0.5225720000000  0.4503380000000  0.5424120000000 1.0
C      1  0.5295290000000  0.5721150000000  0.4894780000000 1.0
C      1  0.4848880000000  0.5868610000000  0.4771550000000 1.0
C      1  0.4977160000000  0.5884090000000  0.5221910000000 1.0
C      1  0.4910410000000  0.4878850000000  0.4756620000000 1.0
C      1  0.4793710000000  0.4800310000000  0.5267460000000 1.0
C      1  0.5301710000000  0.4794380000000  0.5048980000000 1.0
C      1  0.4844490000000  0.5282370000000  0.5558110000000 1.0
C      1  0.5647840000000  0.5351200000000  0.4778880000000 1.0
C      1  0.4392220000000  0.5270600000000  0.4636330000000 1.0
C      1  0.4336650000000  0.5535790000000  0.5166590000000 1.0
C      1  0.5457670000000  0.5476670000000  0.5546690000000 1.0
C      1  0.5256920000000  0.5480160000000  0.4287440000000 1.0
C      1  0.5214770000000  0.4102280000000  0.4979280000000 1.0
C      1  0.4913690000000  0.4131640000000  0.4786630000000 1.0
C      1  0.4899620000000  0.4097320000000  0.5158780000000 1.0
C      1  0.5777540000000  0.4884080000000  0.4831830000000 1.0
C      1  0.4355780000000  0.4807880000000  0.4543570000000 1.0
C      1  0.4765460000000  0.4846100000000  0.5752830000000 1.0
END
