TITL C-2323488-8613-473 6.92262650157729e-05 125000 -361.737173219464 0 0 60 (C6) n - 1
REM
REM in /home/bkarasulu/CARBON/AIRSS/Generating-Clusters/LCBOP/Higher-Symm/Only-C60/SD-CG/FIRE-HFTN
REM
REM
REM
REM
REM
REM ./C.cell (50c204cfd26239f34c78669fe23a5462)
REM
REM compiler GCC version 9.2.1 20190827 (Red Hat 9.2.1-1)
REM options -cpp -mtune=generic -march=x86-64 -g -O0 -fpre-include=/usr/include/finclude/math-vector-fortran.h
REM seed -195363984 182105793 822090877 -906452013 1052822421 -1997328638 1076238053 -1207282847 -1309005375 -1054429547 1435706852 381633166 1837073822 -468534310 -713276659 1319675399 1966343915 423318752 650892921 1178090291 -1050462610 -617555581 -1655138265 2111028758 -201413669 -93556884 -1937785980 520803646 -1089238545 172274187 2054581940 1596209956 1863766443
REM
CELL 1.54180   50.00000   50.00000   50.00000   90.00000   90.00000   90.00000
LATT -1
SFAC C  
C      1  0.4724020000000  0.4819360000000  0.5229050000000 1.0
C      1  0.4724030000000  0.5108040000000  0.5270980000000 1.0
C      1  0.4724020000000  0.5288690000000  0.5041940000000 1.0
C      1  0.4724010000000  0.5180660000000  0.4770970000000 1.0
C      1  0.4724000000000  0.4891980000000  0.4729040000000 1.0
C      1  0.4724000000000  0.4711330000000  0.4958090000000 1.0
C      1  0.5275970000000  0.4819340000000  0.4770950000000 1.0
C      1  0.5275980000000  0.5108020000000  0.4729020000000 1.0
C      1  0.5276000000000  0.5288670000000  0.4958060000000 1.0
C      1  0.5276000000000  0.5180640000000  0.5229030000000 1.0
C      1  0.5275990000000  0.4891960000000  0.5270960000000 1.0
C      1  0.5275980000000  0.4711310000000  0.5041920000000 1.0
C      1  0.4874000000000  0.5333280000000  0.4572100000000 1.0
C      1  0.4873980000000  0.4796060000000  0.4497430000000 1.0
C      1  0.4873990000000  0.4462790000000  0.4925340000000 1.0
C      1  0.4874010000000  0.4666730000000  0.5427910000000 1.0
C      1  0.4874040000000  0.5203950000000  0.5502580000000 1.0
C      1  0.4874030000000  0.5537220000000  0.5074670000000 1.0
C      1  0.5126020000000  0.5333270000000  0.5427900000000 1.0
C      1  0.5126010000000  0.4796060000000  0.5502570000000 1.0
C      1  0.5125980000000  0.4462780000000  0.5074670000000 1.0
C      1  0.5125960000000  0.4666720000000  0.4572090000000 1.0
C      1  0.5125980000000  0.5203940000000  0.4497420000000 1.0
C      1  0.5126010000000  0.5537210000000  0.4925320000000 1.0
C      1  0.4725640000000  0.4229400000000  0.5621860000000 1.0
C      1  0.4725690000000  0.5153240000000  0.5978300000000 1.0
C      1  0.4725690000000  0.5923850000000  0.5356450000000 1.0
C      1  0.4725640000000  0.5770620000000  0.4378160000000 1.0
C      1  0.4725600000000  0.4846780000000  0.4021720000000 1.0
C      1  0.4725600000000  0.4076170000000  0.4643570000000 1.0
C      1  0.5274310000000  0.4229380000000  0.4378140000000 1.0
C      1  0.5274320000000  0.5153220000000  0.4021700000000 1.0
C      1  0.5274380000000  0.5923830000000  0.4643540000000 1.0
C      1  0.5274410000000  0.5770600000000  0.5621830000000 1.0
C      1  0.5274390000000  0.4846760000000  0.5978280000000 1.0
C      1  0.5274340000000  0.4076150000000  0.5356440000000 1.0
C      1  0.4890630000000  0.4384070000000  0.5463190000000 1.0
C      1  0.4890660000000  0.5093170000000  0.5765010000000 1.0
C      1  0.4890660000000  0.5709100000000  0.5301820000000 1.0
C      1  0.4890630000000  0.5615940000000  0.4536820000000 1.0
C      1  0.4890590000000  0.4906840000000  0.4235000000000 1.0
C      1  0.4890590000000  0.4290900000000  0.4698190000000 1.0
C      1  0.5109330000000  0.4384060000000  0.4536810000000 1.0
C      1  0.5109340000000  0.5093160000000  0.4234990000000 1.0
C      1  0.5109380000000  0.5709090000000  0.4698170000000 1.0
C      1  0.5109410000000  0.5615930000000  0.5463180000000 1.0
C      1  0.5109400000000  0.4906830000000  0.5765000000000 1.0
C      1  0.5109360000000  0.4290900000000  0.5301820000000 1.0
C      1  0.4571500000000  0.4790890000000  0.3819140000000 1.0
C      1  0.4571500000000  0.3872780000000  0.4590690000000 1.0
C      1  0.4571550000000  0.4081910000000  0.5771560000000 1.0
C      1  0.4571610000000  0.5209140000000  0.6180890000000 1.0
C      1  0.4571610000000  0.6127250000000  0.5409350000000 1.0
C      1  0.4571550000000  0.5918120000000  0.4228470000000 1.0
C      1  0.5428490000000  0.4790870000000  0.6180860000000 1.0
C      1  0.5428420000000  0.3872760000000  0.5409320000000 1.0
C      1  0.5428380000000  0.4081880000000  0.4228440000000 1.0
C      1  0.5428410000000  0.5209100000000  0.3819110000000 1.0
C      1  0.5428470000000  0.6127210000000  0.4590650000000 1.0
C      1  0.5428510000000  0.5918100000000  0.5771520000000 1.0
END
