TITL C-2323492-8884-73 0.000371500608544079 125000 -362.721048589926 0 0 60 (C1) n - 1
REM
REM in /home/bkarasulu/CARBON/AIRSS/Generating-Clusters/LCBOP/Higher-Symm/Only-C60/SD-CG/FIRE-HFTN
REM
REM
REM
REM
REM
REM ./C.cell (50c204cfd26239f34c78669fe23a5462)
REM
REM compiler GCC version 9.2.1 20190827 (Red Hat 9.2.1-1)
REM options -cpp -mtune=generic -march=x86-64 -g -O0 -fpre-include=/usr/include/finclude/math-vector-fortran.h
REM seed 2008619313 1932062388 -1969374336 1981334860 2137900290 811813664 -98212150 -1343102781 2144253692 795921644 -1351756385 2044894361 1795942965 -1747553274 1138823904 1013228661 -1242289925 -1462271207 642715193 60738324 -63203815 -886019861 216519008 -793497090 -1917189010 -1812812580 -1491153493 -2112151455 -518336491 1411134960 1056653667 1145219024 -980940949
REM
CELL 1.54180   50.00000   50.00000   50.00000   90.00000   90.00000   90.00000
LATT -1
SFAC C  
C      1  0.5378410000000  0.5240280000000  0.4470330000000 1.0
C      1  0.5224880000000  0.5606630000000  0.5524670000000 1.0
C      1  0.4870120000000  0.4846520000000  0.4996840000000 1.0
C      1  0.5081280000000  0.5170580000000  0.5854050000000 1.0
C      1  0.4402240000000  0.5078750000000  0.4532000000000 1.0
C      1  0.4514260000000  0.5023680000000  0.5723190000000 1.0
C      1  0.4782840000000  0.5620480000000  0.4323450000000 1.0
C      1  0.4822730000000  0.4940540000000  0.4315200000000 1.0
C      1  0.5676350000000  0.5115970000000  0.5296380000000 1.0
C      1  0.5313280000000  0.4720930000000  0.5886130000000 1.0
C      1  0.4873000000000  0.4580470000000  0.5025530000000 1.0
C      1  0.4999950000000  0.5100130000000  0.5021470000000 1.0
C      1  0.5723360000000  0.4872760000000  0.5431840000000 1.0
C      1  0.4781570000000  0.5416820000000  0.4127570000000 1.0
C      1  0.4515420000000  0.5440860000000  0.5459930000000 1.0
C      1  0.5192300000000  0.4170800000000  0.4398020000000 1.0
C      1  0.5396740000000  0.5385770000000  0.5545660000000 1.0
C      1  0.5347520000000  0.4530740000000  0.4706020000000 1.0
C      1  0.5392210000000  0.4559050000000  0.5660020000000 1.0
C      1  0.5164250000000  0.4929240000000  0.5989140000000 1.0
C      1  0.5217170000000  0.4345560000000  0.5586670000000 1.0
C      1  0.4587410000000  0.5295940000000  0.5705640000000 1.0
C      1  0.4815280000000  0.5309860000000  0.5087250000000 1.0
C      1  0.4754340000000  0.4033030000000  0.4230640000000 1.0
C      1  0.5123890000000  0.4941950000000  0.5457040000000 1.0
C      1  0.5244450000000  0.5151750000000  0.5605790000000 1.0
C      1  0.5230970000000  0.4763890000000  0.4573950000000 1.0
C      1  0.4846590000000  0.5157000000000  0.4141670000000 1.0
C      1  0.5269300000000  0.5103880000000  0.4923140000000 1.0
C      1  0.5507820000000  0.5117760000000  0.5070260000000 1.0
C      1  0.5575290000000  0.4633700000000  0.5443270000000 1.0
C      1  0.4893960000000  0.4805540000000  0.5499130000000 1.0
C      1  0.5338320000000  0.4478690000000  0.4988880000000 1.0
C      1  0.4952700000000  0.5538050000000  0.5546150000000 1.0
C      1  0.5538500000000  0.4514590000000  0.5184850000000 1.0
C      1  0.4593630000000  0.3856060000000  0.4126840000000 1.0
C      1  0.4585370000000  0.5287190000000  0.4926080000000 1.0
C      1  0.5377730000000  0.4303480000000  0.4540110000000 1.0
C      1  0.5033080000000  0.5646720000000  0.4451380000000 1.0
C      1  0.4869290000000  0.5359790000000  0.5777860000000 1.0
C      1  0.4779230000000  0.5468600000000  0.5323480000000 1.0
C      1  0.5081950000000  0.4410220000000  0.5103140000000 1.0
C      1  0.4430600000000  0.5305370000000  0.4694830000000 1.0
C      1  0.5867810000000  0.5516220000000  0.5507860000000 1.0
C      1  0.5300830000000  0.5031660000000  0.4647900000000 1.0
C      1  0.4366120000000  0.5577260000000  0.4633270000000 1.0
C      1  0.4831190000000  0.4485140000000  0.4403510000000 1.0
C      1  0.4552720000000  0.4875610000000  0.4413900000000 1.0
C      1  0.4652260000000  0.4818150000000  0.5615550000000 1.0
C      1  0.4296570000000  0.5564530000000  0.5336540000000 1.0
C      1  0.4921800000000  0.4225470000000  0.4341880000000 1.0
C      1  0.5087740000000  0.4285370000000  0.5356990000000 1.0
C      1  0.4206460000000  0.5679420000000  0.5110660000000 1.0
C      1  0.5246790000000  0.5489290000000  0.4489640000000 1.0
C      1  0.5003690000000  0.4727780000000  0.4401920000000 1.0
C      1  0.4538950000000  0.5696140000000  0.4444370000000 1.0
C      1  0.4562260000000  0.4588190000000  0.4436400000000 1.0
C      1  0.4229340000000  0.5708300000000  0.4843500000000 1.0
C      1  0.5659080000000  0.5351020000000  0.5454170000000 1.0
C      1  0.5576850000000  0.5200840000000  0.4286480000000 1.0
END
