TITL C-2323491-8878-402 5.34795466991042e-06 125000 -349.888671722852 0 0 60 (D2d) n - 1
REM
REM in /home/bkarasulu/CARBON/AIRSS/Generating-Clusters/LCBOP/Higher-Symm/Only-C60/SD-CG/FIRE-HFTN
REM
REM
REM
REM
REM
REM ./C.cell (50c204cfd26239f34c78669fe23a5462)
REM
REM compiler GCC version 9.2.1 20190827 (Red Hat 9.2.1-1)
REM options -cpp -mtune=generic -march=x86-64 -g -O0 -fpre-include=/usr/include/finclude/math-vector-fortran.h
REM seed 262529557 -48155181 -1856804351 236948664 -1322456991 -2126535184 284176182 744498102 -1985478805 852143197 -1243340594 705461623 -1058168015 -1351291902 -70327692 593857512 1009439131 868818455 1534015206 948681096 377650892 -1823773921 108669086 -55838974 988201508 -1179639007 -1737580224 -239957341 112946785 90075987 -795882448 -235756708 2025891687
REM
CELL 1.54180   50.00000   50.00000   50.00000   90.00000   90.00000   90.00000
LATT -1
SFAC C  
C      1  0.5626090000000  0.4581930000000  0.4790630000000 1.0
C      1  0.4373910000000  0.5418070000000  0.4790630000000 1.0
C      1  0.5626100000000  0.5418070000000  0.5209370000000 1.0
C      1  0.4373910000000  0.4581930000000  0.5209370000000 1.0
C      1  0.4581930000000  0.5626100000000  0.4790630000000 1.0
C      1  0.5418070000000  0.4373910000000  0.4790630000000 1.0
C      1  0.5418070000000  0.5626090000000  0.5209370000000 1.0
C      1  0.4581930000000  0.4373910000000  0.5209370000000 1.0
C      1  0.5579690000000  0.5228320000000  0.5414750000000 1.0
C      1  0.4420320000000  0.4771680000000  0.5414760000000 1.0
C      1  0.5579680000000  0.4771680000000  0.4585240000000 1.0
C      1  0.4420310000000  0.5228330000000  0.4585250000000 1.0
C      1  0.5228330000000  0.5579680000000  0.5414760000000 1.0
C      1  0.4771680000000  0.4420310000000  0.5414750000000 1.0
C      1  0.4771680000000  0.5579690000000  0.4585250000000 1.0
C      1  0.5228320000000  0.4420320000000  0.4585240000000 1.0
C      1  0.5288210000000  0.5719280000000  0.4967240000000 1.0
C      1  0.4711790000000  0.4280720000000  0.4967230000000 1.0
C      1  0.5288200000000  0.4280720000000  0.5032760000000 1.0
C      1  0.4711800000000  0.5719280000000  0.5032770000000 1.0
C      1  0.5719280000000  0.5288200000000  0.4967240000000 1.0
C      1  0.4280720000000  0.4711800000000  0.4967240000000 1.0
C      1  0.4280720000000  0.5288210000000  0.5032770000000 1.0
C      1  0.5719280000000  0.4711790000000  0.5032760000000 1.0
C      1  0.5285390000000  0.5094670000000  0.4366570000000 1.0
C      1  0.4714610000000  0.4905340000000  0.4366570000000 1.0
C      1  0.5285390000000  0.4905330000000  0.5633430000000 1.0
C      1  0.4714610000000  0.5094670000000  0.5633430000000 1.0
C      1  0.5094670000000  0.5285390000000  0.4366570000000 1.0
C      1  0.4905330000000  0.4714610000000  0.4366570000000 1.0
C      1  0.4905340000000  0.5285390000000  0.5633430000000 1.0
C      1  0.5094670000000  0.4714610000000  0.5633430000000 1.0
C      1  0.4910350000000  0.5315480000000  0.4596980000000 1.0
C      1  0.5089650000000  0.4684520000000  0.4596980000000 1.0
C      1  0.4910350000000  0.4684520000000  0.5403020000000 1.0
C      1  0.5089650000000  0.5315480000000  0.5403020000000 1.0
C      1  0.5315480000000  0.4910350000000  0.4596980000000 1.0
C      1  0.4684520000000  0.5089650000000  0.4596980000000 1.0
C      1  0.4684520000000  0.4910350000000  0.5403020000000 1.0
C      1  0.5315480000000  0.5089640000000  0.5403020000000 1.0
C      1  0.4557540000000  0.4362270000000  0.4739150000000 1.0
C      1  0.5442460000000  0.5637730000000  0.4739150000000 1.0
C      1  0.4557550000000  0.5637730000000  0.5260850000000 1.0
C      1  0.5442460000000  0.4362270000000  0.5260850000000 1.0
C      1  0.4362270000000  0.4557550000000  0.4739150000000 1.0
C      1  0.5637730000000  0.5442460000000  0.4739150000000 1.0
C      1  0.5637730000000  0.4557540000000  0.5260850000000 1.0
C      1  0.4362270000000  0.5442460000000  0.5260850000000 1.0
C      1  0.5270740000000  0.5064080000000  0.4866290000000 1.0
C      1  0.4729260000000  0.4935920000000  0.4866290000000 1.0
C      1  0.5270740000000  0.4935910000000  0.5133710000000 1.0
C      1  0.4729260000000  0.5064080000000  0.5133710000000 1.0
C      1  0.5064080000000  0.5270740000000  0.4866290000000 1.0
C      1  0.4935920000000  0.4729260000000  0.4866290000000 1.0
C      1  0.4935920000000  0.5270740000000  0.5133710000000 1.0
C      1  0.5064080000000  0.4729260000000  0.5133710000000 1.0
C      1  0.5000000000000  0.4218310000000  0.5000000000000 1.0
C      1  0.5000000000000  0.5781690000000  0.5000000000000 1.0
C      1  0.4218310000000  0.5000000000000  0.5000000000000 1.0
C      1  0.5781690000000  0.5000000000000  0.5000000000000 1.0
END
