TITL C-2323492-8884-437 3.32810441649508e-05 125000 -352.580868045281 0 0 60 (C1) n - 1
REM
REM in /home/bkarasulu/CARBON/AIRSS/Generating-Clusters/LCBOP/Higher-Symm/Only-C60/SD-CG/FIRE-HFTN
REM
REM
REM
REM
REM
REM ./C.cell (50c204cfd26239f34c78669fe23a5462)
REM
REM compiler GCC version 9.2.1 20190827 (Red Hat 9.2.1-1)
REM options -cpp -mtune=generic -march=x86-64 -g -O0 -fpre-include=/usr/include/finclude/math-vector-fortran.h
REM seed 1343465394 238138000 702495048 -979782919 156994025 -36589436 1161460103 -807425512 154994458 -2077231 -451154930 -1353975852 -342331840 973704361 835694511 1220649847 495839138 923381168 1409338770 -358191492 -1478993820 277238318 1421941109 -868784448 -1200344869 -938183946 -1049109954 435436916 -1708015567 428857247 -89696815 -960812669 957114275
REM
CELL 1.54180   50.00000   50.00000   50.00000   90.00000   90.00000   90.00000
LATT -1
SFAC C  
C      1  0.5506370000000  0.4817240000000  0.4430450000000 1.0
C      1  0.4178230000000  0.5278830000000  0.5184710000000 1.0
C      1  0.5594260000000  0.4598600000000  0.5698470000000 1.0
C      1  0.5674880000000  0.5543380000000  0.4893970000000 1.0
C      1  0.5343730000000  0.5878460000000  0.5112430000000 1.0
C      1  0.4659820000000  0.4683380000000  0.5483680000000 1.0
C      1  0.5445640000000  0.4825780000000  0.5294650000000 1.0
C      1  0.5132560000000  0.5572920000000  0.4597220000000 1.0
C      1  0.4639330000000  0.5379170000000  0.4966050000000 1.0
C      1  0.4893970000000  0.4626980000000  0.4560240000000 1.0
C      1  0.5166920000000  0.4907720000000  0.4878110000000 1.0
C      1  0.4738600000000  0.5314590000000  0.4708990000000 1.0
C      1  0.4875540000000  0.5849560000000  0.5396050000000 1.0
C      1  0.5398980000000  0.4942150000000  0.5045520000000 1.0
C      1  0.5741540000000  0.4393790000000  0.4979450000000 1.0
C      1  0.4849770000000  0.4540360000000  0.5043250000000 1.0
C      1  0.5318800000000  0.4376290000000  0.4468370000000 1.0
C      1  0.5638420000000  0.4792010000000  0.4691440000000 1.0
C      1  0.4872880000000  0.4568550000000  0.5327210000000 1.0
C      1  0.5252660000000  0.4945640000000  0.5706800000000 1.0
C      1  0.5257880000000  0.5353410000000  0.5418530000000 1.0
C      1  0.4466860000000  0.4502630000000  0.5580410000000 1.0
C      1  0.5529670000000  0.5420550000000  0.5441970000000 1.0
C      1  0.4621350000000  0.4954840000000  0.5551670000000 1.0
C      1  0.4306760000000  0.4817020000000  0.4738850000000 1.0
C      1  0.4576140000000  0.5451500000000  0.5601560000000 1.0
C      1  0.5301070000000  0.4449040000000  0.4749410000000 1.0
C      1  0.5017320000000  0.5333510000000  0.4660250000000 1.0
C      1  0.5775500000000  0.5462520000000  0.5518120000000 1.0
C      1  0.5570410000000  0.4537670000000  0.4823330000000 1.0
C      1  0.5548790000000  0.5764740000000  0.4978960000000 1.0
C      1  0.5160860000000  0.5089910000000  0.4653060000000 1.0
C      1  0.4284230000000  0.4332050000000  0.5654280000000 1.0
C      1  0.5627110000000  0.5013670000000  0.4877390000000 1.0
C      1  0.4465190000000  0.5190250000000  0.5570410000000 1.0
C      1  0.4372410000000  0.5020680000000  0.4580020000000 1.0
C      1  0.5299550000000  0.5015060000000  0.4410110000000 1.0
C      1  0.4580730000000  0.4088220000000  0.4591900000000 1.0
C      1  0.4215390000000  0.5187810000000  0.5435870000000 1.0
C      1  0.4658040000000  0.4231270000000  0.4376290000000 1.0
C      1  0.4578810000000  0.5193780000000  0.4503520000000 1.0
C      1  0.4572480000000  0.4174330000000  0.4847570000000 1.0
C      1  0.4596650000000  0.4435630000000  0.4951140000000 1.0
C      1  0.5165870000000  0.5081310000000  0.4171050000000 1.0
C      1  0.4775580000000  0.4473650000000  0.4374830000000 1.0
C      1  0.4819850000000  0.6091730000000  0.5506150000000 1.0
C      1  0.5063100000000  0.4418300000000  0.5456200000000 1.0
C      1  0.5158040000000  0.5180180000000  0.5616080000000 1.0
C      1  0.4681750000000  0.5192640000000  0.4241110000000 1.0
C      1  0.4360740000000  0.5368270000000  0.5009590000000 1.0
C      1  0.5117520000000  0.5780130000000  0.5245680000000 1.0
C      1  0.5444200000000  0.4563100000000  0.4309520000000 1.0
C      1  0.4912210000000  0.5147400000000  0.4111190000000 1.0
C      1  0.5435090000000  0.4779250000000  0.5571440000000 1.0
C      1  0.5094190000000  0.5484170000000  0.5228570000000 1.0
C      1  0.5050310000000  0.4628180000000  0.4827310000000 1.0
C      1  0.5712690000000  0.5279520000000  0.4864160000000 1.0
C      1  0.4390420000000  0.4618250000000  0.4895090000000 1.0
C      1  0.4809520000000  0.5446810000000  0.5183170000000 1.0
C      1  0.4702810000000  0.5611630000000  0.5407140000000 1.0
END
