TITL C-2323487-9546-374 6.64006406785155e-06 125000 -366.858932128126 0 0 60 (C1) n - 1
REM
REM in /home/bkarasulu/CARBON/AIRSS/Generating-Clusters/LCBOP/Higher-Symm/Only-C60/SD-CG/FIRE-HFTN
REM
REM
REM
REM
REM
REM ./C.cell (50c204cfd26239f34c78669fe23a5462)
REM
REM compiler GCC version 9.2.1 20190827 (Red Hat 9.2.1-1)
REM options -cpp -mtune=generic -march=x86-64 -g -O0 -fpre-include=/usr/include/finclude/math-vector-fortran.h
REM seed 882452072 1624787786 -1602519184 23573454 1721210411 816936760 136785807 955623049 821101553 -167350094 -130230243 1440761347 48551810 -224588820 -855260378 2010940589 57644160 975431247 208065418 -1712870568 601127713 1117589849 1154313793 -1903192129 48828917 -2143116552 -269636761 1237791943 168800567 -1802948772 -2024934507 -388789977 381245642
REM
CELL 1.54180   50.00000   50.00000   50.00000   90.00000   90.00000   90.00000
LATT -1
SFAC C  
C      1  0.5415320000000  0.5709900000000  0.4616010000000 1.0
C      1  0.4426950000000  0.5755820000000  0.4810690000000 1.0
C      1  0.5114360000000  0.5799810000000  0.5499240000000 1.0
C      1  0.5122760000000  0.4523060000000  0.4519700000000 1.0
C      1  0.4501140000000  0.4487520000000  0.5127830000000 1.0
C      1  0.5343470000000  0.4485510000000  0.5352070000000 1.0
C      1  0.5476820000000  0.4426010000000  0.4874880000000 1.0
C      1  0.4646430000000  0.4409790000000  0.4628270000000 1.0
C      1  0.4848120000000  0.4410670000000  0.5479650000000 1.0
C      1  0.4886080000000  0.4875040000000  0.4284770000000 1.0
C      1  0.4437250000000  0.4840350000000  0.5468240000000 1.0
C      1  0.5687920000000  0.4828680000000  0.5268870000000 1.0
C      1  0.4367020000000  0.4738320000000  0.5207580000000 1.0
C      1  0.5496410000000  0.4714930000000  0.5454290000000 1.0
C      1  0.5138030000000  0.4755350000000  0.4345520000000 1.0
C      1  0.4455970000000  0.4538880000000  0.4460830000000 1.0
C      1  0.4800990000000  0.4518210000000  0.5738440000000 1.0
C      1  0.5727140000000  0.4533570000000  0.4795030000000 1.0
C      1  0.5740880000000  0.4818110000000  0.4764780000000 1.0
C      1  0.4418200000000  0.4822160000000  0.4477120000000 1.0
C      1  0.4838140000000  0.4799510000000  0.5776030000000 1.0
C      1  0.5424480000000  0.5507600000000  0.5239160000000 1.0
C      1  0.4948230000000  0.5492670000000  0.4596570000000 1.0
C      1  0.4648470000000  0.5468610000000  0.5171390000000 1.0
C      1  0.5118270000000  0.4872140000000  0.5808600000000 1.0
C      1  0.5616210000000  0.4913070000000  0.4520910000000 1.0
C      1  0.4266570000000  0.4907720000000  0.4710850000000 1.0
C      1  0.5592140000000  0.5647190000000  0.4806370000000 1.0
C      1  0.4508710000000  0.5690290000000  0.4563290000000 1.0
C      1  0.4877220000000  0.5681850000000  0.5540040000000 1.0
C      1  0.4753670000000  0.5272860000000  0.4992950000000 1.0
C      1  0.5269680000000  0.5281030000000  0.5297530000000 1.0
C      1  0.4973700000000  0.5310230000000  0.4814370000000 1.0
C      1  0.5236100000000  0.4848510000000  0.4845540000000 1.0
C      1  0.4775490000000  0.4785360000000  0.4890430000000 1.0
C      1  0.5017890000000  0.4823580000000  0.5277480000000 1.0
C      1  0.4627260000000  0.4982730000000  0.4350770000000 1.0
C      1  0.4636230000000  0.4963210000000  0.5638880000000 1.0
C      1  0.5751950000000  0.4961240000000  0.5019000000000 1.0
C      1  0.4717230000000  0.5469060000000  0.5448620000000 1.0
C      1  0.5618260000000  0.5482630000000  0.5032170000000 1.0
C      1  0.4692390000000  0.5499190000000  0.4468460000000 1.0
C      1  0.5179700000000  0.5035000000000  0.5381170000000 1.0
C      1  0.5167790000000  0.5106080000000  0.4815570000000 1.0
C      1  0.4635940000000  0.5021710000000  0.4968520000000 1.0
C      1  0.5319130000000  0.4901500000000  0.5603500000000 1.0
C      1  0.5397270000000  0.4883770000000  0.4357810000000 1.0
C      1  0.4358660000000  0.4933340000000  0.4982750000000 1.0
C      1  0.4667620000000  0.5242170000000  0.5607810000000 1.0
C      1  0.5765020000000  0.5242710000000  0.5019240000000 1.0
C      1  0.4605590000000  0.5263610000000  0.4342100000000 1.0
C      1  0.4484940000000  0.5667200000000  0.5057160000000 1.0
C      1  0.5342720000000  0.5742880000000  0.5369140000000 1.0
C      1  0.5167790000000  0.5653340000000  0.4532760000000 1.0
C      1  0.5061840000000  0.4544510000000  0.5343720000000 1.0
C      1  0.5259470000000  0.4574800000000  0.4763830000000 1.0
C      1  0.4655620000000  0.4524900000000  0.4888770000000 1.0
C      1  0.5445760000000  0.4331700000000  0.5138900000000 1.0
C      1  0.4900320000000  0.4349810000000  0.4517710000000 1.0
C      1  0.4625240000000  0.4329010000000  0.5326290000000 1.0
END
