TITL C-2323480-5884-168 4.12010690133441 125000 -349.581532677105 0 0 60 (C1) n - 1
REM
REM in /home/bkarasulu/CARBON/AIRSS/Generating-Clusters/LCBOP/Higher-Symm/Only-C60/SD-CG/FIRE-HFTN
REM
REM
REM
REM
REM
REM ./C.cell (50c204cfd26239f34c78669fe23a5462)
REM
REM compiler GCC version 9.2.1 20190827 (Red Hat 9.2.1-1)
REM options -cpp -mtune=generic -march=x86-64 -g -O0 -fpre-include=/usr/include/finclude/math-vector-fortran.h
REM seed -745941018 611578833 1084239403 -1447307429 -257288578 1002160114 -471422558 459078151 -1848999559 1396966254 1704078693 -1573172175 141594889 835768838 74270757 -227533863 1795342714 337765062 1394722678 -788890262 -1736380356 -278880218 -68169729 -72418238 -395332888 666768718 870625233 -1245082289 -1772706552 -2086322322 -1935210005 -1969627805 -1443827596
REM
CELL 1.54180   50.00000   50.00000   50.00000   90.00000   90.00000   90.00000
LATT -1
SFAC C  
C      1  0.3727860000000  0.5141190000000  0.3998680000000 1.0
C      1  0.6084870000000  0.5247100000000  0.6276960000000 1.0
C      1  0.4463730000000  0.4879390000000  0.3685590000000 1.0
C      1  0.5341220000000  0.4754450000000  0.6271950000000 1.0
C      1  0.5866390000000  0.5051990000000  0.5840840000000 1.0
C      1  0.4129740000000  0.4981910000000  0.4297170000000 1.0
C      1  0.4453060000000  0.4614770000000  0.3695730000000 1.0
C      1  0.5385290000000  0.4493620000000  0.6255970000000 1.0
C      1  0.5494390000000  0.4204180000000  0.5455530000000 1.0
C      1  0.4659060000000  0.4173860000000  0.4554540000000 1.0
C      1  0.4448280000000  0.4354770000000  0.3746760000000 1.0
C      1  0.5428520000000  0.4236940000000  0.6206210000000 1.0
C      1  0.4445910000000  0.4640860000000  0.4431220000000 1.0
C      1  0.5664650000000  0.4682130000000  0.5602470000000 1.0
C      1  0.4454280000000  0.3856230000000  0.3913160000000 1.0
C      1  0.5510020000000  0.3743120000000  0.6045730000000 1.0
C      1  0.4475750000000  0.5140340000000  0.3730530000000 1.0
C      1  0.5303000000000  0.5015200000000  0.6243840000000 1.0
C      1  0.4866420000000  0.5416450000000  0.4831030000000 1.0
C      1  0.5272760000000  0.5426720000000  0.5133840000000 1.0
C      1  0.4449690000000  0.4101400000000  0.3824650000000 1.0
C      1  0.5470140000000  0.3985990000000  0.6131690000000 1.0
C      1  0.5768510000000  0.6220130000000  0.5209600000000 1.0
C      1  0.4342630000000  0.6141070000000  0.5074290000000 1.0
C      1  0.5379370000000  0.3997710000000  0.5335600000000 1.0
C      1  0.4789410000000  0.3975360000000  0.4672270000000 1.0
C      1  0.5295280000000  0.5680960000000  0.5839590000000 1.0
C      1  0.4534440000000  0.5744310000000  0.4215720000000 1.0
C      1  0.4481110000000  0.5997210000000  0.4906840000000 1.0
C      1  0.5585140000000  0.6046690000000  0.5274520000000 1.0
C      1  0.4681620000000  0.5262650000000  0.4691480000000 1.0
C      1  0.5465160000000  0.5283260000000  0.5274110000000 1.0
C      1  0.3921650000000  0.5059870000000  0.4152900000000 1.0
C      1  0.5984010000000  0.5149210000000  0.6057420000000 1.0
C      1  0.5606660000000  0.5133940000000  0.5440840000000 1.0
C      1  0.4520010000000  0.5101700000000  0.4557000000000 1.0
C      1  0.5329740000000  0.5808080000000  0.5609600000000 1.0
C      1  0.4579290000000  0.5833530000000  0.4461210000000 1.0
C      1  0.5281590000000  0.5266750000000  0.6163100000000 1.0
C      1  0.4487170000000  0.5382550000000  0.3837640000000 1.0
C      1  0.5713440000000  0.4956010000000  0.5627870000000 1.0
C      1  0.4365140000000  0.4908250000000  0.4428040000000 1.0
C      1  0.5590740000000  0.4434340000000  0.5544870000000 1.0
C      1  0.4543650000000  0.4398310000000  0.4473640000000 1.0
C      1  0.4932630000000  0.3809570000000  0.4821260000000 1.0
C      1  0.5248870000000  0.3821830000000  0.5186510000000 1.0
C      1  0.5388630000000  0.5859950000000  0.5341270000000 1.0
C      1  0.4639920000000  0.5846420000000  0.4733670000000 1.0
C      1  0.4862530000000  0.5702180000000  0.4834450000000 1.0
C      1  0.5255370000000  0.5712140000000  0.5138940000000 1.0
C      1  0.5279690000000  0.5494360000000  0.6027240000000 1.0
C      1  0.4504320000000  0.5589070000000  0.4002950000000 1.0
C      1  0.5197030000000  0.6342780000000  0.4765130000000 1.0
C      1  0.5074250000000  0.5299930000000  0.4980370000000 1.0
C      1  0.5106310000000  0.3396440000000  0.5004490000000 1.0
C      1  0.5245570000000  0.6585810000000  0.4684260000000 1.0
C      1  0.5115980000000  0.3135990000000  0.5004880000000 1.0
C      1  0.5095950000000  0.3675510000000  0.5004080000000 1.0
C      1  0.5151360000000  0.6096670000000  0.4851870000000 1.0
C      1  0.5089070000000  0.5840290000000  0.4943720000000 1.0
END
