TITL C-2323486-8761-66 0.0217582685936347 125000 -360.030457899737 0 0 60 (C1) n - 1
REM
REM in /home/bkarasulu/CARBON/AIRSS/Generating-Clusters/LCBOP/Higher-Symm/Only-C60/SD-CG/FIRE-HFTN
REM
REM
REM
REM
REM
REM ./C.cell (50c204cfd26239f34c78669fe23a5462)
REM
REM compiler GCC version 9.2.1 20190827 (Red Hat 9.2.1-1)
REM options -cpp -mtune=generic -march=x86-64 -g -O0 -fpre-include=/usr/include/finclude/math-vector-fortran.h
REM seed -2004087945 1902959398 1242825540 1080442362 977071590 1199807554 380456906 518654043 1454879062 -627313185 -343379839 633247178 2000242896 1593372033 733592704 950817448 -692143423 -1448295624 1625419504 1484646917 -393112351 -106571277 598212517 -1827754749 650237615 687256553 1419595327 -25817556 -292205088 -1430756885 1809010920 1680684002 -1009566118
REM
CELL 1.54180   50.00000   50.00000   50.00000   90.00000   90.00000   90.00000
LATT -1
SFAC C  
C      1  0.4772530000000  0.4699500000000  0.4890780000000 1.0
C      1  0.4633770000000  0.4981370000000  0.5458240000000 1.0
C      1  0.5407510000000  0.4288330000000  0.5732760000000 1.0
C      1  0.5354010000000  0.4950400000000  0.4202370000000 1.0
C      1  0.5060790000000  0.4836360000000  0.5866060000000 1.0
C      1  0.5225170000000  0.4648810000000  0.5463320000000 1.0
C      1  0.4776250000000  0.5265230000000  0.4416490000000 1.0
C      1  0.5698680000000  0.4546510000000  0.5097720000000 1.0
C      1  0.4346950000000  0.4755120000000  0.4348800000000 1.0
C      1  0.4530320000000  0.4573780000000  0.4966520000000 1.0
C      1  0.5742940000000  0.5685330000000  0.4850280000000 1.0
C      1  0.5209810000000  0.4596470000000  0.4557080000000 1.0
C      1  0.4117270000000  0.4055040000000  0.6010710000000 1.0
C      1  0.4986410000000  0.5409410000000  0.4505990000000 1.0
C      1  0.5883150000000  0.5465960000000  0.4917110000000 1.0
C      1  0.5450240000000  0.5209180000000  0.4162620000000 1.0
C      1  0.5593310000000  0.5346450000000  0.4372220000000 1.0
C      1  0.5189930000000  0.4889880000000  0.5616800000000 1.0
C      1  0.4394400000000  0.4972630000000  0.4506580000000 1.0
C      1  0.4236430000000  0.5248600000000  0.5265440000000 1.0
C      1  0.5010680000000  0.4584180000000  0.5005610000000 1.0
C      1  0.5102400000000  0.5348410000000  0.4742630000000 1.0
C      1  0.5478020000000  0.5770160000000  0.4168770000000 1.0
C      1  0.5319240000000  0.5902370000000  0.4746560000000 1.0
C      1  0.4393860000000  0.4399560000000  0.5438590000000 1.0
C      1  0.5396910000000  0.5640950000000  0.3943980000000 1.0
C      1  0.4378940000000  0.5651060000000  0.5031500000000 1.0
C      1  0.5230400000000  0.4535670000000  0.4830970000000 1.0
C      1  0.5487170000000  0.4480470000000  0.4926440000000 1.0
C      1  0.5431350000000  0.4466260000000  0.5527170000000 1.0
C      1  0.5263720000000  0.4742680000000  0.4341550000000 1.0
C      1  0.4186400000000  0.5127130000000  0.4613520000000 1.0
C      1  0.5093390000000  0.5114780000000  0.5458550000000 1.0
C      1  0.5889230000000  0.4735180000000  0.5020980000000 1.0
C      1  0.5543110000000  0.5755210000000  0.4664290000000 1.0
C      1  0.4758140000000  0.4733990000000  0.5388020000000 1.0
C      1  0.5887130000000  0.5212050000000  0.4795150000000 1.0
C      1  0.4846560000000  0.4683590000000  0.5928880000000 1.0
C      1  0.5952480000000  0.4975120000000  0.4925640000000 1.0
C      1  0.5002650000000  0.4609610000000  0.5289640000000 1.0
C      1  0.4805200000000  0.4968490000000  0.4801620000000 1.0
C      1  0.5133600000000  0.5133840000000  0.5176660000000 1.0
C      1  0.5016250000000  0.5141610000000  0.4917430000000 1.0
C      1  0.5549420000000  0.5632310000000  0.4406740000000 1.0
C      1  0.5660350000000  0.4474150000000  0.5365360000000 1.0
C      1  0.4408050000000  0.4457920000000  0.5176810000000 1.0
C      1  0.4438230000000  0.4384200000000  0.5718030000000 1.0
C      1  0.3963750000000  0.3897590000000  0.6150740000000 1.0
C      1  0.4586990000000  0.5810880000000  0.4987750000000 1.0
C      1  0.5769490000000  0.5207760000000  0.4539780000000 1.0
C      1  0.4825020000000  0.5179760000000  0.5529910000000 1.0
C      1  0.4127290000000  0.5304640000000  0.4803080000000 1.0
C      1  0.5073730000000  0.5948770000000  0.4838070000000 1.0
C      1  0.4228130000000  0.5415100000000  0.5040060000000 1.0
C      1  0.5383460000000  0.5369660000000  0.3938280000000 1.0
C      1  0.4639430000000  0.4529790000000  0.5854460000000 1.0
C      1  0.4273280000000  0.4215050000000  0.5868410000000 1.0
C      1  0.4375160000000  0.5065580000000  0.5400390000000 1.0
C      1  0.4823670000000  0.5912540000000  0.4921440000000 1.0
C      1  0.4657840000000  0.5057570000000  0.4568640000000 1.0
END
