TITL C-2323491-8878-32 1.93507192880093 125000 -307.213976106815 0 0 60 (C1) n - 1
REM
REM in /home/bkarasulu/CARBON/AIRSS/Generating-Clusters/LCBOP/Higher-Symm/Only-C60/SD-CG/FIRE-HFTN
REM
REM
REM
REM
REM
REM ./C.cell (50c204cfd26239f34c78669fe23a5462)
REM
REM compiler GCC version 9.2.1 20190827 (Red Hat 9.2.1-1)
REM options -cpp -mtune=generic -march=x86-64 -g -O0 -fpre-include=/usr/include/finclude/math-vector-fortran.h
REM seed -1059041948 -501411420 -635321017 -734239814 -688603611 590099046 675473708 2034372049 1456389252 -1966726312 334817339 -629933473 -245282040 -1392593756 -884493277 321742495 207349503 2096739075 1009125237 1453466335 -1630306757 -741834144 618889446 -381857107 1073013935 -236232776 1421253188 -1330864605 2048391799 -1670698120 77006599 -2140942115 -611290751
REM
CELL 1.54180   50.00000   50.00000   50.00000   90.00000   90.00000   90.00000
LATT -1
SFAC C  
C      1  0.4778260000000  0.5029560000000  0.4766910000000 1.0
C      1  0.4780740000000  0.5241630000000  0.4951020000000 1.0
C      1  0.4779440000000  0.5133430000000  0.5208030000000 1.0
C      1  0.4777480000000  0.4853600000000  0.5198040000000 1.0
C      1  0.4776780000000  0.4794180000000  0.4921980000000 1.0
C      1  0.5210590000000  0.5026990000000  0.4767040000000 1.0
C      1  0.5209520000000  0.4792940000000  0.4922720000000 1.0
C      1  0.5209980000000  0.4848990000000  0.5197420000000 1.0
C      1  0.5212190000000  0.5126040000000  0.5210860000000 1.0
C      1  0.5213520000000  0.5234610000000  0.4956630000000 1.0
C      1  0.4990850000000  0.4529950000000  0.5946000000000 1.0
C      1  0.4755420000000  0.4243850000000  0.5353550000000 1.0
C      1  0.4985410000000  0.4835450000000  0.3974630000000 1.0
C      1  0.4758340000000  0.5415990000000  0.4270600000000 1.0
C      1  0.4761750000000  0.5834530000000  0.5188570000000 1.0
C      1  0.5001770000000  0.5000230000000  0.5866830000000 1.0
C      1  0.5233170000000  0.5843060000000  0.5184700000000 1.0
C      1  0.5227190000000  0.5411720000000  0.4261240000000 1.0
C      1  0.4989220000000  0.4505190000000  0.4318150000000 1.0
C      1  0.5225100000000  0.4241530000000  0.5348060000000 1.0
C      1  0.4450970000000  0.5331480000000  0.5423570000000 1.0
C      1  0.4407220000000  0.4739430000000  0.5453160000000 1.0
C      1  0.4443660000000  0.4508550000000  0.4878000000000 1.0
C      1  0.4405780000000  0.4966520000000  0.4504950000000 1.0
C      1  0.4429880000000  0.5479880000000  0.4810870000000 1.0
C      1  0.5578570000000  0.4735740000000  0.5447650000000 1.0
C      1  0.5537660000000  0.5331770000000  0.5413910000000 1.0
C      1  0.5551830000000  0.5475900000000  0.4799330000000 1.0
C      1  0.5577280000000  0.4960330000000  0.4496930000000 1.0
C      1  0.5531080000000  0.4504060000000  0.4870500000000 1.0
C      1  0.5671670000000  0.5173330000000  0.5206200000000 1.0
C      1  0.5683880000000  0.4871790000000  0.5221340000000 1.0
C      1  0.5673220000000  0.4751360000000  0.4945930000000 1.0
C      1  0.5687350000000  0.4983840000000  0.4758300000000 1.0
C      1  0.5677720000000  0.5240850000000  0.4912080000000 1.0
C      1  0.4300550000000  0.4875930000000  0.5228820000000 1.0
C      1  0.4315390000000  0.5176370000000  0.5215410000000 1.0
C      1  0.4307750000000  0.5244520000000  0.4922600000000 1.0
C      1  0.4297090000000  0.4989580000000  0.4766920000000 1.0
C      1  0.4308240000000  0.4757260000000  0.4953690000000 1.0
C      1  0.5296150000000  0.5402030000000  0.5535380000000 1.0
C      1  0.5358350000000  0.4662850000000  0.5559910000000 1.0
C      1  0.5302890000000  0.4382720000000  0.4815300000000 1.0
C      1  0.5355640000000  0.4951800000000  0.4365400000000 1.0
C      1  0.5327090000000  0.5597110000000  0.4746300000000 1.0
C      1  0.4629540000000  0.4668610000000  0.5561470000000 1.0
C      1  0.4695060000000  0.5397890000000  0.5542920000000 1.0
C      1  0.4650470000000  0.5603610000000  0.4749890000000 1.0
C      1  0.4624760000000  0.4956170000000  0.4368220000000 1.0
C      1  0.4685640000000  0.4381970000000  0.4818010000000 1.0
C      1  0.4991190000000  0.4384950000000  0.5369550000000 1.0
C      1  0.4993130000000  0.5292310000000  0.4343300000000 1.0
C      1  0.4998540000000  0.5731220000000  0.5095050000000 1.0
C      1  0.4988430000000  0.4758650000000  0.4232400000000 1.0
C      1  0.4995100000000  0.4745520000000  0.5785360000000 1.0
C      1  0.4988350000000  0.5296280000000  0.5436660000000 1.0
C      1  0.5002130000000  0.5520660000000  0.4891740000000 1.0
C      1  0.4985650000000  0.4522540000000  0.4835300000000 1.0
C      1  0.4993360000000  0.4674330000000  0.5431210000000 1.0
C      1  0.4993830000000  0.5026750000000  0.4473460000000 1.0
END
