TITL C-2323477-5056-581 0.000152943759285309 125000 -350.144399794001 0 0 60 (C1) n - 1
REM
REM in /home/bkarasulu/CARBON/AIRSS/Generating-Clusters/LCBOP/Higher-Symm/Only-C60/SD-CG/FIRE-HFTN
REM
REM
REM
REM
REM
REM ./C.cell (50c204cfd26239f34c78669fe23a5462)
REM
REM compiler GCC version 9.2.1 20190827 (Red Hat 9.2.1-1)
REM options -cpp -mtune=generic -march=x86-64 -g -O0 -fpre-include=/usr/include/finclude/math-vector-fortran.h
REM seed -829433917 979181683 -339251263 1494624040 4499552 -168851719 1744785484 597449157 1016348661 1485696585 1343350416 -585112235 -128731517 -1543187975 1745760768 -1451743211 553962317 -624825518 2024350763 643442040 -1202328489 -967622188 -543341801 -1546582080 -1010717024 1076419234 1107476670 -721762474 297340339 -699255052 1945496183 -2029549799 910325578
REM
CELL 1.54180   50.00000   50.00000   50.00000   90.00000   90.00000   90.00000
LATT -1
SFAC C  
C      1  0.5246470000000  0.5716310000000  0.5352560000000 1.0
C      1  0.5257410000000  0.5712480000000  0.4646080000000 1.0
C      1  0.4589950000000  0.4178750000000  0.4728990000000 1.0
C      1  0.4755700000000  0.4092800000000  0.5284130000000 1.0
C      1  0.5351300000000  0.5849680000000  0.4864270000000 1.0
C      1  0.5346980000000  0.5851410000000  0.5135960000000 1.0
C      1  0.4612380000000  0.5175130000000  0.5121710000000 1.0
C      1  0.4615290000000  0.5174200000000  0.4860280000000 1.0
C      1  0.4913420000000  0.5314260000000  0.4430700000000 1.0
C      1  0.4897000000000  0.5318840000000  0.5560160000000 1.0
C      1  0.5849200000000  0.4784490000000  0.4681120000000 1.0
C      1  0.5840810000000  0.4790700000000  0.5344680000000 1.0
C      1  0.4327150000000  0.4892240000000  0.4591920000000 1.0
C      1  0.4318150000000  0.4892550000000  0.5382250000000 1.0
C      1  0.5524680000000  0.4935570000000  0.5724530000000 1.0
C      1  0.5544100000000  0.4924880000000  0.4290830000000 1.0
C      1  0.5059610000000  0.4751140000000  0.4862960000000 1.0
C      1  0.5061750000000  0.4751950000000  0.5144250000000 1.0
C      1  0.4901120000000  0.4568980000000  0.4715850000000 1.0
C      1  0.4910800000000  0.4564880000000  0.5291980000000 1.0
C      1  0.5305580000000  0.5085960000000  0.5764350000000 1.0
C      1  0.5327320000000  0.5076290000000  0.4242820000000 1.0
C      1  0.4600770000000  0.3909420000000  0.5135710000000 1.0
C      1  0.4525070000000  0.3949120000000  0.4880070000000 1.0
C      1  0.5780780000000  0.5240460000000  0.4758640000000 1.0
C      1  0.5775240000000  0.5245460000000  0.5257130000000 1.0
C      1  0.5049600000000  0.5096230000000  0.4291450000000 1.0
C      1  0.5029340000000  0.5103850000000  0.5707250000000 1.0
C      1  0.4355350000000  0.5565820000000  0.4848090000000 1.0
C      1  0.4351440000000  0.5566390000000  0.5124590000000 1.0
C      1  0.4851650000000  0.4032890000000  0.5532260000000 1.0
C      1  0.4483830000000  0.4220270000000  0.4481220000000 1.0
C      1  0.5523300000000  0.5335760000000  0.5258300000000 1.0
C      1  0.5528700000000  0.5329710000000  0.4748720000000 1.0
C      1  0.5172860000000  0.4985020000000  0.4758220000000 1.0
C      1  0.5172050000000  0.4987860000000  0.5246710000000 1.0
C      1  0.4865890000000  0.5595780000000  0.4860270000000 1.0
C      1  0.4862190000000  0.5596650000000  0.5127240000000 1.0
C      1  0.4857550000000  0.4636790000000  0.5558600000000 1.0
C      1  0.4868950000000  0.4633450000000  0.4443720000000 1.0
C      1  0.4455960000000  0.5047540000000  0.4402530000000 1.0
C      1  0.4440520000000  0.5049490000000  0.5574530000000 1.0
C      1  0.5700120000000  0.4797350000000  0.5575510000000 1.0
C      1  0.5714700000000  0.4787880000000  0.4446500000000 1.0
C      1  0.4613340000000  0.5294220000000  0.4440300000000 1.0
C      1  0.4597620000000  0.5296980000000  0.5540890000000 1.0
C      1  0.5869400000000  0.4996360000000  0.5154060000000 1.0
C      1  0.5872780000000  0.4993590000000  0.4868700000000 1.0
C      1  0.4809400000000  0.4340340000000  0.5149610000000 1.0
C      1  0.4766610000000  0.4363060000000  0.4860480000000 1.0
C      1  0.4509420000000  0.5381880000000  0.4694840000000 1.0
C      1  0.4501250000000  0.5383340000000  0.5283040000000 1.0
C      1  0.5243240000000  0.5268610000000  0.4838020000000 1.0
C      1  0.5240240000000  0.5271110000000  0.5163960000000 1.0
C      1  0.4895880000000  0.4852240000000  0.5714720000000 1.0
C      1  0.4915650000000  0.4844880000000  0.4284530000000 1.0
C      1  0.5053470000000  0.5474570000000  0.5325410000000 1.0
C      1  0.5062760000000  0.5471680000000  0.4668950000000 1.0
C      1  0.4262150000000  0.4825080000000  0.5123050000000 1.0
C      1  0.4264740000000  0.4825400000000  0.4849830000000 1.0
END
