TITL C-2323490-8774-51 -0.00014563934406948 125000 -368.685828651861 0 0 60 (C1) n - 1
REM
REM in /home/bkarasulu/CARBON/AIRSS/Generating-Clusters/LCBOP/Higher-Symm/Only-C60/SD-CG/FIRE-HFTN
REM
REM
REM
REM
REM
REM ./C.cell (50c204cfd26239f34c78669fe23a5462)
REM
REM compiler GCC version 9.2.1 20190827 (Red Hat 9.2.1-1)
REM options -cpp -mtune=generic -march=x86-64 -g -O0 -fpre-include=/usr/include/finclude/math-vector-fortran.h
REM seed 1214108682 -536509213 -1568108058 1256799173 -703187387 -2144440180 2071439009 -14380908 626677384 1408867837 -1285442491 2142402508 -526286473 -227218864 -2086157262 -202870009 964931062 301019521 -1198233826 621196235 640749159 -427187507 644707681 2080112412 -671644901 1906203718 -1604660066 839646167 -1910897225 94256531 851254739 -633611859 1684375820
REM
CELL 1.54180   50.00000   50.00000   50.00000   90.00000   90.00000   90.00000
LATT -1
SFAC C  
C      1  0.4281260000000  0.4936530000000  0.5231150000000 1.0
C      1  0.5683190000000  0.4932030000000  0.4735600000000 1.0
C      1  0.4879720000000  0.5366240000000  0.4004790000000 1.0
C      1  0.5038660000000  0.5003290000000  0.5974210000000 1.0
C      1  0.5868380000000  0.5070470000000  0.4891450000000 1.0
C      1  0.4484800000000  0.4612830000000  0.4925240000000 1.0
C      1  0.4627190000000  0.5683010000000  0.4855330000000 1.0
C      1  0.5678180000000  0.4519280000000  0.6261490000000 1.0
C      1  0.5302540000000  0.5370210000000  0.5141040000000 1.0
C      1  0.4701710000000  0.4491380000000  0.4498050000000 1.0
C      1  0.5663350000000  0.5875290000000  0.4712540000000 1.0
C      1  0.4487240000000  0.4026320000000  0.5616180000000 1.0
C      1  0.5384130000000  0.4680650000000  0.5839850000000 1.0
C      1  0.4579200000000  0.5555130000000  0.4356790000000 1.0
C      1  0.4510110000000  0.4805420000000  0.5133210000000 1.0
C      1  0.5439170000000  0.4825860000000  0.4842770000000 1.0
C      1  0.4397680000000  0.5339270000000  0.4336150000000 1.0
C      1  0.5487450000000  0.4695680000000  0.5579960000000 1.0
C      1  0.4901910000000  0.5110910000000  0.5214320000000 1.0
C      1  0.5285480000000  0.4666910000000  0.4668940000000 1.0
C      1  0.4603450000000  0.4950130000000  0.4591000000000 1.0
C      1  0.5348300000000  0.4895090000000  0.5103260000000 1.0
C      1  0.5050450000000  0.5498200000000  0.4432500000000 1.0
C      1  0.4917130000000  0.4605460000000  0.5723760000000 1.0
C      1  0.4943930000000  0.4481040000000  0.4384010000000 1.0
C      1  0.4716530000000  0.5551980000000  0.5069490000000 1.0
C      1  0.5111180000000  0.4754040000000  0.5869450000000 1.0
C      1  0.4838310000000  0.5515460000000  0.4239790000000 1.0
C      1  0.4803640000000  0.4369980000000  0.5821860000000 1.0
C      1  0.5241500000000  0.5696490000000  0.4468070000000 1.0
C      1  0.4761330000000  0.4864370000000  0.5259070000000 1.0
C      1  0.4849500000000  0.5077660000000  0.4642640000000 1.0
C      1  0.5136880000000  0.4920570000000  0.4011530000000 1.0
C      1  0.4773150000000  0.5382080000000  0.5757180000000 1.0
C      1  0.5180940000000  0.5123130000000  0.5148670000000 1.0
C      1  0.4574240000000  0.4678020000000  0.4665010000000 1.0
C      1  0.4410610000000  0.5093920000000  0.4445710000000 1.0
C      1  0.5455030000000  0.4760600000000  0.5324560000000 1.0
C      1  0.4567160000000  0.5705630000000  0.4595540000000 1.0
C      1  0.5537630000000  0.4597010000000  0.6056260000000 1.0
C      1  0.4381130000000  0.4360280000000  0.4985680000000 1.0
C      1  0.5979940000000  0.5297890000000  0.4972250000000 1.0
C      1  0.4372830000000  0.4025140000000  0.5375740000000 1.0
C      1  0.5862890000000  0.5780010000000  0.4860500000000 1.0
C      1  0.5295300000000  0.4784920000000  0.4198890000000 1.0
C      1  0.4627230000000  0.5384200000000  0.5519030000000 1.0
C      1  0.5443000000000  0.5836380000000  0.4569210000000 1.0
C      1  0.4648200000000  0.4157600000000  0.5782810000000 1.0
C      1  0.5564150000000  0.4860590000000  0.4239810000000 1.0
C      1  0.4350530000000  0.5331110000000  0.5516790000000 1.0
C      1  0.5181360000000  0.4627140000000  0.4408960000000 1.0
C      1  0.4760280000000  0.5357160000000  0.5266610000000 1.0
C      1  0.4338020000000  0.4151370000000  0.5144120000000 1.0
C      1  0.5981710000000  0.5563840000000  0.4960740000000 1.0
C      1  0.4993600000000  0.5133280000000  0.3936910000000 1.0
C      1  0.4919090000000  0.5236290000000  0.5925650000000 1.0
C      1  0.4210610000000  0.5140860000000  0.5388960000000 1.0
C      1  0.5713210000000  0.4917260000000  0.4455480000000 1.0
C      1  0.5030100000000  0.5268850000000  0.4594360000000 1.0
C      1  0.4844540000000  0.4698290000000  0.5469080000000 1.0
END
