TITL C-2323479-8056-454 -8.43340189217937e-06 125000 -359.588158411484 0 0 60 (C2) n - 1
REM
REM in /home/bkarasulu/CARBON/AIRSS/Generating-Clusters/LCBOP/Higher-Symm/Only-C60/SD-CG/FIRE-HFTN
REM
REM
REM
REM
REM
REM ./C.cell (50c204cfd26239f34c78669fe23a5462)
REM
REM compiler GCC version 9.2.1 20190827 (Red Hat 9.2.1-1)
REM options -cpp -mtune=generic -march=x86-64 -g -O0 -fpre-include=/usr/include/finclude/math-vector-fortran.h
REM seed -2138870104 -1882480805 1738022443 271082901 -772991475 -140314379 117308166 171676608 1601050263 273119567 -181497723 -317679093 -1381846317 1137052554 1353400717 213189971 1258354043 -1355502628 -304645682 -1803140538 -1075415587 -1374532659 -118613072 1307315106 1344173233 -901237461 -281892739 -1986467851 1671447227 -1745846727 -1236688426 -2021601072 -787342763
REM
CELL 1.54180   50.00000   50.00000   50.00000   90.00000   90.00000   90.00000
LATT -1
SFAC C  
C      1  0.5218620000000  0.5967820000000  0.4132160000000 1.0
C      1  0.5206900000000  0.4045500000000  0.5890740000000 1.0
C      1  0.4793230000000  0.4045510000000  0.4109230000000 1.0
C      1  0.4781250000000  0.5967760000000  0.5867870000000 1.0
C      1  0.4351950000000  0.5196190000000  0.4677700000000 1.0
C      1  0.4348960000000  0.4799590000000  0.5327090000000 1.0
C      1  0.5651070000000  0.4799690000000  0.4672900000000 1.0
C      1  0.5648020000000  0.5196270000000  0.5322310000000 1.0
C      1  0.5751710000000  0.5327270000000  0.5090680000000 1.0
C      1  0.5765180000000  0.4670470000000  0.4900960000000 1.0
C      1  0.4234860000000  0.4670360000000  0.5099030000000 1.0
C      1  0.4248240000000  0.5327170000000  0.4909330000000 1.0
C      1  0.5226020000000  0.4670300000000  0.4828740000000 1.0
C      1  0.5209530000000  0.5336760000000  0.5205690000000 1.0
C      1  0.4790420000000  0.5336730000000  0.4794320000000 1.0
C      1  0.4774020000000  0.4670260000000  0.5171250000000 1.0
C      1  0.5220320000000  0.4803910000000  0.4376210000000 1.0
C      1  0.5227440000000  0.5196230000000  0.5645890000000 1.0
C      1  0.4772540000000  0.5196220000000  0.4354120000000 1.0
C      1  0.4779710000000  0.4803860000000  0.5623790000000 1.0
C      1  0.5728960000000  0.5071650000000  0.4650310000000 1.0
C      1  0.5730040000000  0.4925290000000  0.5341210000000 1.0
C      1  0.4269970000000  0.4925200000000  0.4658790000000 1.0
C      1  0.4271030000000  0.5071540000000  0.5349700000000 1.0
C      1  0.4606330000000  0.5284240000000  0.4581260000000 1.0
C      1  0.4613470000000  0.4714950000000  0.5401350000000 1.0
C      1  0.5386570000000  0.4715010000000  0.4598640000000 1.0
C      1  0.5393640000000  0.5284280000000  0.5418750000000 1.0
C      1  0.5058810000000  0.4708070000000  0.5643870000000 1.0
C      1  0.5056300000000  0.5293310000000  0.4337760000000 1.0
C      1  0.4943660000000  0.5293280000000  0.5662250000000 1.0
C      1  0.4941230000000  0.4708080000000  0.4356120000000 1.0
C      1  0.5148700000000  0.4456110000000  0.5009100000000 1.0
C      1  0.5148930000000  0.5524270000000  0.4995810000000 1.0
C      1  0.4851000000000  0.5524250000000  0.5004200000000 1.0
C      1  0.4851370000000  0.4456090000000  0.4990880000000 1.0
C      1  0.5240320000000  0.4423700000000  0.5274770000000 1.0
C      1  0.5244640000000  0.5559030000000  0.4729560000000 1.0
C      1  0.4755280000000  0.5558990000000  0.5270460000000 1.0
C      1  0.4759760000000  0.4423680000000  0.4725210000000 1.0
C      1  0.4805940000000  0.5760090000000  0.5712390000000 1.0
C      1  0.4813630000000  0.4244420000000  0.4276360000000 1.0
C      1  0.5186480000000  0.4244420000000  0.5723620000000 1.0
C      1  0.5193960000000  0.5760140000000  0.4287640000000 1.0
C      1  0.5001320000000  0.5136140000000  0.5245030000000 1.0
C      1  0.5063410000000  0.4897010000000  0.4875440000000 1.0
C      1  0.4936610000000  0.4897000000000  0.5124560000000 1.0
C      1  0.4998660000000  0.5136140000000  0.4754980000000 1.0
C      1  0.5243940000000  0.4917120000000  0.5714360000000 1.0
C      1  0.5242240000000  0.5076810000000  0.4287310000000 1.0
C      1  0.4757750000000  0.5076760000000  0.5712690000000 1.0
C      1  0.4756070000000  0.4917110000000  0.4285640000000 1.0
C      1  0.4227570000000  0.5269660000000  0.5171940000000 1.0
C      1  0.4218300000000  0.4728670000000  0.4836070000000 1.0
C      1  0.5781730000000  0.4728780000000  0.5163920000000 1.0
C      1  0.5772400000000  0.5269770000000  0.4828060000000 1.0
C      1  0.4837590000000  0.4459260000000  0.4453550000000 1.0
C      1  0.4834480000000  0.5536260000000  0.5546930000000 1.0
C      1  0.5165450000000  0.5536300000000  0.4453090000000 1.0
C      1  0.5162490000000  0.4459260000000  0.5546430000000 1.0
END
