TITL C-2323487-9546-552 0.0231678800171686 125000 -356.776068168494 0 0 60 (C1) n - 1
REM
REM in /home/bkarasulu/CARBON/AIRSS/Generating-Clusters/LCBOP/Higher-Symm/Only-C60/SD-CG/FIRE-HFTN
REM
REM
REM
REM
REM
REM ./C.cell (50c204cfd26239f34c78669fe23a5462)
REM
REM compiler GCC version 9.2.1 20190827 (Red Hat 9.2.1-1)
REM options -cpp -mtune=generic -march=x86-64 -g -O0 -fpre-include=/usr/include/finclude/math-vector-fortran.h
REM seed -1926581814 -77196139 476501386 169629853 -1141336189 1002268185 942658531 1266361169 -1957196090 1545791718 -1407349303 1199362168 -1757642375 1334052847 -352141273 60208545 -403985242 -335675179 47319431 -2121567668 1693890580 -904309077 -1240024482 -782928851 -69017090 -2054509375 -1518717853 1726496570 -1454942385 596055284 1474368284 -1252975588 -1434593667
REM
CELL 1.54180   50.00000   50.00000   50.00000   90.00000   90.00000   90.00000
LATT -1
SFAC C  
C      1  0.5091300000000  0.4193450000000  0.5647700000000 1.0
C      1  0.5076370000000  0.3595230000000  0.6113720000000 1.0
C      1  0.4931550000000  0.5516340000000  0.5486710000000 1.0
C      1  0.5084900000000  0.5879260000000  0.4842900000000 1.0
C      1  0.5069860000000  0.3832400000000  0.6240600000000 1.0
C      1  0.5096850000000  0.3929380000000  0.5549350000000 1.0
C      1  0.5305100000000  0.5841400000000  0.5016290000000 1.0
C      1  0.4726700000000  0.5686850000000  0.5392850000000 1.0
C      1  0.4607140000000  0.5468010000000  0.4760760000000 1.0
C      1  0.5236170000000  0.5129760000000  0.5059960000000 1.0
C      1  0.5212760000000  0.4901310000000  0.4363080000000 1.0
C      1  0.4778090000000  0.4612130000000  0.4909420000000 1.0
C      1  0.4902370000000  0.5233340000000  0.5513630000000 1.0
C      1  0.5079980000000  0.5766970000000  0.4579810000000 1.0
C      1  0.5096760000000  0.4415770000000  0.5474550000000 1.0
C      1  0.4866850000000  0.5317730000000  0.3969240000000 1.0
C      1  0.4914910000000  0.4618830000000  0.4682140000000 1.0
C      1  0.5080160000000  0.4715120000000  0.4498070000000 1.0
C      1  0.5031090000000  0.5228890000000  0.4925750000000 1.0
C      1  0.4787070000000  0.5325370000000  0.4894540000000 1.0
C      1  0.5451480000000  0.4762590000000  0.5280780000000 1.0
C      1  0.4489380000000  0.5397030000000  0.4304800000000 1.0
C      1  0.4571800000000  0.4909930000000  0.5236630000000 1.0
C      1  0.5398490000000  0.5344610000000  0.4446860000000 1.0
C      1  0.5949060000000  0.5304090000000  0.4942740000000 1.0
C      1  0.3966940000000  0.5230840000000  0.4933920000000 1.0
C      1  0.4200070000000  0.4744570000000  0.4503910000000 1.0
C      1  0.5885660000000  0.4676900000000  0.4672510000000 1.0
C      1  0.4705510000000  0.5863750000000  0.5191080000000 1.0
C      1  0.5337870000000  0.5742130000000  0.5263900000000 1.0
C      1  0.5095380000000  0.3672580000000  0.5625530000000 1.0
C      1  0.5071590000000  0.4087880000000  0.6157880000000 1.0
C      1  0.3766790000000  0.5387060000000  0.4992670000000 1.0
C      1  0.6092940000000  0.5464010000000  0.5089840000000 1.0
C      1  0.5980000000000  0.4511780000000  0.4494330000000 1.0
C      1  0.4186830000000  0.4494340000000  0.4432340000000 1.0
C      1  0.5340230000000  0.4533600000000  0.5397250000000 1.0
C      1  0.4619140000000  0.5365220000000  0.4058260000000 1.0
C      1  0.4672930000000  0.5093150000000  0.5426860000000 1.0
C      1  0.5290250000000  0.5600740000000  0.4492470000000 1.0
C      1  0.5779430000000  0.5137170000000  0.4795870000000 1.0
C      1  0.4186090000000  0.5070760000000  0.4866060000000 1.0
C      1  0.4230980000000  0.5008590000000  0.4590380000000 1.0
C      1  0.5775510000000  0.4857530000000  0.4854840000000 1.0
C      1  0.4843070000000  0.5946660000000  0.4975290000000 1.0
C      1  0.5193560000000  0.5622110000000  0.5456100000000 1.0
C      1  0.5087170000000  0.3529970000000  0.5852930000000 1.0
C      1  0.5079930000000  0.4224460000000  0.5927610000000 1.0
C      1  0.5112170000000  0.5255320000000  0.4054280000000 1.0
C      1  0.4859040000000  0.4527220000000  0.5373950000000 1.0
C      1  0.4828620000000  0.5743390000000  0.4448770000000 1.0
C      1  0.5143900000000  0.5082600000000  0.5520770000000 1.0
C      1  0.5257600000000  0.5164080000000  0.4276270000000 1.0
C      1  0.4723810000000  0.4674780000000  0.5177460000000 1.0
C      1  0.4614140000000  0.5565930000000  0.4497390000000 1.0
C      1  0.5299130000000  0.5000500000000  0.5300250000000 1.0
C      1  0.5659930000000  0.4763420000000  0.5093360000000 1.0
C      1  0.4307590000000  0.5206770000000  0.4405300000000 1.0
C      1  0.4354670000000  0.4975720000000  0.5070290000000 1.0
C      1  0.5615310000000  0.5248730000000  0.4597230000000 1.0
END
