TITL C-2323485-8600-387 -0.000308878972456823 125000 -359.010050162218 0 0 60 (C1) n - 1
REM
REM in /home/bkarasulu/CARBON/AIRSS/Generating-Clusters/LCBOP/Higher-Symm/Only-C60/SD-CG/FIRE-HFTN
REM
REM
REM
REM
REM
REM ./C.cell (50c204cfd26239f34c78669fe23a5462)
REM
REM compiler GCC version 9.2.1 20190827 (Red Hat 9.2.1-1)
REM options -cpp -mtune=generic -march=x86-64 -g -O0 -fpre-include=/usr/include/finclude/math-vector-fortran.h
REM seed 1698322929 2122916322 -610922054 1874489065 -2012435000 1352284891 -454660079 664942003 -1991092458 -342744530 1830588286 -1148760711 368159136 402922717 758540320 -92234748 52045561 165901358 1801981929 -2117257159 1371497420 -1258231234 -117106301 71792146 713311431 -1072480414 524606662 -2090935918 -831750730 -177644783 1237896134 -1475631883 -189626584
REM
CELL 1.54180   50.00000   50.00000   50.00000   90.00000   90.00000   90.00000
LATT -1
SFAC C  
C      1  0.5246520000000  0.4961180000000  0.4426970000000 1.0
C      1  0.4743170000000  0.4880560000000  0.5684650000000 1.0
C      1  0.4741610000000  0.5144550000000  0.5046080000000 1.0
C      1  0.5456080000000  0.4979520000000  0.5195060000000 1.0
C      1  0.4966270000000  0.5552700000000  0.4907620000000 1.0
C      1  0.5005230000000  0.6193340000000  0.4339410000000 1.0
C      1  0.5289820000000  0.4033330000000  0.5726130000000 1.0
C      1  0.4386560000000  0.4212480000000  0.4351530000000 1.0
C      1  0.5410240000000  0.4771450000000  0.4558560000000 1.0
C      1  0.4692270000000  0.4693290000000  0.5478990000000 1.0
C      1  0.5038260000000  0.5256790000000  0.5595340000000 1.0
C      1  0.4990460000000  0.5387350000000  0.4330690000000 1.0
C      1  0.6126510000000  0.4962970000000  0.4994450000000 1.0
C      1  0.3969150000000  0.4891150000000  0.5015080000000 1.0
C      1  0.4865750000000  0.4710590000000  0.5253490000000 1.0
C      1  0.5341080000000  0.4690550000000  0.4818950000000 1.0
C      1  0.4408900000000  0.4948300000000  0.4223180000000 1.0
C      1  0.5431540000000  0.4757430000000  0.5847620000000 1.0
C      1  0.4782700000000  0.4862930000000  0.5026510000000 1.0
C      1  0.5319530000000  0.4750470000000  0.5092710000000 1.0
C      1  0.5869180000000  0.4953840000000  0.5434340000000 1.0
C      1  0.4316070000000  0.5211920000000  0.4824670000000 1.0
C      1  0.5493210000000  0.5204610000000  0.5030830000000 1.0
C      1  0.4468890000000  0.5230360000000  0.5067490000000 1.0
C      1  0.4937730000000  0.5347160000000  0.5084850000000 1.0
C      1  0.5001580000000  0.5932690000000  0.4337040000000 1.0
C      1  0.5291980000000  0.4298190000000  0.5662180000000 1.0
C      1  0.4454250000000  0.4470730000000  0.4405930000000 1.0
C      1  0.4369380000000  0.5254080000000  0.5338180000000 1.0
C      1  0.5590360000000  0.5319060000000  0.4793280000000 1.0
C      1  0.5270310000000  0.5210030000000  0.5752410000000 1.0
C      1  0.4769400000000  0.5268440000000  0.4197080000000 1.0
C      1  0.4781280000000  0.5247340000000  0.3923170000000 1.0
C      1  0.5332560000000  0.5376570000000  0.5960490000000 1.0
C      1  0.4376600000000  0.4684590000000  0.4241910000000 1.0
C      1  0.5382270000000  0.4495450000000  0.5840440000000 1.0
C      1  0.4715020000000  0.4717290000000  0.4797700000000 1.0
C      1  0.5130720000000  0.4609830000000  0.5252550000000 1.0
C      1  0.5406980000000  0.5376570000000  0.4589050000000 1.0
C      1  0.4551990000000  0.5298630000000  0.5550630000000 1.0
C      1  0.5203810000000  0.4393630000000  0.5413330000000 1.0
C      1  0.4606540000000  0.4542480000000  0.4630160000000 1.0
C      1  0.4185320000000  0.4640190000000  0.5381780000000 1.0
C      1  0.5920640000000  0.4830930000000  0.4566940000000 1.0
C      1  0.4078870000000  0.5058170000000  0.4833660000000 1.0
C      1  0.6067710000000  0.4942270000000  0.5254920000000 1.0
C      1  0.4776520000000  0.5160000000000  0.5656930000000 1.0
C      1  0.5209260000000  0.5241100000000  0.4438310000000 1.0
C      1  0.4998170000000  0.5667790000000  0.4339160000000 1.0
C      1  0.5062940000000  0.5360080000000  0.5335600000000 1.0
C      1  0.5588980000000  0.4977070000000  0.5447460000000 1.0
C      1  0.4436170000000  0.5270840000000  0.4576410000000 1.0
C      1  0.6006830000000  0.5028610000000  0.4748750000000 1.0
C      1  0.4050570000000  0.4867220000000  0.5284370000000 1.0
C      1  0.5439540000000  0.4988910000000  0.5689310000000 1.0
C      1  0.4536340000000  0.5174760000000  0.4331610000000 1.0
C      1  0.5681000000000  0.4740570000000  0.4485200000000 1.0
C      1  0.4436490000000  0.4579130000000  0.5454340000000 1.0
C      1  0.5862650000000  0.5272520000000  0.4736720000000 1.0
C      1  0.4130240000000  0.5115420000000  0.5397810000000 1.0
END
