TITL C-2323490-8774-417 4.07520799761339e-06 125000 -360.619900886127 0 0 60 (C3) n - 1
REM
REM in /home/bkarasulu/CARBON/AIRSS/Generating-Clusters/LCBOP/Higher-Symm/Only-C60/SD-CG/FIRE-HFTN
REM
REM
REM
REM
REM
REM ./C.cell (50c204cfd26239f34c78669fe23a5462)
REM
REM compiler GCC version 9.2.1 20190827 (Red Hat 9.2.1-1)
REM options -cpp -mtune=generic -march=x86-64 -g -O0 -fpre-include=/usr/include/finclude/math-vector-fortran.h
REM seed -1432767862 -1879704050 -1627207390 2061970691 -1212784633 -412958270 -1866663750 835640637 616405845 10671108 -821619901 -606667944 2053491885 157239406 1186228331 -1864114967 -338253969 -1357733993 -641893285 -1760032990 -671916293 1928834667 -1677956212 289453200 1842596056 1704409449 -2109102409 -58588251 -1174751727 16287721 1270623231 861676532 88186754
REM
CELL 1.54180   50.00000   50.00000   50.00000   90.00000   90.00000   90.00000
LATT -1
SFAC C  
C      1  0.5723960000000  0.4928570000000  0.5264250000000 1.0
C      1  0.4928320000000  0.5264460000000  0.5723410000000 1.0
C      1  0.5264460000000  0.5724190000000  0.4928360000000 1.0
C      1  0.5735810000000  0.5079620000000  0.4689720000000 1.0
C      1  0.4439810000000  0.4946070000000  0.4758880000000 1.0
C      1  0.4425800000000  0.5079340000000  0.5276910000000 1.0
C      1  0.4944170000000  0.4759600000000  0.4440080000000 1.0
C      1  0.5079540000000  0.5277930000000  0.4425090000000 1.0
C      1  0.5079650000000  0.4690170000000  0.5736350000000 1.0
C      1  0.5277750000000  0.4425440000000  0.5080110000000 1.0
C      1  0.4690020000000  0.5735760000000  0.5079870000000 1.0
C      1  0.4759820000000  0.4437060000000  0.4945890000000 1.0
C      1  0.5584260000000  0.5242540000000  0.4878260000000 1.0
C      1  0.4878570000000  0.5584110000000  0.5242620000000 1.0
C      1  0.5242670000000  0.4878610000000  0.5584680000000 1.0
C      1  0.5622780000000  0.4737150000000  0.5076200000000 1.0
C      1  0.4329090000000  0.4730640000000  0.4922170000000 1.0
C      1  0.4320180000000  0.5276740000000  0.5090720000000 1.0
C      1  0.4922870000000  0.4325620000000  0.4730810000000 1.0
C      1  0.5091170000000  0.4319940000000  0.5277360000000 1.0
C      1  0.5076550000000  0.5623380000000  0.4736530000000 1.0
C      1  0.5276130000000  0.5090750000000  0.4319780000000 1.0
C      1  0.4737110000000  0.5076320000000  0.5622070000000 1.0
C      1  0.4729990000000  0.4923180000000  0.4327460000000 1.0
C      1  0.4387610000000  0.5195650000000  0.4605440000000 1.0
C      1  0.5193910000000  0.4606170000000  0.4390010000000 1.0
C      1  0.4605730000000  0.4387400000000  0.5195420000000 1.0
C      1  0.4398900000000  0.4804800000000  0.5400370000000 1.0
C      1  0.5585020000000  0.5168330000000  0.5357960000000 1.0
C      1  0.5628790000000  0.4822140000000  0.4586290000000 1.0
C      1  0.5168330000000  0.5358220000000  0.5584940000000 1.0
C      1  0.4822130000000  0.4586330000000  0.5629650000000 1.0
C      1  0.4804840000000  0.5401230000000  0.4398610000000 1.0
C      1  0.4586340000000  0.5629500000000  0.4822200000000 1.0
C      1  0.5400610000000  0.4398710000000  0.4805370000000 1.0
C      1  0.5358130000000  0.5585120000000  0.5168090000000 1.0
C      1  0.4391290000000  0.4602530000000  0.5188840000000 1.0
C      1  0.5188970000000  0.4390520000000  0.4603340000000 1.0
C      1  0.4602330000000  0.5189910000000  0.4390290000000 1.0
C      1  0.4388270000000  0.5403350000000  0.4828080000000 1.0
C      1  0.5559210000000  0.5368990000000  0.5144770000000 1.0
C      1  0.5628380000000  0.4612690000000  0.4796280000000 1.0
C      1  0.5145100000000  0.5559370000000  0.5368920000000 1.0
C      1  0.4796250000000  0.5629080000000  0.4612560000000 1.0
C      1  0.4828240000000  0.4388180000000  0.5403610000000 1.0
C      1  0.4612640000000  0.4796330000000  0.5628460000000 1.0
C      1  0.5401980000000  0.4828220000000  0.4389100000000 1.0
C      1  0.5369090000000  0.5145130000000  0.5559360000000 1.0
C      1  0.4817530000000  0.4717080000000  0.4998860000000 1.0
C      1  0.4726240000000  0.5111710000000  0.5320880000000 1.0
C      1  0.5235090000000  0.4888360000000  0.4866260000000 1.0
C      1  0.4866610000000  0.5236560000000  0.4887660000000 1.0
C      1  0.5321910000000  0.4725890000000  0.5112670000000 1.0
C      1  0.5318680000000  0.5152640000000  0.4830530000000 1.0
C      1  0.5112770000000  0.5322350000000  0.4725350000000 1.0
C      1  0.4888280000000  0.4864860000000  0.5235640000000 1.0
C      1  0.4720030000000  0.5000160000000  0.4813790000000 1.0
C      1  0.4996030000000  0.4815910000000  0.4721320000000 1.0
C      1  0.5152770000000  0.4830870000000  0.5319160000000 1.0
C      1  0.4831480000000  0.5318530000000  0.5152350000000 1.0
END
