TITL C-2323479-8056-296 0.126713837590079 125000 -351.491115749048 0 0 60 (C1) n - 1
REM
REM in /home/bkarasulu/CARBON/AIRSS/Generating-Clusters/LCBOP/Higher-Symm/Only-C60/SD-CG/FIRE-HFTN
REM
REM
REM
REM
REM
REM ./C.cell (50c204cfd26239f34c78669fe23a5462)
REM
REM compiler GCC version 9.2.1 20190827 (Red Hat 9.2.1-1)
REM options -cpp -mtune=generic -march=x86-64 -g -O0 -fpre-include=/usr/include/finclude/math-vector-fortran.h
REM seed 2000914588 1752635082 -2113349403 464482062 -1599354395 2003022896 -1785661676 922349101 -1712908586 -696636400 -851644571 2010366609 64126674 -1873325935 -543210919 -479652296 858724466 824087711 -391142166 1144329408 1060041835 895220887 -1899650387 534673719 1869538883 -1955959335 588597483 1035725400 -935658057 573986659 491022696 -373875495 -407832811
REM
CELL 1.54180   50.00000   50.00000   50.00000   90.00000   90.00000   90.00000
LATT -1
SFAC C  
C      1  0.5955890000000  0.5073070000000  0.4583510000000 1.0
C      1  0.4780870000000  0.5134720000000  0.6057330000000 1.0
C      1  0.4443120000000  0.4981400000000  0.4517460000000 1.0
C      1  0.4819280000000  0.5072830000000  0.5052050000000 1.0
C      1  0.4702490000000  0.5338370000000  0.5418580000000 1.0
C      1  0.5277510000000  0.5107690000000  0.4433790000000 1.0
C      1  0.4605700000000  0.4836640000000  0.4360930000000 1.0
C      1  0.4644530000000  0.4697310000000  0.5573480000000 1.0
C      1  0.5057280000000  0.4434960000000  0.5388130000000 1.0
C      1  0.4708810000000  0.4598960000000  0.4894790000000 1.0
C      1  0.5491990000000  0.5361860000000  0.6014550000000 1.0
C      1  0.4697800000000  0.5592230000000  0.5517200000000 1.0
C      1  0.4831240000000  0.4702920000000  0.4301620000000 1.0
C      1  0.5520310000000  0.5683010000000  0.4868590000000 1.0
C      1  0.5521540000000  0.5133460000000  0.4282860000000 1.0
C      1  0.4538450000000  0.4946720000000  0.5648600000000 1.0
C      1  0.6000700000000  0.4983770000000  0.4844600000000 1.0
C      1  0.5262660000000  0.5276280000000  0.5893190000000 1.0
C      1  0.5200420000000  0.4448520000000  0.5148190000000 1.0
C      1  0.4487210000000  0.5151320000000  0.5454920000000 1.0
C      1  0.4339900000000  0.5091710000000  0.4738900000000 1.0
C      1  0.5200140000000  0.4866220000000  0.4559870000000 1.0
C      1  0.4848530000000  0.4352970000000  0.4850170000000 1.0
C      1  0.5121030000000  0.4298760000000  0.4911930000000 1.0
C      1  0.5093330000000  0.4654180000000  0.4394550000000 1.0
C      1  0.5031750000000  0.5222740000000  0.6043060000000 1.0
C      1  0.4788930000000  0.5476320000000  0.4021280000000 1.0
C      1  0.4915150000000  0.5232470000000  0.5261710000000 1.0
C      1  0.4438160000000  0.4583700000000  0.4960130000000 1.0
C      1  0.5719770000000  0.4592800000000  0.4888490000000 1.0
C      1  0.6471950000000  0.5040280000000  0.5099240000000 1.0
C      1  0.5251000000000  0.5343290000000  0.3938400000000 1.0
C      1  0.5775100000000  0.5106760000000  0.4392300000000 1.0
C      1  0.3765510000000  0.5162160000000  0.5498680000000 1.0
C      1  0.5078790000000  0.5311820000000  0.4384110000000 1.0
C      1  0.5315840000000  0.4312350000000  0.4696670000000 1.0
C      1  0.5776690000000  0.4859170000000  0.4970360000000 1.0
C      1  0.4825240000000  0.5618720000000  0.4743270000000 1.0
C      1  0.5578600000000  0.4395480000000  0.4770630000000 1.0
C      1  0.5413600000000  0.5238570000000  0.5156350000000 1.0
C      1  0.4581460000000  0.5029540000000  0.5914160000000 1.0
C      1  0.4263040000000  0.5153430000000  0.5277880000000 1.0
C      1  0.5141230000000  0.4826720000000  0.4834580000000 1.0
C      1  0.5282400000000  0.4703520000000  0.5048000000000 1.0
C      1  0.3289490000000  0.5160760000000  0.5721900000000 1.0
C      1  0.5029380000000  0.5383400000000  0.4109810000000 1.0
C      1  0.3525520000000  0.5161460000000  0.5611210000000 1.0
C      1  0.4291690000000  0.5147850000000  0.4996400000000 1.0
C      1  0.5453240000000  0.5473780000000  0.5008750000000 1.0
C      1  0.4196000000000  0.4516920000000  0.5030000000000 1.0
C      1  0.5252100000000  0.5239810000000  0.5615220000000 1.0
C      1  0.6244840000000  0.5013170000000  0.4974310000000 1.0
C      1  0.4952580000000  0.5450460000000  0.4590190000000 1.0
C      1  0.5212320000000  0.4401750000000  0.4445660000000 1.0
C      1  0.5601670000000  0.5028340000000  0.5118240000000 1.0
C      1  0.5192070000000  0.5233060000000  0.5340680000000 1.0
C      1  0.5481790000000  0.5227110000000  0.4018560000000 1.0
C      1  0.4005760000000  0.5161990000000  0.5387210000000 1.0
C      1  0.4863640000000  0.4842790000000  0.4904400000000 1.0
C      1  0.4843010000000  0.4527650000000  0.5518380000000 1.0
END
