TITL C-2323484-8600-251 0.441073181283207 125000 -369.040557272364 0 0 60 (C1) n - 1
REM
REM in /home/bkarasulu/CARBON/AIRSS/Generating-Clusters/LCBOP/Higher-Symm/Only-C60/SD-CG/FIRE-HFTN
REM
REM
REM
REM
REM
REM ./C.cell (50c204cfd26239f34c78669fe23a5462)
REM
REM compiler GCC version 9.2.1 20190827 (Red Hat 9.2.1-1)
REM options -cpp -mtune=generic -march=x86-64 -g -O0 -fpre-include=/usr/include/finclude/math-vector-fortran.h
REM seed 977057751 88523726 -150146318 -1989040621 1215889823 948548612 1146328409 962180548 -1077824722 1489134886 2052998642 185751503 -1614448621 -802551906 214246571 -828507488 1643063551 -54641029 1963190175 -1220147765 565798654 572642161 -1650868876 -1003390312 195527463 610940892 -2139027280 215193703 -1987573924 182328559 1869921070 1624094268 -1148927207
REM
CELL 1.54180   50.00000   50.00000   50.00000   90.00000   90.00000   90.00000
LATT -1
SFAC C  
C      1  0.3995420000000  0.5372320000000  0.5032640000000 1.0
C      1  0.5460810000000  0.5096510000000  0.3951700000000 1.0
C      1  0.5172930000000  0.4282660000000  0.5946220000000 1.0
C      1  0.5759730000000  0.5481380000000  0.4896490000000 1.0
C      1  0.5310950000000  0.4588790000000  0.4910750000000 1.0
C      1  0.4625330000000  0.4780670000000  0.4522030000000 1.0
C      1  0.4528430000000  0.5000650000000  0.5504760000000 1.0
C      1  0.4565530000000  0.5436140000000  0.4245120000000 1.0
C      1  0.5513340000000  0.4810990000000  0.5629040000000 1.0
C      1  0.5017250000000  0.3871870000000  0.5069460000000 1.0
C      1  0.4840360000000  0.5627250000000  0.5615950000000 1.0
C      1  0.5116740000000  0.5687440000000  0.4708020000000 1.0
C      1  0.4451230000000  0.4610470000000  0.4641360000000 1.0
C      1  0.5418180000000  0.4981120000000  0.4192880000000 1.0
C      1  0.5115040000000  0.5646610000000  0.5614100000000 1.0
C      1  0.5156940000000  0.4745530000000  0.4750920000000 1.0
C      1  0.5956020000000  0.5309810000000  0.4973140000000 1.0
C      1  0.4207370000000  0.5530020000000  0.4970790000000 1.0
C      1  0.4544720000000  0.4736110000000  0.5553610000000 1.0
C      1  0.4636770000000  0.5595760000000  0.4038600000000 1.0
C      1  0.5498600000000  0.5070750000000  0.5558690000000 1.0
C      1  0.4845490000000  0.5690590000000  0.4713960000000 1.0
C      1  0.4899840000000  0.4259300000000  0.5918790000000 1.0
C      1  0.5287680000000  0.3890590000000  0.5098840000000 1.0
C      1  0.4786530000000  0.4599520000000  0.5596520000000 1.0
C      1  0.4696280000000  0.5555450000000  0.4913420000000 1.0
C      1  0.5250720000000  0.4992950000000  0.4645960000000 1.0
C      1  0.5212620000000  0.5059720000000  0.4374510000000 1.0
C      1  0.5258360000000  0.5202260000000  0.5496110000000 1.0
C      1  0.4880820000000  0.5565240000000  0.3925680000000 1.0
C      1  0.5239260000000  0.5475710000000  0.5417800000000 1.0
C      1  0.5393500000000  0.4042770000000  0.5298550000000 1.0
C      1  0.4806620000000  0.4320780000000  0.5652800000000 1.0
C      1  0.4255480000000  0.4707010000000  0.4802290000000 1.0
C      1  0.4450780000000  0.5427500000000  0.4866430000000 1.0
C      1  0.5905370000000  0.5043720000000  0.4993910000000 1.0
C      1  0.4751850000000  0.5169840000000  0.5484350000000 1.0
C      1  0.4851380000000  0.4004700000000  0.5240000000000 1.0
C      1  0.5493740000000  0.5395500000000  0.4846760000000 1.0
C      1  0.5291550000000  0.5289280000000  0.3865250000000 1.0
C      1  0.5290770000000  0.4640020000000  0.5643700000000 1.0
C      1  0.4731240000000  0.5235830000000  0.4361780000000 1.0
C      1  0.5305250000000  0.4361340000000  0.5702350000000 1.0
C      1  0.5268660000000  0.5552610000000  0.4905490000000 1.0
C      1  0.4738550000000  0.5446280000000  0.5416250000000 1.0
C      1  0.4004700000000  0.5106040000000  0.4981660000000 1.0
C      1  0.4615720000000  0.5062930000000  0.4551930000000 1.0
C      1  0.5555860000000  0.4674270000000  0.4991460000000 1.0
C      1  0.5030380000000  0.4760360000000  0.5587220000000 1.0
C      1  0.4839810000000  0.5508760000000  0.5153720000000 1.0
C      1  0.5462420000000  0.5113450000000  0.4800050000000 1.0
C      1  0.5001380000000  0.5220010000000  0.4260320000000 1.0
C      1  0.5013440000000  0.5045040000000  0.5522170000000 1.0
C      1  0.5063300000000  0.5367870000000  0.4011890000000 1.0
C      1  0.5236870000000  0.4188540000000  0.5482920000000 1.0
C      1  0.4224760000000  0.4982730000000  0.4854560000000 1.0
C      1  0.4437660000000  0.5160640000000  0.4757460000000 1.0
C      1  0.5653300000000  0.4932610000000  0.4931290000000 1.0
C      1  0.5132910000000  0.5518990000000  0.5153070000000 1.0
C      1  0.4943460000000  0.4166380000000  0.5452510000000 1.0
END
