TITL C-2323486-8761-251 1.36123434084123 125000 -347.98847305103 0 0 60 (C1) n - 1
REM
REM in /home/bkarasulu/CARBON/AIRSS/Generating-Clusters/LCBOP/Higher-Symm/Only-C60/SD-CG/FIRE-HFTN
REM
REM
REM
REM
REM
REM ./C.cell (50c204cfd26239f34c78669fe23a5462)
REM
REM compiler GCC version 9.2.1 20190827 (Red Hat 9.2.1-1)
REM options -cpp -mtune=generic -march=x86-64 -g -O0 -fpre-include=/usr/include/finclude/math-vector-fortran.h
REM seed -1322498538 1767798943 -149970308 2033825033 1344337539 640144454 1295535052 -172336376 -211455426 -1452631973 1817716233 598263673 458475852 1386203760 -28613314 -467318286 1978055828 -132910061 767153235 1117475270 1894146234 2063319316 -930388585 232538741 1800520375 1815135160 635363044 929008646 -1001816795 -1194616273 -105990392 1024173942 1036711208
REM
CELL 1.54180   50.00000   50.00000   50.00000   90.00000   90.00000   90.00000
LATT -1
SFAC C  
C      1  0.5469010000000  0.5086450000000  0.5216800000000 1.0
C      1  0.4377060000000  0.4986210000000  0.4811780000000 1.0
C      1  0.5199470000000  0.4711650000000  0.4462900000000 1.0
C      1  0.4604280000000  0.4995820000000  0.5590600000000 1.0
C      1  0.4855080000000  0.4866530000000  0.5567900000000 1.0
C      1  0.5041090000000  0.4944480000000  0.4445790000000 1.0
C      1  0.5361370000000  0.4629290000000  0.5092610000000 1.0
C      1  0.4715160000000  0.5268020000000  0.5010320000000 1.0
C      1  0.4386390000000  0.4902150000000  0.5453780000000 1.0
C      1  0.5472030000000  0.4729640000000  0.4445590000000 1.0
C      1  0.5703130000000  0.5130980000000  0.5763170000000 1.0
C      1  0.4168730000000  0.5024820000000  0.4271870000000 1.0
C      1  0.4575930000000  0.5211110000000  0.5767320000000 1.0
C      1  0.5074650000000  0.4462470000000  0.4485830000000 1.0
C      1  0.5118380000000  0.5425410000000  0.4501040000000 1.0
C      1  0.4852120000000  0.4393800000000  0.5494950000000 1.0
C      1  0.4376310000000  0.4851030000000  0.4351770000000 1.0
C      1  0.5437900000000  0.5186700000000  0.5684860000000 1.0
C      1  0.5404350000000  0.5276240000000  0.5414470000000 1.0
C      1  0.4376080000000  0.4773170000000  0.4627420000000 1.0
C      1  0.6220630000000  0.4683000000000  0.4576960000000 1.0
C      1  0.4863540000000  0.5914660000000  0.4919630000000 1.0
C      1  0.5171240000000  0.5643430000000  0.4667490000000 1.0
C      1  0.4696220000000  0.4222050000000  0.5340300000000 1.0
C      1  0.5048460000000  0.5439310000000  0.4226310000000 1.0
C      1  0.4949110000000  0.4374400000000  0.5762170000000 1.0
C      1  0.5556210000000  0.4828060000000  0.5151140000000 1.0
C      1  0.4465150000000  0.5244720000000  0.4876640000000 1.0
C      1  0.4586120000000  0.5952190000000  0.4901670000000 1.0
C      1  0.6111710000000  0.4525320000000  0.4772500000000 1.0
C      1  0.4340320000000  0.5476090000000  0.4763540000000 1.0
C      1  0.5832210000000  0.4765150000000  0.5190720000000 1.0
C      1  0.4972190000000  0.4222870000000  0.4482660000000 1.0
C      1  0.4558720000000  0.5408760000000  0.5936330000000 1.0
C      1  0.4907140000000  0.4654460000000  0.5382250000000 1.0
C      1  0.5063270000000  0.5168800000000  0.4622640000000 1.0
C      1  0.4475900000000  0.6198370000000  0.4945920000000 1.0
C      1  0.6125860000000  0.4252370000000  0.4756320000000 1.0
C      1  0.4922040000000  0.5238010000000  0.4093420000000 1.0
C      1  0.5044290000000  0.4590990000000  0.5901000000000 1.0
C      1  0.5035050000000  0.4855480000000  0.5793350000000 1.0
C      1  0.4867070000000  0.4990100000000  0.4220890000000 1.0
C      1  0.4736250000000  0.5399070000000  0.5248380000000 1.0
C      1  0.5431200000000  0.4391990000000  0.4975920000000 1.0
C      1  0.5983900000000  0.4644460000000  0.4990990000000 1.0
C      1  0.4423720000000  0.5732510000000  0.4837690000000 1.0
C      1  0.5238690000000  0.5701270000000  0.5145690000000 1.0
C      1  0.4451140000000  0.4317400000000  0.4894100000000 1.0
C      1  0.5226190000000  0.5057800000000  0.5817490000000 1.0
C      1  0.4620110000000  0.4859150000000  0.4212160000000 1.0
C      1  0.4089360000000  0.5265900000000  0.4359380000000 1.0
C      1  0.5901590000000  0.4985080000000  0.5657010000000 1.0
C      1  0.5947200000000  0.4841480000000  0.5435940000000 1.0
C      1  0.4158190000000  0.5437780000000  0.4552670000000 1.0
C      1  0.4553290000000  0.4209030000000  0.5115090000000 1.0
C      1  0.5102980000000  0.5769590000000  0.4909570000000 1.0
C      1  0.4939390000000  0.5169640000000  0.4873360000000 1.0
C      1  0.5097010000000  0.4671940000000  0.5178400000000 1.0
C      1  0.5325080000000  0.5531250000000  0.5332030000000 1.0
C      1  0.4393730000000  0.4510120000000  0.4719530000000 1.0
END
