TITL C-2323477-5056-451 2.34325557307848e-05 125000 -359.566377739624 0 0 60 (D5d) n - 1
REM
REM in /home/bkarasulu/CARBON/AIRSS/Generating-Clusters/LCBOP/Higher-Symm/Only-C60/SD-CG/FIRE-HFTN
REM
REM
REM
REM
REM
REM ./C.cell (50c204cfd26239f34c78669fe23a5462)
REM
REM compiler GCC version 9.2.1 20190827 (Red Hat 9.2.1-1)
REM options -cpp -mtune=generic -march=x86-64 -g -O0 -fpre-include=/usr/include/finclude/math-vector-fortran.h
REM seed -60759336 1013391610 671790949 512250010 -1396861842 748597994 -751787021 1228263535 652059433 -552243292 958315107 -685799757 609795658 -26625363 1850163077 396860225 345678899 823979723 -237961887 -52066601 -281792660 -1998192898 -2144709648 682790164 993386361 431146804 2098633164 -198514554 -1106350772 -2089031590 -489236020 1087379892 -472817000
REM
CELL 1.54180   50.00000   50.00000   50.00000   90.00000   90.00000   90.00000
LATT -1
SFAC C  
C      1  0.4718470000000  0.5127660000000  0.5866470000000 1.0
C      1  0.4088940000000  0.5127660000000  0.5000000000000 1.0
C      1  0.4718460000000  0.5127680000000  0.4133530000000 1.0
C      1  0.5737060000000  0.5127690000000  0.4464490000000 1.0
C      1  0.5737060000000  0.5127680000000  0.5535510000000 1.0
C      1  0.5281540000000  0.4872320000000  0.5866470000000 1.0
C      1  0.5911060000000  0.4872340000000  0.5000000000000 1.0
C      1  0.5281530000000  0.4872340000000  0.4133530000000 1.0
C      1  0.4262940000000  0.4872320000000  0.4464490000000 1.0
C      1  0.4262940000000  0.4872310000000  0.5535510000000 1.0
C      1  0.5501790000000  0.5506960000000  0.5364580000000 1.0
C      1  0.4808320000000  0.5506950000000  0.5589900000000 1.0
C      1  0.4379740000000  0.5506950000000  0.5000000000000 1.0
C      1  0.4808320000000  0.5506960000000  0.4410100000000 1.0
C      1  0.5501790000000  0.5506970000000  0.4635430000000 1.0
C      1  0.4498210000000  0.4493030000000  0.5364570000000 1.0
C      1  0.5191680000000  0.4493040000000  0.5589900000000 1.0
C      1  0.5620260000000  0.4493050000000  0.5000000000000 1.0
C      1  0.5191680000000  0.4493050000000  0.4410100000000 1.0
C      1  0.4498210000000  0.4493040000000  0.4635420000000 1.0
C      1  0.4923930000000  0.5864040000000  0.5234100000000 1.0
C      1  0.4753850000000  0.5864040000000  0.5000010000000 1.0
C      1  0.4923930000000  0.5864050000000  0.4765910000000 1.0
C      1  0.5199120000000  0.5864050000000  0.4855330000000 1.0
C      1  0.5199120000000  0.5864050000000  0.5144690000000 1.0
C      1  0.5076070000000  0.4135950000000  0.5234090000000 1.0
C      1  0.5246150000000  0.4135960000000  0.4999990000000 1.0
C      1  0.5076070000000  0.4135960000000  0.4765900000000 1.0
C      1  0.4800880000000  0.4135950000000  0.4855310000000 1.0
C      1  0.4800880000000  0.4135950000000  0.5144670000000 1.0
C      1  0.5348680000000  0.5052080000000  0.4746670000000 1.0
C      1  0.5348680000000  0.5052070000000  0.5253330000000 1.0
C      1  0.4866820000000  0.5052070000000  0.5409900000000 1.0
C      1  0.4569010000000  0.5052070000000  0.5000000000000 1.0
C      1  0.4866820000000  0.5052070000000  0.4590100000000 1.0
C      1  0.4651320000000  0.4947930000000  0.4746670000000 1.0
C      1  0.4651320000000  0.4947920000000  0.5253330000000 1.0
C      1  0.5133180000000  0.4947930000000  0.5409900000000 1.0
C      1  0.5430990000000  0.4947930000000  0.5000000000000 1.0
C      1  0.5133180000000  0.4947930000000  0.4590100000000 1.0
C      1  0.4797060000000  0.5230170000000  0.4375440000000 1.0
C      1  0.5531280000000  0.5230170000000  0.4614000000000 1.0
C      1  0.5531280000000  0.5230170000000  0.5386000000000 1.0
C      1  0.4797060000000  0.5230160000000  0.5624570000000 1.0
C      1  0.4343290000000  0.5230160000000  0.5000000000000 1.0
C      1  0.5202940000000  0.4769840000000  0.4375430000000 1.0
C      1  0.4468720000000  0.4769830000000  0.4614000000000 1.0
C      1  0.4468720000000  0.4769830000000  0.5386000000000 1.0
C      1  0.5202940000000  0.4769830000000  0.5624560000000 1.0
C      1  0.5656710000000  0.4769840000000  0.5000000000000 1.0
C      1  0.4599480000000  0.4259070000000  0.5290990000000 1.0
C      1  0.4599480000000  0.4259080000000  0.4708990000000 1.0
C      1  0.5153000000000  0.4259090000000  0.4529150000000 1.0
C      1  0.5495090000000  0.4259090000000  0.4999990000000 1.0
C      1  0.5153000000000  0.4259080000000  0.5470840000000 1.0
C      1  0.5400520000000  0.5740920000000  0.5291010000000 1.0
C      1  0.5400520000000  0.5740930000000  0.4709010000000 1.0
C      1  0.4847000000000  0.5740920000000  0.4529160000000 1.0
C      1  0.4504910000000  0.5740910000000  0.5000010000000 1.0
C      1  0.4847000000000  0.5740910000000  0.5470850000000 1.0
END
