TITL C-2323482-8828-408 0.218802041071719 125000 -360.801037936209 0 0 60 (C1) n - 1
REM
REM in /home/bkarasulu/CARBON/AIRSS/Generating-Clusters/LCBOP/Higher-Symm/Only-C60/SD-CG/FIRE-HFTN
REM
REM
REM
REM
REM
REM ./C.cell (50c204cfd26239f34c78669fe23a5462)
REM
REM compiler GCC version 9.2.1 20190827 (Red Hat 9.2.1-1)
REM options -cpp -mtune=generic -march=x86-64 -g -O0 -fpre-include=/usr/include/finclude/math-vector-fortran.h
REM seed 1211694272 -611817262 -1738769597 -2075063866 871762532 137486429 -156585300 -1160302910 -301755563 1627417884 1201482428 1046113686 2037884954 1898497583 1535946708 1946448122 1423380338 -1274667619 1181604812 1339920400 -21857181 -294639605 332791410 -1158191785 -907290685 -182978386 -1250760570 -1995594541 415602369 -384305815 1677449083 -1166290734 -1863755455
REM
CELL 1.54180   50.00000   50.00000   50.00000   90.00000   90.00000   90.00000
LATT -1
SFAC C  
C      1  0.4286770000000  0.5746170000000  0.4823750000000 1.0
C      1  0.4163170000000  0.4387910000000  0.4757680000000 1.0
C      1  0.5893440000000  0.5138090000000  0.4281630000000 1.0
C      1  0.5904570000000  0.4871800000000  0.4300910000000 1.0
C      1  0.5764430000000  0.4679270000000  0.4420900000000 1.0
C      1  0.5735170000000  0.5331360000000  0.4375430000000 1.0
C      1  0.4790490000000  0.4826720000000  0.4994410000000 1.0
C      1  0.4797700000000  0.5120210000000  0.5000850000000 1.0
C      1  0.5538720000000  0.5499420000000  0.4784010000000 1.0
C      1  0.5586180000000  0.4536590000000  0.4846460000000 1.0
C      1  0.4568990000000  0.5316190000000  0.5397350000000 1.0
C      1  0.4543360000000  0.4627260000000  0.5373720000000 1.0
C      1  0.5151410000000  0.5366300000000  0.4201490000000 1.0
C      1  0.5199900000000  0.4524470000000  0.4256880000000 1.0
C      1  0.5325480000000  0.5385230000000  0.5701650000000 1.0
C      1  0.5417230000000  0.4667370000000  0.5770550000000 1.0
C      1  0.4998820000000  0.5102770000000  0.5433510000000 1.0
C      1  0.4986030000000  0.4813130000000  0.5426440000000 1.0
C      1  0.5543720000000  0.4624160000000  0.4584950000000 1.0
C      1  0.5508930000000  0.5377280000000  0.4534720000000 1.0
C      1  0.4896860000000  0.5439200000000  0.4153500000000 1.0
C      1  0.4961270000000  0.4412660000000  0.4205530000000 1.0
C      1  0.4573900000000  0.4216850000000  0.5630120000000 1.0
C      1  0.4629170000000  0.5653030000000  0.5740220000000 1.0
C      1  0.4532400000000  0.5579070000000  0.5495720000000 1.0
C      1  0.4469430000000  0.4358400000000  0.5421380000000 1.0
C      1  0.5082380000000  0.5120170000000  0.4608680000000 1.0
C      1  0.5084170000000  0.4831650000000  0.4611280000000 1.0
C      1  0.5865480000000  0.4926280000000  0.5323330000000 1.0
C      1  0.5842990000000  0.5190750000000  0.5306080000000 1.0
C      1  0.5270870000000  0.5527770000000  0.5927860000000 1.0
C      1  0.5395670000000  0.4520960000000  0.5999930000000 1.0
C      1  0.5282790000000  0.4670200000000  0.4483970000000 1.0
C      1  0.5257910000000  0.5278310000000  0.4448020000000 1.0
C      1  0.4375490000000  0.4842330000000  0.5446790000000 1.0
C      1  0.4383680000000  0.5110380000000  0.5452330000000 1.0
C      1  0.4463880000000  0.5546440000000  0.4739350000000 1.0
C      1  0.4398740000000  0.4518180000000  0.4680320000000 1.0
C      1  0.5607490000000  0.5517120000000  0.5039650000000 1.0
C      1  0.5669150000000  0.4548120000000  0.5098090000000 1.0
C      1  0.3942740000000  0.4383450000000  0.4596930000000 1.0
C      1  0.4112040000000  0.5864520000000  0.4650740000000 1.0
C      1  0.4392690000000  0.5759190000000  0.5334140000000 1.0
C      1  0.4284200000000  0.4245300000000  0.5244800000000 1.0
C      1  0.5611060000000  0.4606250000000  0.5577100000000 1.0
C      1  0.5515890000000  0.5473260000000  0.5515440000000 1.0
C      1  0.4857150000000  0.5241680000000  0.4749470000000 1.0
C      1  0.4851730000000  0.4712110000000  0.4740770000000 1.0
C      1  0.4165250000000  0.4262620000000  0.5007890000000 1.0
C      1  0.4297600000000  0.5818400000000  0.5093570000000 1.0
C      1  0.4670620000000  0.5410150000000  0.4611560000000 1.0
C      1  0.4663290000000  0.4550770000000  0.4597640000000 1.0
C      1  0.4808830000000  0.5230320000000  0.5266740000000 1.0
C      1  0.4791590000000  0.4703950000000  0.5254430000000 1.0
C      1  0.5669240000000  0.5410200000000  0.5290090000000 1.0
C      1  0.5731940000000  0.4680140000000  0.5336000000000 1.0
C      1  0.4698000000000  0.5447750000000  0.4333370000000 1.0
C      1  0.4741440000000  0.4425720000000  0.4357970000000 1.0
C      1  0.5250730000000  0.4880960000000  0.5717290000000 1.0
C      1  0.5195740000000  0.5143670000000  0.5644650000000 1.0
END
