TITL C-2323483-8886-177 -3.71743089019118e-05 125000 -352.714026715731 0 0 60 (C2) n - 1
REM
REM in /home/bkarasulu/CARBON/AIRSS/Generating-Clusters/LCBOP/Higher-Symm/Only-C60/SD-CG/FIRE-HFTN
REM
REM
REM
REM
REM
REM ./C.cell (50c204cfd26239f34c78669fe23a5462)
REM
REM compiler GCC version 9.2.1 20190827 (Red Hat 9.2.1-1)
REM options -cpp -mtune=generic -march=x86-64 -g -O0 -fpre-include=/usr/include/finclude/math-vector-fortran.h
REM seed 1624552365 -331059338 1472479765 960644869 -1211517164 2058188312 -2017597315 -1821217265 -878169544 -1610935175 234833953 92415752 -901711756 1262983161 -1262282722 -1046282705 1920314894 1415552786 -1023973877 -547679501 -1467020603 -273097305 -822906338 -977357076 -1827263267 -1605903321 -845589041 -973850303 1443378922 -1151748935 307833394 -383073363 1412132574
REM
CELL 1.54180   50.00000   50.00000   50.00000   90.00000   90.00000   90.00000
LATT -1
SFAC C  
C      1  0.5377370000000  0.4554340000000  0.4903470000000 1.0
C      1  0.4806380000000  0.4757590000000  0.4940700000000 1.0
C      1  0.5411420000000  0.4828750000000  0.4947280000000 1.0
C      1  0.5306750000000  0.5046460000000  0.5059300000000 1.0
C      1  0.4942580000000  0.4558080000000  0.5052700000000 1.0
C      1  0.5197250000000  0.4450350000000  0.5096510000000 1.0
C      1  0.4616860000000  0.4960620000000  0.4906630000000 1.0
C      1  0.5225470000000  0.5460020000000  0.4853190000000 1.0
C      1  0.5353130000000  0.4466630000000  0.4639090000000 1.0
C      1  0.4488880000000  0.5034760000000  0.5146820000000 1.0
C      1  0.5285330000000  0.4427470000000  0.5360890000000 1.0
C      1  0.5225690000000  0.5312100000000  0.5093380000000 1.0
C      1  0.5456810000000  0.5153420000000  0.4530280000000 1.0
C      1  0.4871180000000  0.4522150000000  0.4479870000000 1.0
C      1  0.4659680000000  0.5372750000000  0.4626280000000 1.0
C      1  0.5478250000000  0.4872600000000  0.5520110000000 1.0
C      1  0.4847380000000  0.5481100000000  0.5373740000000 1.0
C      1  0.4638730000000  0.4681100000000  0.5469720000000 1.0
C      1  0.5355490000000  0.5018030000000  0.4286350000000 1.0
C      1  0.4749710000000  0.4726810000000  0.4306380000000 1.0
C      1  0.4803790000000  0.5400980000000  0.4373230000000 1.0
C      1  0.5361750000000  0.5080120000000  0.5693620000000 1.0
C      1  0.4750870000000  0.5370400000000  0.5626790000000 1.0
C      1  0.4806650000000  0.4701140000000  0.5713650000000 1.0
C      1  0.4676090000000  0.3950160000000  0.4907080000000 1.0
C      1  0.4242190000000  0.5965710000000  0.4770410000000 1.0
C      1  0.5967200000000  0.5386200000000  0.4971360000000 1.0
C      1  0.4542630000000  0.6139150000000  0.5229630000000 1.0
C      1  0.4181910000000  0.4355510000000  0.5028640000000 1.0
C      1  0.6071140000000  0.4755540000000  0.5092900000000 1.0
C      1  0.5266000000000  0.5375810000000  0.4588010000000 1.0
C      1  0.5166010000000  0.4556130000000  0.4452360000000 1.0
C      1  0.4596530000000  0.5087520000000  0.4656200000000 1.0
C      1  0.5301400000000  0.4634270000000  0.5547620000000 1.0
C      1  0.5125960000000  0.5393150000000  0.5343810000000 1.0
C      1  0.4541540000000  0.4957550000000  0.5411990000000 1.0
C      1  0.4670060000000  0.5194840000000  0.4215660000000 1.0
C      1  0.5213960000000  0.5241900000000  0.4156940000000 1.0
C      1  0.4966760000000  0.4777690000000  0.4115150000000 1.0
C      1  0.4683540000000  0.4935640000000  0.5843070000000 1.0
C      1  0.5209150000000  0.4917590000000  0.5884840000000 1.0
C      1  0.4996270000000  0.5383140000000  0.5784350000000 1.0
C      1  0.5869340000000  0.4939190000000  0.5125400000000 1.0
C      1  0.4452950000000  0.4345230000000  0.5073160000000 1.0
C      1  0.4570520000000  0.5889650000000  0.5121930000000 1.0
C      1  0.5840580000000  0.5146340000000  0.4926830000000 1.0
C      1  0.4444310000000  0.5816790000000  0.4878100000000 1.0
C      1  0.4617960000000  0.4216740000000  0.4874580000000 1.0
C      1  0.5699780000000  0.4915100000000  0.5352370000000 1.0
C      1  0.4554770000000  0.4463630000000  0.5311340000000 1.0
C      1  0.4727420000000  0.5695080000000  0.5246640000000 1.0
C      1  0.5687130000000  0.5117370000000  0.4688650000000 1.0
C      1  0.4534360000000  0.5583630000000  0.4753390000000 1.0
C      1  0.4723600000000  0.4351550000000  0.4647620000000 1.0
C      1  0.4613080000000  0.4961490000000  0.4386570000000 1.0
C      1  0.5086140000000  0.5410780000000  0.4358200000000 1.0
C      1  0.5224150000000  0.4766500000000  0.4254770000000 1.0
C      1  0.4601200000000  0.5130790000000  0.5641810000000 1.0
C      1  0.5090140000000  0.4689100000000  0.5745220000000 1.0
C      1  0.5226830000000  0.5315800000000  0.5613440000000 1.0
END
