TITL C-2323483-8886-327 3.37595652132775e-05 125000 -356.270851904378 0 0 60 (C1) n - 1
REM
REM in /home/bkarasulu/CARBON/AIRSS/Generating-Clusters/LCBOP/Higher-Symm/Only-C60/SD-CG/FIRE-HFTN
REM
REM
REM
REM
REM
REM ./C.cell (50c204cfd26239f34c78669fe23a5462)
REM
REM compiler GCC version 9.2.1 20190827 (Red Hat 9.2.1-1)
REM options -cpp -mtune=generic -march=x86-64 -g -O0 -fpre-include=/usr/include/finclude/math-vector-fortran.h
REM seed 87228320 1615674380 -43163460 687865193 -140717808 1980220238 1461914458 -1876822869 4089428 -2048472901 148379533 452566632 1472507948 77873626 638458507 388076113 1854919772 968685196 65238004 385253006 -443939383 -598834698 -667143563 2114073955 439666233 1428593008 -1476120333 -1967232168 439380891 1136684489 1328051985 384380175 -63998915
REM
CELL 1.54180   50.00000   50.00000   50.00000   90.00000   90.00000   90.00000
LATT -1
SFAC C  
C      1  0.5019060000000  0.4922610000000  0.4990730000000 1.0
C      1  0.5020930000000  0.4919740000000  0.5269040000000 1.0
C      1  0.5255340000000  0.4901840000000  0.4843470000000 1.0
C      1  0.5093190000000  0.4386600000000  0.4532530000000 1.0
C      1  0.4542170000000  0.4392100000000  0.5108350000000 1.0
C      1  0.5342840000000  0.4393000000000  0.5340390000000 1.0
C      1  0.5412690000000  0.4789290000000  0.5661390000000 1.0
C      1  0.5315510000000  0.4782500000000  0.4283110000000 1.0
C      1  0.4239350000000  0.4789830000000  0.4987110000000 1.0
C      1  0.4828690000000  0.5323030000000  0.4372990000000 1.0
C      1  0.4561250000000  0.5267370000000  0.5396650000000 1.0
C      1  0.5571680000000  0.5265110000000  0.5155690000000 1.0
C      1  0.5207810000000  0.5041870000000  0.4244480000000 1.0
C      1  0.4232040000000  0.5035720000000  0.5127030000000 1.0
C      1  0.5517420000000  0.5040870000000  0.5583300000000 1.0
C      1  0.5306390000000  0.4558770000000  0.5568590000000 1.0
C      1  0.5295830000000  0.4549060000000  0.4417070000000 1.0
C      1  0.4378580000000  0.4561840000000  0.4950110000000 1.0
C      1  0.5369770000000  0.5454700000000  0.5075840000000 1.0
C      1  0.4873670000000  0.5491790000000  0.4603930000000 1.0
C      1  0.4726980000000  0.5461980000000  0.5264250000000 1.0
C      1  0.5372120000000  0.5276980000000  0.4271280000000 1.0
C      1  0.4178110000000  0.5283490000000  0.4991400000000 1.0
C      1  0.5412110000000  0.5287130000000  0.5689980000000 1.0
C      1  0.5613550000000  0.5281960000000  0.4425760000000 1.0
C      1  0.4192200000000  0.5309490000000  0.4706810000000 1.0
C      1  0.5155550000000  0.5307220000000  0.5816580000000 1.0
C      1  0.5239930000000  0.5556590000000  0.5308610000000 1.0
C      1  0.5150470000000  0.5565340000000  0.4611560000000 1.0
C      1  0.4586300000000  0.5564370000000  0.5037270000000 1.0
C      1  0.4342790000000  0.4566080000000  0.5526630000000 1.0
C      1  0.5802350000000  0.4567920000000  0.5286180000000 1.0
C      1  0.4743910000000  0.4592870000000  0.4254400000000 1.0
C      1  0.4638220000000  0.5538140000000  0.4753830000000 1.0
C      1  0.4967990000000  0.5520660000000  0.5401440000000 1.0
C      1  0.5364890000000  0.5511000000000  0.4798360000000 1.0
C      1  0.5750530000000  0.4846080000000  0.4908790000000 1.0
C      1  0.4656070000000  0.4885120000000  0.4618280000000 1.0
C      1  0.4701150000000  0.4845630000000  0.5658330000000 1.0
C      1  0.4439400000000  0.4829440000000  0.5550940000000 1.0
C      1  0.5780130000000  0.4832150000000  0.5190620000000 1.0
C      1  0.4749810000000  0.4855970000000  0.4353550000000 1.0
C      1  0.5077510000000  0.4319080000000  0.4799950000000 1.0
C      1  0.4803040000000  0.4325290000000  0.5047990000000 1.0
C      1  0.5145650000000  0.4328910000000  0.5156910000000 1.0
C      1  0.4397640000000  0.5461000000000  0.4608550000000 1.0
C      1  0.4961300000000  0.5446790000000  0.5682980000000 1.0
C      1  0.5605820000000  0.5422890000000  0.4660440000000 1.0
C      1  0.4923360000000  0.4882290000000  0.5513610000000 1.0
C      1  0.5512550000000  0.4863410000000  0.4786500000000 1.0
C      1  0.4776920000000  0.4926090000000  0.4852400000000 1.0
C      1  0.4862220000000  0.4376720000000  0.4366890000000 1.0
C      1  0.4437550000000  0.4366070000000  0.5370910000000 1.0
C      1  0.5619250000000  0.4368440000000  0.5280000000000 1.0
C      1  0.5244530000000  0.5530750000000  0.4333180000000 1.0
C      1  0.4299370000000  0.5526820000000  0.5094430000000 1.0
C      1  0.5431890000000  0.5529310000000  0.5530140000000 1.0
C      1  0.4380540000000  0.5048860000000  0.5374870000000 1.0
C      1  0.5651500000000  0.5051580000000  0.5326430000000 1.0
C      1  0.4920610000000  0.5072430000000  0.4277160000000 1.0
END
