TITL C-2323481-8605-326 0.00166729474204606 125000 -352.828701014326 0 0 60 (C1) n - 1
REM
REM in /home/bkarasulu/CARBON/AIRSS/Generating-Clusters/LCBOP/Higher-Symm/Only-C60/SD-CG/FIRE-HFTN
REM
REM
REM
REM
REM
REM ./C.cell (50c204cfd26239f34c78669fe23a5462)
REM
REM compiler GCC version 9.2.1 20190827 (Red Hat 9.2.1-1)
REM options -cpp -mtune=generic -march=x86-64 -g -O0 -fpre-include=/usr/include/finclude/math-vector-fortran.h
REM seed -1525952787 -1429661256 1771950703 -2024113131 -1455982203 -140166675 -1445210789 1873408850 -1468752059 1114202324 1964816028 -1572198144 -2096682346 715473809 1253266617 -1756215790 -1240299435 -651978741 2135357926 -2033132059 205039510 -716408883 -1300075605 350552993 546190656 -706096801 -1200346719 782660226 -1022889953 -527140998 -1283228903 -1452955260 -294561373
REM
CELL 1.54180   50.00000   50.00000   50.00000   90.00000   90.00000   90.00000
LATT -1
SFAC C  
C      1  0.4945870000000  0.4805970000000  0.5414400000000 1.0
C      1  0.5134570000000  0.5035470000000  0.5435080000000 1.0
C      1  0.4173750000000  0.4922140000000  0.4805890000000 1.0
C      1  0.5851330000000  0.5034920000000  0.4813480000000 1.0
C      1  0.4890210000000  0.5387220000000  0.5669590000000 1.0
C      1  0.4766240000000  0.4689190000000  0.5924200000000 1.0
C      1  0.5731660000000  0.4877910000000  0.4103820000000 1.0
C      1  0.4274790000000  0.5269230000000  0.4203950000000 1.0
C      1  0.4502180000000  0.4194470000000  0.5064960000000 1.0
C      1  0.5565550000000  0.5814090000000  0.4944960000000 1.0
C      1  0.5685050000000  0.5595790000000  0.4798170000000 1.0
C      1  0.4349690000000  0.4372990000000  0.4894980000000 1.0
C      1  0.5305050000000  0.5729390000000  0.5037220000000 1.0
C      1  0.4772200000000  0.4296080000000  0.5082980000000 1.0
C      1  0.5921740000000  0.5606490000000  0.4664920000000 1.0
C      1  0.4091560000000  0.4335660000000  0.4818220000000 1.0
C      1  0.4812790000000  0.5212500000000  0.5878110000000 1.0
C      1  0.4775510000000  0.4956400000000  0.5952660000000 1.0
C      1  0.5410200000000  0.4894780000000  0.4691330000000 1.0
C      1  0.4622610000000  0.5080000000000  0.4751300000000 1.0
C      1  0.4879070000000  0.5082790000000  0.4337280000000 1.0
C      1  0.5122230000000  0.4980490000000  0.4310640000000 1.0
C      1  0.4441570000000  0.4862170000000  0.4789890000000 1.0
C      1  0.5587540000000  0.5100780000000  0.4774730000000 1.0
C      1  0.5305690000000  0.4708750000000  0.5153670000000 1.0
C      1  0.4738170000000  0.5167650000000  0.5236720000000 1.0
C      1  0.5358950000000  0.4871420000000  0.4411240000000 1.0
C      1  0.4657770000000  0.5171860000000  0.4482530000000 1.0
C      1  0.5629840000000  0.5042290000000  0.5367760000000 1.0
C      1  0.4434680000000  0.4791070000000  0.5392850000000 1.0
C      1  0.5852610000000  0.5149280000000  0.5450580000000 1.0
C      1  0.4203280000000  0.4699360000000  0.5470080000000 1.0
C      1  0.5251620000000  0.5470160000000  0.4915480000000 1.0
C      1  0.4793630000000  0.4498010000000  0.4868120000000 1.0
C      1  0.4950640000000  0.5257670000000  0.5424260000000 1.0
C      1  0.5082560000000  0.4580290000000  0.5299960000000 1.0
C      1  0.4539940000000  0.5875150000000  0.4503430000000 1.0
C      1  0.5504080000000  0.4199110000000  0.4212240000000 1.0
C      1  0.5041780000000  0.5829130000000  0.5486160000000 1.0
C      1  0.4831950000000  0.4299130000000  0.5581830000000 1.0
C      1  0.4781420000000  0.4451090000000  0.5799710000000 1.0
C      1  0.4934720000000  0.5663590000000  0.5668200000000 1.0
C      1  0.4525220000000  0.4591920000000  0.4811030000000 1.0
C      1  0.5502240000000  0.5368500000000  0.4807530000000 1.0
C      1  0.4925040000000  0.4345800000000  0.5316860000000 1.0
C      1  0.5164200000000  0.5841630000000  0.5249250000000 1.0
C      1  0.5527480000000  0.4458550000000  0.4220180000000 1.0
C      1  0.4500550000000  0.5627970000000  0.4430820000000 1.0
C      1  0.4474150000000  0.5356400000000  0.4369730000000 1.0
C      1  0.5542560000000  0.4736850000000  0.4242300000000 1.0
C      1  0.5786710000000  0.6295840000000  0.5032670000000 1.0
C      1  0.4318970000000  0.3754770000000  0.5313190000000 1.0
C      1  0.4769810000000  0.5212370000000  0.4958150000000 1.0
C      1  0.5272700000000  0.4721420000000  0.4870150000000 1.0
C      1  0.5377080000000  0.4946190000000  0.5310730000000 1.0
C      1  0.4682790000000  0.4898900000000  0.5338460000000 1.0
C      1  0.4407020000000  0.3965990000000  0.5188520000000 1.0
C      1  0.5679810000000  0.6062160000000  0.4989350000000 1.0
C      1  0.4998310000000  0.5360930000000  0.4886260000000 1.0
C      1  0.5039030000000  0.4591870000000  0.4777280000000 1.0
END
