TITL C-2323482-8828-37 6.32881827779191e-06 125000 -363.895237069077 0 0 60 (C1) n - 1
REM
REM in /home/bkarasulu/CARBON/AIRSS/Generating-Clusters/LCBOP/Higher-Symm/Only-C60/SD-CG/FIRE-HFTN
REM
REM
REM
REM
REM
REM ./C.cell (50c204cfd26239f34c78669fe23a5462)
REM
REM compiler GCC version 9.2.1 20190827 (Red Hat 9.2.1-1)
REM options -cpp -mtune=generic -march=x86-64 -g -O0 -fpre-include=/usr/include/finclude/math-vector-fortran.h
REM seed 1932081737 2006267872 -1556943374 219541877 -950855584 2033136330 746265746 960760148 418694790 857287145 996967548 70319600 278670210 -1031946580 -106902739 -926376732 1981201083 2131501610 -1058664985 -567181902 822425063 1127196223 -2078709567 1208636418 1714116273 1059050210 -953918499 -2036732746 -349495290 -285394730 -447101947 559019136 -2142777893
REM
CELL 1.54180   50.00000   50.00000   50.00000   90.00000   90.00000   90.00000
LATT -1
SFAC C  
C      1  0.5467500000000  0.5671900000000  0.4899110000000 1.0
C      1  0.5589400000000  0.5018080000000  0.5492130000000 1.0
C      1  0.5126630000000  0.5589630000000  0.5699830000000 1.0
C      1  0.4481350000000  0.5517660000000  0.5149490000000 1.0
C      1  0.4490720000000  0.4454610000000  0.4832810000000 1.0
C      1  0.5464760000000  0.4376280000000  0.5087450000000 1.0
C      1  0.4301490000000  0.4970390000000  0.4474950000000 1.0
C      1  0.4288090000000  0.4984390000000  0.5493690000000 1.0
C      1  0.5617320000000  0.4920710000000  0.4498370000000 1.0
C      1  0.5037990000000  0.5431930000000  0.4507940000000 1.0
C      1  0.5016740000000  0.4580690000000  0.5574180000000 1.0
C      1  0.5082620000000  0.4489930000000  0.4283360000000 1.0
C      1  0.5081530000000  0.4449400000000  0.4550440000000 1.0
C      1  0.4556070000000  0.4725310000000  0.4791670000000 1.0
C      1  0.4551750000000  0.4864760000000  0.4543490000000 1.0
C      1  0.4991620000000  0.4586100000000  0.5306920000000 1.0
C      1  0.5113300000000  0.5383430000000  0.4776240000000 1.0
C      1  0.5107000000000  0.5585100000000  0.5429210000000 1.0
C      1  0.5510060000000  0.4637730000000  0.5049460000000 1.0
C      1  0.5391170000000  0.5405650000000  0.4848010000000 1.0
C      1  0.4538240000000  0.5244130000000  0.5182910000000 1.0
C      1  0.5321190000000  0.5028910000000  0.5507220000000 1.0
C      1  0.5350010000000  0.4932640000000  0.4472350000000 1.0
C      1  0.4533380000000  0.5105570000000  0.5434160000000 1.0
C      1  0.5045450000000  0.4691750000000  0.5817490000000 1.0
C      1  0.4592430000000  0.5755590000000  0.5094670000000 1.0
C      1  0.5848310000000  0.4928920000000  0.4636540000000 1.0
C      1  0.5075900000000  0.4660910000000  0.4073950000000 1.0
C      1  0.5121740000000  0.5423140000000  0.5911710000000 1.0
C      1  0.5034720000000  0.5367230000000  0.4245650000000 1.0
C      1  0.5313130000000  0.5887660000000  0.4949020000000 1.0
C      1  0.5303700000000  0.4161670000000  0.5094190000000 1.0
C      1  0.4591890000000  0.4218850000000  0.4912500000000 1.0
C      1  0.4066330000000  0.4933700000000  0.5351050000000 1.0
C      1  0.4072990000000  0.5008080000000  0.4610910000000 1.0
C      1  0.5825880000000  0.5008750000000  0.5363920000000 1.0
C      1  0.4796190000000  0.5057820000000  0.5533950000000 1.0
C      1  0.4964480000000  0.5299800000000  0.5001950000000 1.0
C      1  0.5475370000000  0.4899750000000  0.5001070000000 1.0
C      1  0.5080770000000  0.4942240000000  0.4493880000000 1.0
C      1  0.5061380000000  0.5121110000000  0.5441330000000 1.0
C      1  0.4811810000000  0.4934500000000  0.4457230000000 1.0
C      1  0.5062360000000  0.5355210000000  0.5270310000000 1.0
C      1  0.5057820000000  0.4528110000000  0.4807780000000 1.0
C      1  0.4951490000000  0.4663160000000  0.5038150000000 1.0
C      1  0.4741790000000  0.4846310000000  0.4972640000000 1.0
C      1  0.4736190000000  0.5130560000000  0.5008920000000 1.0
C      1  0.5495320000000  0.5162930000000  0.4945150000000 1.0
C      1  0.4801610000000  0.5912940000000  0.5038470000000 1.0
C      1  0.5979700000000  0.4954580000000  0.4870440000000 1.0
C      1  0.5075170000000  0.4907540000000  0.5975500000000 1.0
C      1  0.5059940000000  0.5965680000000  0.4991610000000 1.0
C      1  0.5060610000000  0.4052380000000  0.5062570000000 1.0
C      1  0.4801340000000  0.4074190000000  0.4997200000000 1.0
C      1  0.3948520000000  0.4947250000000  0.5111480000000 1.0
C      1  0.3950310000000  0.4987820000000  0.4847570000000 1.0
C      1  0.5970840000000  0.4985650000000  0.5138000000000 1.0
C      1  0.5063980000000  0.4916940000000  0.3987440000000 1.0
C      1  0.5102140000000  0.5173070000000  0.6008670000000 1.0
C      1  0.5048480000000  0.5179260000000  0.4051700000000 1.0
END
