TITL C-2323485-8600-444 -3.56600613595255e-07 125000 -369.229938077724 0 0 60 (C5) n - 1
REM
REM in /home/bkarasulu/CARBON/AIRSS/Generating-Clusters/LCBOP/Higher-Symm/Only-C60/SD-CG/FIRE-HFTN
REM
REM
REM
REM
REM
REM ./C.cell (50c204cfd26239f34c78669fe23a5462)
REM
REM compiler GCC version 9.2.1 20190827 (Red Hat 9.2.1-1)
REM options -cpp -mtune=generic -march=x86-64 -g -O0 -fpre-include=/usr/include/finclude/math-vector-fortran.h
REM seed -1107635360 -913994380 -1552954191 -265511842 1143236173 -1032393447 892522136 1442320110 -661900251 399468375 319348561 560260103 21878172 373831958 -1138770401 -1182472029 421138625 -1448958029 1065780398 -720865776 -1385098380 1474971161 -631719868 491455066 -925735740 -1527802352 303202509 1861719166 -1583752730 1106785036 -1652415143 2073973260 1024228473
REM
CELL 1.54180   50.00000   50.00000   50.00000   90.00000   90.00000   90.00000
LATT -1
SFAC C  
C      1  0.5338180000000  0.4387900000000  0.5145810000000 1.0
C      1  0.5338180000000  0.4672170000000  0.4462920000000 1.0
C      1  0.5338180000000  0.5409490000000  0.4522250000000 1.0
C      1  0.5338180000000  0.5580900000000  0.5241810000000 1.0
C      1  0.5338190000000  0.4949530000000  0.5627200000000 1.0
C      1  0.4661820000000  0.4387900000000  0.5145820000000 1.0
C      1  0.4661810000000  0.4672170000000  0.4462920000000 1.0
C      1  0.4661810000000  0.5409490000000  0.4522250000000 1.0
C      1  0.4661820000000  0.5580900000000  0.5241820000000 1.0
C      1  0.4661820000000  0.4949530000000  0.5627200000000 1.0
C      1  0.5240140000000  0.5526080000000  0.4970570000000 1.0
C      1  0.5240140000000  0.5190550000000  0.5491230000000 1.0
C      1  0.5240140000000  0.4591690000000  0.5333020000000 1.0
C      1  0.5240140000000  0.4557100000000  0.4714580000000 1.0
C      1  0.5240140000000  0.5134580000000  0.4490580000000 1.0
C      1  0.4759860000000  0.5526080000000  0.4970580000000 1.0
C      1  0.4759860000000  0.5190550000000  0.5491240000000 1.0
C      1  0.4759860000000  0.4591690000000  0.5333030000000 1.0
C      1  0.4759860000000  0.4557100000000  0.4714590000000 1.0
C      1  0.4759860000000  0.5134580000000  0.4490580000000 1.0
C      1  0.4274680000000  0.4746180000000  0.5036570000000 1.0
C      1  0.4274680000000  0.4886790000000  0.4769910000000 1.0
C      1  0.4274680000000  0.5183850000000  0.4821230000000 1.0
C      1  0.4274680000000  0.5226830000000  0.5119610000000 1.0
C      1  0.4274680000000  0.4956340000000  0.5252700000000 1.0
C      1  0.5725320000000  0.4746180000000  0.5036560000000 1.0
C      1  0.5725320000000  0.4886790000000  0.4769900000000 1.0
C      1  0.5725320000000  0.5183850000000  0.4821230000000 1.0
C      1  0.5725320000000  0.5226830000000  0.5119610000000 1.0
C      1  0.5725320000000  0.4956340000000  0.5252690000000 1.0
C      1  0.5613490000000  0.4765420000000  0.4530340000000 1.0
C      1  0.5613490000000  0.5374180000000  0.4631760000000 1.0
C      1  0.5613490000000  0.5465840000000  0.5242080000000 1.0
C      1  0.5613490000000  0.4913720000000  0.5517840000000 1.0
C      1  0.5613490000000  0.4480840000000  0.5077970000000 1.0
C      1  0.4386510000000  0.4765420000000  0.4530340000000 1.0
C      1  0.4386510000000  0.5374180000000  0.4631770000000 1.0
C      1  0.4386510000000  0.5465840000000  0.5242080000000 1.0
C      1  0.4386510000000  0.4913720000000  0.5517850000000 1.0
C      1  0.4386510000000  0.4480840000000  0.5077970000000 1.0
C      1  0.4850900000000  0.5578970000000  0.4690880000000 1.0
C      1  0.4850900000000  0.5472900000000  0.5455110000000 1.0
C      1  0.4850900000000  0.4713290000000  0.5590390000000 1.0
C      1  0.4850900000000  0.4349910000000  0.4909770000000 1.0
C      1  0.4850890000000  0.4884920000000  0.4353840000000 1.0
C      1  0.5149100000000  0.5578970000000  0.4690880000000 1.0
C      1  0.5149100000000  0.5472900000000  0.5455110000000 1.0
C      1  0.5149100000000  0.4713290000000  0.5590390000000 1.0
C      1  0.5149100000000  0.4349910000000  0.4909770000000 1.0
C      1  0.5149100000000  0.4884920000000  0.4353840000000 1.0
C      1  0.4769140000000  0.4795450000000  0.4876060000000 1.0
C      1  0.4769140000000  0.5054670000000  0.4767160000000 1.0
C      1  0.4769140000000  0.5238330000000  0.4980050000000 1.0
C      1  0.4769140000000  0.5092630000000  0.5220500000000 1.0
C      1  0.4769140000000  0.4818910000000  0.5156230000000 1.0
C      1  0.5230860000000  0.4795450000000  0.4876050000000 1.0
C      1  0.5230860000000  0.5054670000000  0.4767160000000 1.0
C      1  0.5230860000000  0.5238340000000  0.4980040000000 1.0
C      1  0.5230860000000  0.5092630000000  0.5220500000000 1.0
C      1  0.5230860000000  0.4818910000000  0.5156230000000 1.0
END
