TITL C-2323492-8884-230 2.36052685671618e-05 125000 -357.59181043372 0 0 60 (C1) n - 1
REM
REM in /home/bkarasulu/CARBON/AIRSS/Generating-Clusters/LCBOP/Higher-Symm/Only-C60/SD-CG/FIRE-HFTN
REM
REM
REM
REM
REM
REM ./C.cell (50c204cfd26239f34c78669fe23a5462)
REM
REM compiler GCC version 9.2.1 20190827 (Red Hat 9.2.1-1)
REM options -cpp -mtune=generic -march=x86-64 -g -O0 -fpre-include=/usr/include/finclude/math-vector-fortran.h
REM seed -656749866 188366485 784325836 1401005827 -1784885891 -1150275206 -827522205 -502688692 -1806407884 762196726 -965342433 79935414 -1359171047 1672252921 1022743205 -2142820410 1659085330 -1423879210 -1232381650 1722328866 -1831315535 1809098572 1474495185 856234354 -1737917873 -1499227522 -62758897 -2071321648 -2003810144 -1813097415 -1644302468 1698187840 -1223925968
REM
CELL 1.54180   50.00000   50.00000   50.00000   90.00000   90.00000   90.00000
LATT -1
SFAC C  
C      1  0.5185150000000  0.4313640000000  0.4470460000000 1.0
C      1  0.4376860000000  0.4606050000000  0.5087980000000 1.0
C      1  0.4581150000000  0.5329900000000  0.4538920000000 1.0
C      1  0.4937520000000  0.4289160000000  0.5576650000000 1.0
C      1  0.5030840000000  0.5523110000000  0.4633240000000 1.0
C      1  0.4985810000000  0.5449650000000  0.5418740000000 1.0
C      1  0.5630090000000  0.4340290000000  0.4729370000000 1.0
C      1  0.5570910000000  0.5651320000000  0.5237840000000 1.0
C      1  0.4330760000000  0.5399460000000  0.4686000000000 1.0
C      1  0.5594410000000  0.5132240000000  0.5263930000000 1.0
C      1  0.5320410000000  0.4952970000000  0.4416050000000 1.0
C      1  0.4470000000000  0.4880630000000  0.5478400000000 1.0
C      1  0.4949440000000  0.5332220000000  0.3969310000000 1.0
C      1  0.4484020000000  0.5513870000000  0.5235900000000 1.0
C      1  0.4595790000000  0.5043620000000  0.4613800000000 1.0
C      1  0.4881450000000  0.5339100000000  0.5663240000000 1.0
C      1  0.5016870000000  0.4537210000000  0.4504690000000 1.0
C      1  0.5113970000000  0.4507790000000  0.5656710000000 1.0
C      1  0.5369680000000  0.5803310000000  0.5147140000000 1.0
C      1  0.5260130000000  0.4580650000000  0.5407480000000 1.0
C      1  0.4640060000000  0.4524960000000  0.5002870000000 1.0
C      1  0.5774200000000  0.4921560000000  0.5210470000000 1.0
C      1  0.5564290000000  0.4990600000000  0.4289100000000 1.0
C      1  0.4503360000000  0.5236400000000  0.5204860000000 1.0
C      1  0.5078690000000  0.4692100000000  0.5863040000000 1.0
C      1  0.4639180000000  0.5731460000000  0.5264780000000 1.0
C      1  0.5797940000000  0.5021420000000  0.4177940000000 1.0
C      1  0.4934860000000  0.4719690000000  0.4295890000000 1.0
C      1  0.4780660000000  0.5107490000000  0.5804390000000 1.0
C      1  0.4951540000000  0.5240790000000  0.4228760000000 1.0
C      1  0.5095390000000  0.5793360000000  0.5078030000000 1.0
C      1  0.5221630000000  0.4348650000000  0.5234140000000 1.0
C      1  0.4753180000000  0.4283730000000  0.5106700000000 1.0
C      1  0.4266030000000  0.5092150000000  0.5099810000000 1.0
C      1  0.4326550000000  0.4943960000000  0.4649070000000 1.0
C      1  0.5816430000000  0.4697130000000  0.5070480000000 1.0
C      1  0.4968170000000  0.4929680000000  0.5919390000000 1.0
C      1  0.4960250000000  0.4229710000000  0.5290120000000 1.0
C      1  0.5760690000000  0.4497450000000  0.4901730000000 1.0
C      1  0.4839960000000  0.5414800000000  0.4439070000000 1.0
C      1  0.4526190000000  0.4981620000000  0.5739320000000 1.0
C      1  0.5063610000000  0.4978620000000  0.4284050000000 1.0
C      1  0.5429090000000  0.4260040000000  0.4571640000000 1.0
C      1  0.4918130000000  0.5702880000000  0.5290260000000 1.0
C      1  0.5025380000000  0.5758630000000  0.4798220000000 1.0
C      1  0.4284510000000  0.4826280000000  0.5249610000000 1.0
C      1  0.4212100000000  0.5153180000000  0.4823470000000 1.0
C      1  0.5656830000000  0.5404490000000  0.5296760000000 1.0
C      1  0.5184100000000  0.4826800000000  0.5293180000000 1.0
C      1  0.4922660000000  0.5232880000000  0.4960200000000 1.0
C      1  0.4844250000000  0.4746530000000  0.4943670000000 1.0
C      1  0.4767860000000  0.5016050000000  0.4835300000000 1.0
C      1  0.5077000000000  0.4682880000000  0.4749410000000 1.0
C      1  0.5329360000000  0.5098730000000  0.4865030000000 1.0
C      1  0.5313520000000  0.5075020000000  0.5181200000000 1.0
C      1  0.5294700000000  0.4876560000000  0.4695500000000 1.0
C      1  0.4680090000000  0.5018300000000  0.5320820000000 1.0
C      1  0.4900080000000  0.4843800000000  0.5231490000000 1.0
C      1  0.5144510000000  0.5308460000000  0.4782330000000 1.0
C      1  0.5067710000000  0.5264980000000  0.5222050000000 1.0
END
