TITL C-2323487-9546-607 1.18448206535351 125000 -356.827277978326 0 0 60 (C1) n - 1
REM
REM in /home/bkarasulu/CARBON/AIRSS/Generating-Clusters/LCBOP/Higher-Symm/Only-C60/SD-CG/FIRE-HFTN
REM
REM
REM
REM
REM
REM ./C.cell (50c204cfd26239f34c78669fe23a5462)
REM
REM compiler GCC version 9.2.1 20190827 (Red Hat 9.2.1-1)
REM options -cpp -mtune=generic -march=x86-64 -g -O0 -fpre-include=/usr/include/finclude/math-vector-fortran.h
REM seed -1206547875 -1345229915 1735432871 -688070351 621340158 -47594493 -1937529397 -278062680 217476380 945111382 1414937271 1862259908 988886466 -807273108 1763907013 368468009 1853921104 -1734504319 -1115581336 1953790667 2007506576 502450953 -315875632 -1428295962 -141736073 601396643 1947320208 1939200317 888429734 759588435 -1373824361 979040631 1776841613
REM
CELL 1.54180   50.00000   50.00000   50.00000   90.00000   90.00000   90.00000
LATT -1
SFAC C  
C      1  0.5378600000000  0.5900020000000  0.5943350000000 1.0
C      1  0.4228980000000  0.4705130000000  0.5082230000000 1.0
C      1  0.4411000000000  0.4949070000000  0.4437320000000 1.0
C      1  0.5363010000000  0.4843430000000  0.4328170000000 1.0
C      1  0.5347750000000  0.4390270000000  0.4163800000000 1.0
C      1  0.5682590000000  0.6326960000000  0.5983550000000 1.0
C      1  0.5007180000000  0.4534690000000  0.4471210000000 1.0
C      1  0.5322080000000  0.3974090000000  0.5437910000000 1.0
C      1  0.4460930000000  0.5191490000000  0.4994890000000 1.0
C      1  0.5217200000000  0.5673330000000  0.5921670000000 1.0
C      1  0.5320900000000  0.4237460000000  0.5511900000000 1.0
C      1  0.5087620000000  0.5015420000000  0.3956480000000 1.0
C      1  0.4576880000000  0.5019620000000  0.5185610000000 1.0
C      1  0.5531830000000  0.6115210000000  0.5963620000000 1.0
C      1  0.4618520000000  0.4742410000000  0.6192630000000 1.0
C      1  0.4641790000000  0.4545790000000  0.5700180000000 1.0
C      1  0.5099120000000  0.4402500000000  0.5449670000000 1.0
C      1  0.6030510000000  0.5235640000000  0.4076730000000 1.0
C      1  0.5132380000000  0.5464730000000  0.3830760000000 1.0
C      1  0.5239090000000  0.4587770000000  0.4319760000000 1.0
C      1  0.5100230000000  0.5561220000000  0.6149490000000 1.0
C      1  0.4930060000000  0.5475240000000  0.4993490000000 1.0
C      1  0.5073940000000  0.5673530000000  0.4403140000000 1.0
C      1  0.4143960000000  0.4736010000000  0.4830610000000 1.0
C      1  0.5328540000000  0.5020070000000  0.4109410000000 1.0
C      1  0.4579810000000  0.4763370000000  0.4309140000000 1.0
C      1  0.4965610000000  0.5394940000000  0.6306190000000 1.0
C      1  0.4476870000000  0.4657200000000  0.5503270000000 1.0
C      1  0.4674860000000  0.5370800000000  0.4314870000000 1.0
C      1  0.4200820000000  0.4843020000000  0.4592280000000 1.0
C      1  0.4824200000000  0.5181310000000  0.6375390000000 1.0
C      1  0.5171110000000  0.5556460000000  0.5671780000000 1.0
C      1  0.4875910000000  0.4415910000000  0.5618180000000 1.0
C      1  0.4776710000000  0.5479960000000  0.4760200000000 1.0
C      1  0.4948200000000  0.5254700000000  0.3889660000000 1.0
C      1  0.5770250000000  0.5247190000000  0.4070380000000 1.0
C      1  0.4846960000000  0.5535570000000  0.4486830000000 1.0
C      1  0.4614430000000  0.4298500000000  0.4484630000000 1.0
C      1  0.4856710000000  0.5056830000000  0.5234330000000 1.0
C      1  0.5936840000000  0.4573740000000  0.5906380000000 1.0
C      1  0.5537740000000  0.4347720000000  0.5649640000000 1.0
C      1  0.5089840000000  0.5431510000000  0.5452710000000 1.0
C      1  0.4731130000000  0.4536790000000  0.4365680000000 1.0
C      1  0.5097630000000  0.4564460000000  0.5215670000000 1.0
C      1  0.5344600000000  0.5497050000000  0.4020390000000 1.0
C      1  0.5492420000000  0.5254830000000  0.4070020000000 1.0
C      1  0.4542890000000  0.5307090000000  0.4756200000000 1.0
C      1  0.5120980000000  0.4448430000000  0.4962020000000 1.0
C      1  0.4596390000000  0.4599170000000  0.5970280000000 1.0
C      1  0.5026950000000  0.4834740000000  0.5239480000000 1.0
C      1  0.4773570000000  0.4207130000000  0.4691730000000 1.0
C      1  0.5739130000000  0.4461170000000  0.5779100000000 1.0
C      1  0.4501800000000  0.5212250000000  0.4485860000000 1.0
C      1  0.4700100000000  0.4949810000000  0.6336910000000 1.0
C      1  0.4964760000000  0.5322570000000  0.5228560000000 1.0
C      1  0.5008210000000  0.4375340000000  0.4719790000000 1.0
C      1  0.4423780000000  0.4792750000000  0.5265780000000 1.0
C      1  0.5283570000000  0.5667500000000  0.4236020000000 1.0
C      1  0.4723330000000  0.5321230000000  0.4044350000000 1.0
C      1  0.5507180000000  0.4917830000000  0.4548700000000 1.0
END
