TITL C-2323477-5056-42 6.84364224563591e-05 125000 -345.988041654412 0 0 60 (C3) n - 1
REM
REM in /home/bkarasulu/CARBON/AIRSS/Generating-Clusters/LCBOP/Higher-Symm/Only-C60/SD-CG/FIRE-HFTN
REM
REM
REM
REM
REM
REM ./C.cell (50c204cfd26239f34c78669fe23a5462)
REM
REM compiler GCC version 9.2.1 20190827 (Red Hat 9.2.1-1)
REM options -cpp -mtune=generic -march=x86-64 -g -O0 -fpre-include=/usr/include/finclude/math-vector-fortran.h
REM seed -881673044 302666785 359666850 -1198617423 857282633 1053711534 -2100518083 1889432016 881903801 482934218 190772792 -1750736548 -26876060 -1447870133 1089754053 -1309339787 1798688697 -464318094 -51763181 1664232655 -130529773 -1958657351 -1606956303 -1659713838 -1761407123 1236203637 -1923602419 -1960117369 1652368034 -1367243367 -1960698458 229981243 -865556828
REM
CELL 1.54180   50.00000   50.00000   50.00000   90.00000   90.00000   90.00000
LATT -1
SFAC C  
C      1  0.5587080000000  0.5017110000000  0.4327420000000 1.0
C      1  0.5289730000000  0.5019120000000  0.5844730000000 1.0
C      1  0.4125120000000  0.5018080000000  0.4829160000000 1.0
C      1  0.4338080000000  0.5005450000000  0.4337930000000 1.0
C      1  0.5905470000000  0.5003070000000  0.4757750000000 1.0
C      1  0.4757940000000  0.5004830000000  0.5905850000000 1.0
C      1  0.5279120000000  0.5577730000000  0.4408500000000 1.0
C      1  0.5371250000000  0.5577870000000  0.5535860000000 1.0
C      1  0.4341810000000  0.5578590000000  0.5045110000000 1.0
C      1  0.5366920000000  0.5318690000000  0.4808740000000 1.0
C      1  0.4982570000000  0.5316170000000  0.5411320000000 1.0
C      1  0.4652400000000  0.5319470000000  0.4778420000000 1.0
C      1  0.5668300000000  0.5007610000000  0.5470930000000 1.0
C      1  0.4258720000000  0.5006040000000  0.5344180000000 1.0
C      1  0.5074130000000  0.5006650000000  0.4186100000000 1.0
C      1  0.4789950000000  0.5726910000000  0.4986640000000 1.0
C      1  0.5124580000000  0.5728920000000  0.4832590000000 1.0
C      1  0.5083940000000  0.5724250000000  0.5185490000000 1.0
C      1  0.4616080000000  0.4591270000000  0.6159340000000 1.0
C      1  0.4189910000000  0.4591680000000  0.4088330000000 1.0
C      1  0.6193820000000  0.4588010000000  0.4755940000000 1.0
C      1  0.5152550000000  0.5540130000000  0.5376290000000 1.0
C      1  0.4592770000000  0.5542440000000  0.4942730000000 1.0
C      1  0.5252410000000  0.5542580000000  0.4678260000000 1.0
C      1  0.4983640000000  0.4788750000000  0.5339750000000 1.0
C      1  0.4714500000000  0.4792430000000  0.4816270000000 1.0
C      1  0.5302140000000  0.4791980000000  0.4844290000000 1.0
C      1  0.5802530000000  0.5150380000000  0.4990560000000 1.0
C      1  0.4607490000000  0.5150650000000  0.5699510000000 1.0
C      1  0.4591840000000  0.5151600000000  0.4310390000000 1.0
C      1  0.4621930000000  0.4750140000000  0.5940130000000 1.0
C      1  0.4376620000000  0.4750670000000  0.4203170000000 1.0
C      1  0.6001640000000  0.4748240000000  0.4859500000000 1.0
C      1  0.5845510000000  0.4707830000000  0.5101860000000 1.0
C      1  0.4489570000000  0.4708080000000  0.5684320000000 1.0
C      1  0.4664350000000  0.4708770000000  0.4216890000000 1.0
C      1  0.5036870000000  0.5030120000000  0.5933760000000 1.0
C      1  0.4174580000000  0.5030240000000  0.4565720000000 1.0
C      1  0.5790510000000  0.5027940000000  0.4502020000000 1.0
C      1  0.4844970000000  0.4542330000000  0.5351370000000 1.0
C      1  0.4773010000000  0.4545020000000  0.4691910000000 1.0
C      1  0.5380800000000  0.4544060000000  0.4955650000000 1.0
C      1  0.5339080000000  0.5007280000000  0.4225820000000 1.0
C      1  0.5501610000000  0.5008850000000  0.5680670000000 1.0
C      1  0.4161030000000  0.5007250000000  0.5094710000000 1.0
C      1  0.4919570000000  0.4333740000000  0.5192020000000 1.0
C      1  0.4871350000000  0.4336840000000  0.4838890000000 1.0
C      1  0.5207150000000  0.4333700000000  0.4959580000000 1.0
C      1  0.4416870000000  0.4968940000000  0.5571660000000 1.0
C      1  0.4798080000000  0.4969740000000  0.4209770000000 1.0
C      1  0.5785670000000  0.4969470000000  0.5220150000000 1.0
C      1  0.5631030000000  0.4527990000000  0.5083460000000 1.0
C      1  0.4612050000000  0.4527000000000  0.5508650000000 1.0
C      1  0.4754950000000  0.4528270000000  0.4411550000000 1.0
C      1  0.5612630000000  0.5349770000000  0.4944080000000 1.0
C      1  0.4742560000000  0.5348580000000  0.5556220000000 1.0
C      1  0.4647910000000  0.5350770000000  0.4497960000000 1.0
C      1  0.4694860000000  0.5054720000000  0.4866230000000 1.0
C      1  0.5269270000000  0.5054190000000  0.4801880000000 1.0
C      1  0.5037190000000  0.5050970000000  0.5332030000000 1.0
END
