TITL C-2323478-8180-205 1.97090130474696e-06 125000 -368.258658984892 0 0 60 (C5) n - 1
REM
REM in /home/bkarasulu/CARBON/AIRSS/Generating-Clusters/LCBOP/Higher-Symm/Only-C60/SD-CG/FIRE-HFTN
REM
REM
REM
REM
REM
REM ./C.cell (50c204cfd26239f34c78669fe23a5462)
REM
REM compiler GCC version 9.2.1 20190827 (Red Hat 9.2.1-1)
REM options -cpp -mtune=generic -march=x86-64 -g -O0 -fpre-include=/usr/include/finclude/math-vector-fortran.h
REM seed 1991696130 1662422716 1161121906 -54979671 1037264631 -740319735 450540157 -1445973674 1811065076 -558757441 -1596674695 -1621992661 -322960261 1420498747 -1781202967 1914868196 -1414856829 2059371702 1951026918 -490777213 -689020041 -1584144951 -1410635691 921705835 1174144284 25087600 -2002128608 677359543 -510259913 -163767646 1869887839 1481382861 -72296669
REM
CELL 1.54180   50.00000   50.00000   50.00000   90.00000   90.00000   90.00000
LATT -1
SFAC C  
C      1  0.5372580000000  0.5441050000000  0.4698670000000 1.0
C      1  0.5372580000000  0.4849710000000  0.4487420000000 1.0
C      1  0.5372580000000  0.4466070000000  0.4984540000000 1.0
C      1  0.5372580000000  0.4820310000000  0.5503020000000 1.0
C      1  0.5372580000000  0.5422870000000  0.5326340000000 1.0
C      1  0.4627420000000  0.5441040000000  0.4698670000000 1.0
C      1  0.4627420000000  0.4849710000000  0.4487430000000 1.0
C      1  0.4627420000000  0.4466070000000  0.4984540000000 1.0
C      1  0.4627420000000  0.4820300000000  0.5503020000000 1.0
C      1  0.4627420000000  0.5422870000000  0.5326340000000 1.0
C      1  0.4852920000000  0.5852030000000  0.4955410000000 1.0
C      1  0.4852920000000  0.5220880000000  0.4175890000000 1.0
C      1  0.4852920000000  0.4284480000000  0.4535260000000 1.0
C      1  0.4852930000000  0.4336900000000  0.5536890000000 1.0
C      1  0.4852920000000  0.5305700000000  0.5796550000000 1.0
C      1  0.5147070000000  0.5852030000000  0.4955410000000 1.0
C      1  0.5147080000000  0.5220890000000  0.4175890000000 1.0
C      1  0.5147080000000  0.4284480000000  0.4535260000000 1.0
C      1  0.5147080000000  0.4336900000000  0.5536890000000 1.0
C      1  0.5147080000000  0.5305700000000  0.5796550000000 1.0
C      1  0.5340640000000  0.4370770000000  0.4354200000000 1.0
C      1  0.5340640000000  0.4191370000000  0.5398870000000 1.0
C      1  0.5340640000000  0.5129470000000  0.5892310000000 1.0
C      1  0.5340630000000  0.5888650000000  0.5152610000000 1.0
C      1  0.5340630000000  0.5419750000000  0.4202010000000 1.0
C      1  0.4659370000000  0.4370770000000  0.4354210000000 1.0
C      1  0.4659370000000  0.4191370000000  0.5398870000000 1.0
C      1  0.4659360000000  0.5129470000000  0.5892310000000 1.0
C      1  0.4659360000000  0.5888640000000  0.5152610000000 1.0
C      1  0.4659360000000  0.5419740000000  0.4202010000000 1.0
C      1  0.5199480000000  0.4612000000000  0.5558760000000 1.0
C      1  0.5199480000000  0.5411520000000  0.5541680000000 1.0
C      1  0.5199480000000  0.5642330000000  0.4776010000000 1.0
C      1  0.5199480000000  0.4985470000000  0.4319890000000 1.0
C      1  0.5199480000000  0.4348690000000  0.4803660000000 1.0
C      1  0.4800520000000  0.4612000000000  0.5558770000000 1.0
C      1  0.4800520000000  0.5411520000000  0.5541680000000 1.0
C      1  0.4800520000000  0.5642330000000  0.4776010000000 1.0
C      1  0.4800520000000  0.4985470000000  0.4319890000000 1.0
C      1  0.4800520000000  0.4348680000000  0.4803660000000 1.0
C      1  0.5406720000000  0.4749050000000  0.4993440000000 1.0
C      1  0.5406720000000  0.4916210000000  0.5236640000000 1.0
C      1  0.5406720000000  0.5199170000000  0.5152810000000 1.0
C      1  0.5406720000000  0.5206880000000  0.4857800000000 1.0
C      1  0.5406720000000  0.4928690000000  0.4759300000000 1.0
C      1  0.4593280000000  0.4749040000000  0.4993440000000 1.0
C      1  0.4593280000000  0.4916210000000  0.5236650000000 1.0
C      1  0.4593280000000  0.5199170000000  0.5152810000000 1.0
C      1  0.4593280000000  0.5206880000000  0.4857800000000 1.0
C      1  0.4593280000000  0.4928690000000  0.4759300000000 1.0
C      1  0.4530400000000  0.5467550000000  0.4434550000000 1.0
C      1  0.4530410000000  0.4606710000000  0.4380600000000 1.0
C      1  0.4530410000000  0.4289380000000  0.5182640000000 1.0
C      1  0.4530410000000  0.4954100000000  0.5732280000000 1.0
C      1  0.4530400000000  0.5682250000000  0.5269930000000 1.0
C      1  0.5469590000000  0.5467550000000  0.4434550000000 1.0
C      1  0.5469600000000  0.4606710000000  0.4380600000000 1.0
C      1  0.5469600000000  0.4289390000000  0.5182640000000 1.0
C      1  0.5469600000000  0.4954110000000  0.5732270000000 1.0
C      1  0.5469590000000  0.5682260000000  0.5269930000000 1.0
END
