TITL C-2323479-8056-425 9402.71260646532 125000 -358.066659854538 0 0 60 (Cs) n - 1
REM
REM in /home/bkarasulu/CARBON/AIRSS/Generating-Clusters/LCBOP/Higher-Symm/Only-C60/SD-CG/FIRE-HFTN
REM
REM
REM
REM
REM
REM ./C.cell (50c204cfd26239f34c78669fe23a5462)
REM
REM compiler GCC version 9.2.1 20190827 (Red Hat 9.2.1-1)
REM options -cpp -mtune=generic -march=x86-64 -g -O0 -fpre-include=/usr/include/finclude/math-vector-fortran.h
REM seed -1284439882 -403806130 274555942 -325687354 821665292 1879313248 36118120 1257692508 1262679273 -992908361 -2037701550 1095179675 -1480902473 -1250085424 948949925 1336467277 1091371985 1674536448 368986529 -1507883799 -345532140 -1601065813 -1335385689 -705498912 -1832804552 818771094 1563802027 1587808888 -1834444638 -217383132 1281015647 -492475731 -2094898321
REM
CELL 1.54180   50.00000   50.00000   50.00000   90.00000   90.00000   90.00000
LATT -1
SFAC C  
C      1  0.5125920000000  0.5342590000000  0.5600370000000 1.0
C      1  0.5126680000000  0.4547170000000  0.5507670000000 1.0
C      1  0.5125120000000  0.4369020000000  0.4726390000000 1.0
C      1  0.5134060000000  0.5059360000000  0.4316700000000 1.0
C      1  0.5139270000000  0.5663220000000  0.4858330000000 1.0
C      1  0.5125690000000  0.4830200000000  0.5666350000000 1.0
C      1  0.5126400000000  0.4321320000000  0.5047350000000 1.0
C      1  0.5125180000000  0.4734760000000  0.4361520000000 1.0
C      1  0.5139100000000  0.5517840000000  0.4562020000000 1.0
C      1  0.5134690000000  0.5576680000000  0.5371070000000 1.0
C      1  0.4848560000000  0.5420520000000  0.4518280000000 1.0
C      1  0.4846390000000  0.5588360000000  0.5261180000000 1.0
C      1  0.4835730000000  0.4933650000000  0.5648420000000 1.0
C      1  0.4836870000000  0.4363650000000  0.5146100000000 1.0
C      1  0.4834360000000  0.4662330000000  0.4441080000000 1.0
C      1  0.4282920000000  0.4969820000000  0.4751410000000 1.0
C      1  0.4282210000000  0.5229490000000  0.4887830000000 1.0
C      1  0.4283170000000  0.5178480000000  0.5176690000000 1.0
C      1  0.4286140000000  0.4889520000000  0.5216760000000 1.0
C      1  0.4285980000000  0.4761300000000  0.4955420000000 1.0
C      1  0.5245020000000  0.5053080000000  0.5233580000000 1.0
C      1  0.5305300000000  0.4804390000000  0.5095790000000 1.0
C      1  0.5244770000000  0.4847630000000  0.4814840000000 1.0
C      1  0.5304930000000  0.5126280000000  0.4787570000000 1.0
C      1  0.5305070000000  0.5245140000000  0.5029840000000 1.0
C      1  0.4845860000000  0.5153560000000  0.4374990000000 1.0
C      1  0.4848830000000  0.5638400000000  0.4962350000000 1.0
C      1  0.4835060000000  0.5235480000000  0.5609250000000 1.0
C      1  0.4837030000000  0.4495110000000  0.5414030000000 1.0
C      1  0.4835130000000  0.4446650000000  0.4655830000000 1.0
C      1  0.4942000000000  0.5034700000000  0.5233290000000 1.0
C      1  0.4889930000000  0.4782290000000  0.5106880000000 1.0
C      1  0.4941760000000  0.4836760000000  0.4829850000000 1.0
C      1  0.4800030000000  0.5084110000000  0.4806340000000 1.0
C      1  0.4800180000000  0.5204730000000  0.5052190000000 1.0
C      1  0.5316680000000  0.5666940000000  0.5127860000000 1.0
C      1  0.5302590000000  0.5085990000000  0.5666520000000 1.0
C      1  0.5304990000000  0.4415040000000  0.5286820000000 1.0
C      1  0.5301900000000  0.4525330000000  0.4523820000000 1.0
C      1  0.5316250000000  0.5306860000000  0.4393970000000 1.0
C      1  0.4673920000000  0.4911320000000  0.4405990000000 1.0
C      1  0.4682230000000  0.5534750000000  0.4737820000000 1.0
C      1  0.4674540000000  0.5415690000000  0.5433960000000 1.0
C      1  0.4671720000000  0.4715440000000  0.5529500000000 1.0
C      1  0.4671340000000  0.4407240000000  0.4901340000000 1.0
C      1  0.5473610000000  0.5068000000000  0.5432930000000 1.0
C      1  0.5495820000000  0.4614270000000  0.5188960000000 1.0
C      1  0.5473160000000  0.4698990000000  0.4680830000000 1.0
C      1  0.5505080000000  0.5209110000000  0.4601400000000 1.0
C      1  0.5505370000000  0.5442980000000  0.5078060000000 1.0
C      1  0.5721800000000  0.4821300000000  0.4811420000000 1.0
C      1  0.5743260000000  0.5125680000000  0.4762200000000 1.0
C      1  0.5743430000000  0.5264630000000  0.5045410000000 1.0
C      1  0.5722060000000  0.5039450000000  0.5256040000000 1.0
C      1  0.5737830000000  0.4765760000000  0.5114480000000 1.0
C      1  0.4414610000000  0.5452850000000  0.4778160000000 1.0
C      1  0.4410290000000  0.5350870000000  0.5358870000000 1.0
C      1  0.4411360000000  0.4769150000000  0.5436780000000 1.0
C      1  0.4411050000000  0.4513570000000  0.4915860000000 1.0
C      1  0.4409770000000  0.4931170000000  0.4503460000000 1.0
END
