TITL C-2323490-8774-373 0.00109158878445552 125000 -359.404402677579 0 0 60 (Ci) n - 1
REM
REM in /home/bkarasulu/CARBON/AIRSS/Generating-Clusters/LCBOP/Higher-Symm/Only-C60/SD-CG/FIRE-HFTN
REM
REM
REM
REM
REM
REM ./C.cell (50c204cfd26239f34c78669fe23a5462)
REM
REM compiler GCC version 9.2.1 20190827 (Red Hat 9.2.1-1)
REM options -cpp -mtune=generic -march=x86-64 -g -O0 -fpre-include=/usr/include/finclude/math-vector-fortran.h
REM seed -1929252016 1611439736 -1396103479 -1255654966 153701324 610771798 735711049 896858193 -327196490 -1266802624 -395327308 -1528956124 -1293674795 1728828763 -1794903332 1256147848 -1549035589 -97357843 -1613987436 -2106093216 -1675361571 -1951430444 -942356526 486839586 -1186339185 16844555 960862989 631217721 -171605754 1390487835 -415945555 -2034083661 -1125420561
REM
CELL 1.54180   50.00000   50.00000   50.00000   90.00000   90.00000   90.00000
LATT -1
SFAC C  
C      1  0.4529890000000  0.5729940000000  0.4163070000000 1.0
C      1  0.5346640000000  0.5905590000000  0.5992420000000 1.0
C      1  0.5986850000000  0.5071660000000  0.4005840000000 1.0
C      1  0.5470110000000  0.4270060000000  0.5836930000000 1.0
C      1  0.4653360000000  0.4094410000000  0.4007580000000 1.0
C      1  0.4013150000000  0.4928340000000  0.5994160000000 1.0
C      1  0.4458320000000  0.5293920000000  0.4315660000000 1.0
C      1  0.5001810000000  0.5673750000000  0.5777060000000 1.0
C      1  0.5659380000000  0.5256140000000  0.4284020000000 1.0
C      1  0.5541680000000  0.4706080000000  0.5684340000000 1.0
C      1  0.4998190000000  0.4326250000000  0.4222940000000 1.0
C      1  0.4340620000000  0.4743860000000  0.5715980000000 1.0
C      1  0.4128640000000  0.4552620000000  0.5770240000000 1.0
C      1  0.4206740000000  0.5429560000000  0.4261100000000 1.0
C      1  0.4928890000000  0.5951440000000  0.5825690000000 1.0
C      1  0.5871360000000  0.5447380000000  0.4229760000000 1.0
C      1  0.5793260000000  0.4570440000000  0.5738900000000 1.0
C      1  0.5071110000000  0.4048560000000  0.4174310000000 1.0
C      1  0.5228200000000  0.5075040000000  0.5143890000000 1.0
C      1  0.5032910000000  0.4856770000000  0.4760650000000 1.0
C      1  0.4755250000000  0.4981530000000  0.5134270000000 1.0
C      1  0.4771800000000  0.4924960000000  0.4856110000000 1.0
C      1  0.4967090000000  0.5143230000000  0.5239350000000 1.0
C      1  0.5244750000000  0.5018470000000  0.4865730000000 1.0
C      1  0.4671240000000  0.5491280000000  0.4252020000000 1.0
C      1  0.5277330000000  0.5644930000000  0.5884180000000 1.0
C      1  0.5735510000000  0.5009200000000  0.4137370000000 1.0
C      1  0.5328760000000  0.4508720000000  0.5747980000000 1.0
C      1  0.4722670000000  0.4355070000000  0.4115820000000 1.0
C      1  0.4264490000000  0.4990800000000  0.5862630000000 1.0
C      1  0.3937430000000  0.4667530000000  0.5935770000000 1.0
C      1  0.4255640000000  0.5687420000000  0.4170810000000 1.0
C      1  0.5136780000000  0.6083320000000  0.5954210000000 1.0
C      1  0.6062570000000  0.5332470000000  0.4064230000000 1.0
C      1  0.5744360000000  0.4312580000000  0.5829190000000 1.0
C      1  0.4863220000000  0.3916680000000  0.4045790000000 1.0
C      1  0.5433300000000  0.5417280000000  0.5867050000000 1.0
C      1  0.5587310000000  0.4775730000000  0.4138810000000 1.0
C      1  0.5054800000000  0.4540430000000  0.5725510000000 1.0
C      1  0.4566700000000  0.4582720000000  0.4132950000000 1.0
C      1  0.4412690000000  0.5224270000000  0.5861190000000 1.0
C      1  0.4945200000000  0.5459570000000  0.4274490000000 1.0
C      1  0.4922450000000  0.5343400000000  0.5427610000000 1.0
C      1  0.5406270000000  0.5159620000000  0.4687760000000 1.0
C      1  0.5428640000000  0.5017000000000  0.5328190000000 1.0
C      1  0.5077550000000  0.4656600000000  0.4572390000000 1.0
C      1  0.4593730000000  0.4840380000000  0.5312240000000 1.0
C      1  0.4571360000000  0.4983000000000  0.4671810000000 1.0
C      1  0.5505880000000  0.4968050000000  0.5592880000000 1.0
C      1  0.5155650000000  0.4528210000000  0.4336250000000 1.0
C      1  0.4572900000000  0.4716250000000  0.5562630000000 1.0
C      1  0.4494120000000  0.5031950000000  0.4407120000000 1.0
C      1  0.4844350000000  0.5471790000000  0.5663750000000 1.0
C      1  0.5427100000000  0.5283750000000  0.4437370000000 1.0
C      1  0.4485020000000  0.4815440000000  0.4230400000000 1.0
C      1  0.4610840000000  0.5386330000000  0.5792020000000 1.0
C      1  0.5198770000000  0.5406880000000  0.4331750000000 1.0
C      1  0.5514980000000  0.5184560000000  0.5769600000000 1.0
C      1  0.5389160000000  0.4613670000000  0.4207980000000 1.0
C      1  0.4801230000000  0.4593120000000  0.5668250000000 1.0
END
