TITL C-2323482-8828-517 -0.0393537143762908 125000 -361.011236093276 0 0 60 (C1) n - 1
REM
REM in /home/bkarasulu/CARBON/AIRSS/Generating-Clusters/LCBOP/Higher-Symm/Only-C60/SD-CG/FIRE-HFTN
REM
REM
REM
REM
REM
REM ./C.cell (50c204cfd26239f34c78669fe23a5462)
REM
REM compiler GCC version 9.2.1 20190827 (Red Hat 9.2.1-1)
REM options -cpp -mtune=generic -march=x86-64 -g -O0 -fpre-include=/usr/include/finclude/math-vector-fortran.h
REM seed -501456576 -29405523 1400625640 -466930392 -1022700793 1009443225 571365818 -1309044600 -1177979090 699873022 -1360078003 800233087 -503273695 97700217 -1854568502 761733290 1488147021 -120385840 -180634982 1033375702 690113719 -852888891 2133685313 -688894385 -288729244 1336226503 -540022915 -2012384588 1552462381 -1143208989 -2084393256 2092793983 -1121307886
REM
CELL 1.54180   50.00000   50.00000   50.00000   90.00000   90.00000   90.00000
LATT -1
SFAC C  
C      1  0.4421250000000  0.4449120000000  0.5302690000000 1.0
C      1  0.4843390000000  0.4697290000000  0.5264410000000 1.0
C      1  0.5505380000000  0.5670130000000  0.5388300000000 1.0
C      1  0.4885940000000  0.4411940000000  0.4460560000000 1.0
C      1  0.5579550000000  0.5013240000000  0.4387080000000 1.0
C      1  0.4745270000000  0.5857140000000  0.6132840000000 1.0
C      1  0.4938730000000  0.5463010000000  0.5556370000000 1.0
C      1  0.5170510000000  0.4407720000000  0.4431000000000 1.0
C      1  0.4292280000000  0.4217640000000  0.5321080000000 1.0
C      1  0.4846900000000  0.5722830000000  0.5617460000000 1.0
C      1  0.4850950000000  0.5389140000000  0.4381900000000 1.0
C      1  0.5246540000000  0.5232270000000  0.6019910000000 1.0
C      1  0.4582930000000  0.4632480000000  0.5167710000000 1.0
C      1  0.4715850000000  0.5910760000000  0.6386260000000 1.0
C      1  0.4897400000000  0.4739590000000  0.5536520000000 1.0
C      1  0.5421000000000  0.5792710000000  0.5148150000000 1.0
C      1  0.4870410000000  0.5908740000000  0.5135580000000 1.0
C      1  0.4619100000000  0.3935320000000  0.4361150000000 1.0
C      1  0.5383510000000  0.5536010000000  0.4729260000000 1.0
C      1  0.4735950000000  0.4179070000000  0.4433310000000 1.0
C      1  0.5005440000000  0.5303600000000  0.5334210000000 1.0
C      1  0.5427140000000  0.4527000000000  0.4439840000000 1.0
C      1  0.5328550000000  0.5136430000000  0.5002590000000 1.0
C      1  0.5305910000000  0.5584900000000  0.4463510000000 1.0
C      1  0.5488470000000  0.4770850000000  0.4301860000000 1.0
C      1  0.4824810000000  0.5901250000000  0.5400160000000 1.0
C      1  0.4972490000000  0.5721630000000  0.4948890000000 1.0
C      1  0.5482950000000  0.5276540000000  0.4802200000000 1.0
C      1  0.5805660000000  0.4906860000000  0.4790300000000 1.0
C      1  0.4804240000000  0.5489080000000  0.4906410000000 1.0
C      1  0.4665190000000  0.3827520000000  0.4107720000000 1.0
C      1  0.4580820000000  0.5103160000000  0.4582300000000 1.0
C      1  0.4999220000000  0.4849540000000  0.5756800000000 1.0
C      1  0.5276290000000  0.5241960000000  0.5260440000000 1.0
C      1  0.4569840000000  0.4818910000000  0.4659670000000 1.0
C      1  0.4710010000000  0.3728820000000  0.3870710000000 1.0
C      1  0.5366060000000  0.5470780000000  0.6017220000000 1.0
C      1  0.4456200000000  0.3800240000000  0.4543810000000 1.0
C      1  0.4661320000000  0.5412270000000  0.4682500000000 1.0
C      1  0.5654390000000  0.5103510000000  0.4648360000000 1.0
C      1  0.5178910000000  0.4918780000000  0.4901630000000 1.0
C      1  0.5121390000000  0.5017370000000  0.5923920000000 1.0
C      1  0.4946270000000  0.4885360000000  0.4419870000000 1.0
C      1  0.5075890000000  0.5538360000000  0.4334610000000 1.0
C      1  0.5262390000000  0.5704770000000  0.4928410000000 1.0
C      1  0.5045880000000  0.4745920000000  0.5075710000000 1.0
C      1  0.4502580000000  0.4731310000000  0.4916490000000 1.0
C      1  0.4767630000000  0.4667060000000  0.4498070000000 1.0
C      1  0.4222170000000  0.3984080000000  0.5215220000000 1.0
C      1  0.4233780000000  0.3814810000000  0.5010560000000 1.0
C      1  0.5524990000000  0.5780020000000  0.5645500000000 1.0
C      1  0.5612160000000  0.4471250000000  0.4648700000000 1.0
C      1  0.4321030000000  0.3753320000000  0.4767280000000 1.0
C      1  0.5136580000000  0.4921100000000  0.4624000000000 1.0
C      1  0.4782670000000  0.5798290000000  0.5877250000000 1.0
C      1  0.4787480000000  0.5111870000000  0.4347520000000 1.0
C      1  0.4817250000000  0.5307630000000  0.5123440000000 1.0
C      1  0.5482470000000  0.5387500000000  0.5382920000000 1.0
C      1  0.5467210000000  0.5682500000000  0.5889040000000 1.0
C      1  0.5773400000000  0.4637690000000  0.4788820000000 1.0
END
