TITL C-2323490-8774-115 1.02912372608608e-05 125000 -373.022165597545 0 0 60 (C5) n - 1
REM
REM in /home/bkarasulu/CARBON/AIRSS/Generating-Clusters/LCBOP/Higher-Symm/Only-C60/SD-CG/FIRE-HFTN
REM
REM
REM
REM
REM
REM ./C.cell (50c204cfd26239f34c78669fe23a5462)
REM
REM compiler GCC version 9.2.1 20190827 (Red Hat 9.2.1-1)
REM options -cpp -mtune=generic -march=x86-64 -g -O0 -fpre-include=/usr/include/finclude/math-vector-fortran.h
REM seed 282834570 456706392 1189195108 -1199931424 153856722 -381039185 -306885072 806634396 1236676088 -1700309906 -26225307 1292753624 -1367081782 -182981428 148766077 704390054 -100836083 2019434467 1032925987 -2136013205 -326610699 249298647 544247531 518466548 1826061578 -334202385 1062257003 1602625655 343469188 -190661619 1870769660 1312706846 635333649
REM
CELL 1.54180   50.00000   50.00000   50.00000   90.00000   90.00000   90.00000
LATT -1
SFAC C  
C      1  0.4611430000000  0.4469190000000  0.5182600000000 1.0
C      1  0.4375090000000  0.5205520000000  0.5182600000000 1.0
C      1  0.5002360000000  0.5657830000000  0.5182610000000 1.0
C      1  0.5626360000000  0.5201040000000  0.5182620000000 1.0
C      1  0.5384750000000  0.4466420000000  0.5182610000000 1.0
C      1  0.5634520000000  0.5252630000000  0.5468110000000 1.0
C      1  0.5436340000000  0.4474590000000  0.5468100000000 1.0
C      1  0.4635140000000  0.4422650000000  0.5468090000000 1.0
C      1  0.4338160000000  0.5168590000000  0.5468090000000 1.0
C      1  0.4955810000000  0.5681540000000  0.5468100000000 1.0
C      1  0.4568680000000  0.5086020000000  0.5612110000000 1.0
C      1  0.4948530000000  0.5436780000000  0.5612110000000 1.0
C      1  0.5399490000000  0.5183920000000  0.5612120000000 1.0
C      1  0.5298360000000  0.4676890000000  0.5612120000000 1.0
C      1  0.4784900000000  0.4616380000000  0.5612110000000 1.0
C      1  0.5420770000000  0.4692210000000  0.4747090000000 1.0
C      1  0.4837300000000  0.4504710000000  0.4747080000000 1.0
C      1  0.4478680000000  0.5001690000000  0.4747080000000 1.0
C      1  0.4840510000000  0.5496330000000  0.4747080000000 1.0
C      1  0.5422750000000  0.5305060000000  0.4747090000000 1.0
C      1  0.5198430000000  0.4849000000000  0.4147160000000 1.0
C      1  0.4917710000000  0.4764630000000  0.4147160000000 1.0
C      1  0.4750730000000  0.5005540000000  0.4147160000000 1.0
C      1  0.4928240000000  0.5238800000000  0.4147160000000 1.0
C      1  0.5204940000000  0.5142050000000  0.4147160000000 1.0
C      1  0.4929170000000  0.5230920000000  0.4738500000000 1.0
C      1  0.5197730000000  0.5138730000000  0.4738500000000 1.0
C      1  0.5193040000000  0.4854820000000  0.4738500000000 1.0
C      1  0.4921580000000  0.4771550000000  0.4738500000000 1.0
C      1  0.4758500000000  0.5003990000000  0.4738500000000 1.0
C      1  0.4969600000000  0.5257260000000  0.5846630000000 1.0
C      1  0.5235270000000  0.5108400000000  0.5846630000000 1.0
C      1  0.5175790000000  0.4809730000000  0.5846630000000 1.0
C      1  0.4873360000000  0.4774000000000  0.5846620000000 1.0
C      1  0.4745930000000  0.5050600000000  0.5846620000000 1.0
C      1  0.5509030000000  0.4616900000000  0.4490560000000 1.0
C      1  0.4792950000000  0.4397510000000  0.4490550000000 1.0
C      1  0.4363020000000  0.5010740000000  0.4490540000000 1.0
C      1  0.4813380000000  0.5609130000000  0.4490550000000 1.0
C      1  0.5521650000000  0.5365730000000  0.4490560000000 1.0
C      1  0.5521180000000  0.4668940000000  0.5013790000000 1.0
C      1  0.4846200000000  0.4402020000000  0.5013780000000 1.0
C      1  0.4383760000000  0.4961490000000  0.5013780000000 1.0
C      1  0.4772940000000  0.5574180000000  0.5013790000000 1.0
C      1  0.5475910000000  0.5393370000000  0.5013790000000 1.0
C      1  0.4529800000000  0.5443710000000  0.5109120000000 1.0
C      1  0.5276690000000  0.5584300000000  0.5109130000000 1.0
C      1  0.5641200000000  0.4917410000000  0.5109130000000 1.0
C      1  0.5119590000000  0.4364650000000  0.5109130000000 1.0
C      1  0.4432710000000  0.4689930000000  0.5109120000000 1.0
C      1  0.5420070000000  0.5291450000000  0.4250810000000 1.0
C      1  0.5406990000000  0.4690560000000  0.4250810000000 1.0
C      1  0.4831480000000  0.4517310000000  0.4250800000000 1.0
C      1  0.4488870000000  0.5011120000000  0.4250800000000 1.0
C      1  0.4852630000000  0.5489560000000  0.4250810000000 1.0
C      1  0.4968880000000  0.5239270000000  0.5393540000000 1.0
C      1  0.5217940000000  0.5103530000000  0.5393540000000 1.0
C      1  0.5165810000000  0.4824710000000  0.5393540000000 1.0
C      1  0.4884530000000  0.4788140000000  0.5393530000000 1.0
C      1  0.4762820000000  0.5044350000000  0.5393530000000 1.0
END
