TITL C-2323487-9546-130 -141325.024736441 125000 -346.072160554203 0 0 60 (C1) n - 1
REM
REM in /home/bkarasulu/CARBON/AIRSS/Generating-Clusters/LCBOP/Higher-Symm/Only-C60/SD-CG/FIRE-HFTN
REM
REM
REM
REM
REM
REM ./C.cell (50c204cfd26239f34c78669fe23a5462)
REM
REM compiler GCC version 9.2.1 20190827 (Red Hat 9.2.1-1)
REM options -cpp -mtune=generic -march=x86-64 -g -O0 -fpre-include=/usr/include/finclude/math-vector-fortran.h
REM seed 1461998210 887934107 13953257 1752183578 165818444 -288698436 2146854034 -1536109349 -1622800650 -878767738 -2137868320 359355641 -1985449083 1184595431 1920145806 1273724504 1833345861 -1771608436 908399560 2119198540 -14244020 2146015295 45329941 621196728 1009930588 20645773 1295005008 -1829297647 -372330065 350986993 2035346414 -281160133 809127591
REM
CELL 1.54180   50.00000   50.00000   50.00000   90.00000   90.00000   90.00000
LATT -1
SFAC C  
C      1  0.4976660000000  0.5575870000000  0.4562210000000 1.0
C      1  0.4621890000000  0.5382190000000  0.5393730000000 1.0
C      1  0.4430150000000  0.4864890000000  0.4597550000000 1.0
C      1  0.4904180000000  0.4347590000000  0.5351860000000 1.0
C      1  0.5560970000000  0.4576310000000  0.4648180000000 1.0
C      1  0.5531010000000  0.5296900000000  0.5404250000000 1.0
C      1  0.4966530000000  0.4561130000000  0.5536500000000 1.0
C      1  0.5408510000000  0.4729560000000  0.4453490000000 1.0
C      1  0.5192410000000  0.5194280000000  0.5568370000000 1.0
C      1  0.4899990000000  0.5312400000000  0.4450980000000 1.0
C      1  0.4844670000000  0.5219560000000  0.5504790000000 1.0
C      1  0.4662570000000  0.4990550000000  0.4459390000000 1.0
C      1  0.4905590000000  0.5779310000000  0.5420770000000 1.0
C      1  0.4250540000000  0.5321660000000  0.4618680000000 1.0
C      1  0.4442260000000  0.4536950000000  0.5362880000000 1.0
C      1  0.5159980000000  0.4275650000000  0.4634890000000 1.0
C      1  0.5656130000000  0.4788780000000  0.5421140000000 1.0
C      1  0.5481550000000  0.5416800000000  0.4571030000000 1.0
C      1  0.4118140000000  0.4999530000000  0.4945610000000 1.0
C      1  0.4573590000000  0.4224810000000  0.5018360000000 1.0
C      1  0.5517630000000  0.4223780000000  0.4968820000000 1.0
C      1  0.5860170000000  0.5097960000000  0.5113240000000 1.0
C      1  0.5323230000000  0.5758410000000  0.4860400000000 1.0
C      1  0.4529350000000  0.5761360000000  0.5121950000000 1.0
C      1  0.4540620000000  0.4645570000000  0.4789030000000 1.0
C      1  0.5118780000000  0.4394740000000  0.5149470000000 1.0
C      1  0.5595670000000  0.4782830000000  0.4868170000000 1.0
C      1  0.5403400000000  0.5392000000000  0.5171310000000 1.0
C      1  0.4847030000000  0.5541400000000  0.4839730000000 1.0
C      1  0.4486790000000  0.5215860000000  0.5168340000000 1.0
C      1  0.5660080000000  0.5237180000000  0.4675230000000 1.0
C      1  0.5154430000000  0.5782680000000  0.5319760000000 1.0
C      1  0.4378660000000  0.5542260000000  0.4703320000000 1.0
C      1  0.4317690000000  0.4775210000000  0.5330110000000 1.0
C      1  0.4887840000000  0.4298810000000  0.4652350000000 1.0
C      1  0.5555280000000  0.4542580000000  0.5352900000000 1.0
C      1  0.4656640000000  0.5663200000000  0.5355330000000 1.0
C      1  0.4226620000000  0.5047630000000  0.4687910000000 1.0
C      1  0.4626620000000  0.4334760000000  0.5274640000000 1.0
C      1  0.5436920000000  0.4323680000000  0.4714530000000 1.0
C      1  0.5711020000000  0.5069490000000  0.5358420000000 1.0
C      1  0.5271180000000  0.5611870000000  0.4619370000000 1.0
C      1  0.5403310000000  0.4352130000000  0.5194360000000 1.0
C      1  0.5749230000000  0.5031610000000  0.4859730000000 1.0
C      1  0.5320070000000  0.5661100000000  0.5126400000000 1.0
C      1  0.4581270000000  0.5641000000000  0.4872400000000 1.0
C      1  0.4272440000000  0.5016940000000  0.5182740000000 1.0
C      1  0.4634810000000  0.4366450000000  0.4779610000000 1.0
C      1  0.4816910000000  0.4982950000000  0.5344720000000 1.0
C      1  0.4880160000000  0.4868830000000  0.4610800000000 1.0
C      1  0.5034730000000  0.4797070000000  0.5365070000000 1.0
C      1  0.5230270000000  0.4887300000000  0.4618770000000 1.0
C      1  0.5241120000000  0.4978500000000  0.5432660000000 1.0
C      1  0.5038250000000  0.5155820000000  0.4650500000000 1.0
C      1  0.4737410000000  0.5063270000000  0.5064260000000 1.0
C      1  0.4794550000000  0.4794550000000  0.4889090000000 1.0
C      1  0.5067820000000  0.4687680000000  0.5064300000000 1.0
C      1  0.5298830000000  0.4866650000000  0.4916960000000 1.0
C      1  0.5240530000000  0.5158470000000  0.5075870000000 1.0
C      1  0.4965330000000  0.5251680000000  0.4932810000000 1.0
END
