TITL C-2323489-8765-424 0.00250454748816647 125000 -355.307625725497 0 0 60 (Cs) n - 1
REM
REM in /home/bkarasulu/CARBON/AIRSS/Generating-Clusters/LCBOP/Higher-Symm/Only-C60/SD-CG/FIRE-HFTN
REM
REM
REM
REM
REM
REM ./C.cell (50c204cfd26239f34c78669fe23a5462)
REM
REM compiler GCC version 9.2.1 20190827 (Red Hat 9.2.1-1)
REM options -cpp -mtune=generic -march=x86-64 -g -O0 -fpre-include=/usr/include/finclude/math-vector-fortran.h
REM seed -1289831916 989033460 -1173485766 -1237488735 2132044659 1309386725 -690656976 -510709402 1437437285 1524900063 377293582 -320560812 -772047980 -97722498 972146409 -840162076 508606029 1750844348 892183808 842046848 -1474895493 2098348877 518964127 384898767 584971580 391778541 -1024090784 95163557 -1969552564 -1372633475 1495833987 -826541917 -658164315
REM
CELL 1.54180   50.00000   50.00000   50.00000   90.00000   90.00000   90.00000
LATT -1
SFAC C  
C      1  0.5313970000000  0.5723460000000  0.4936780000000 1.0
C      1  0.4904610000000  0.5275500000000  0.5687010000000 1.0
C      1  0.5622470000000  0.4879560000000  0.5222510000000 1.0
C      1  0.4693270000000  0.4317230000000  0.4887290000000 1.0
C      1  0.4741970000000  0.5719750000000  0.5119060000000 1.0
C      1  0.5269730000000  0.4289520000000  0.5071810000000 1.0
C      1  0.5039440000000  0.4692590000000  0.5754710000000 1.0
C      1  0.5101190000000  0.5305650000000  0.4317070000000 1.0
C      1  0.4889890000000  0.4747430000000  0.4291710000000 1.0
C      1  0.4296450000000  0.5104050000000  0.5284250000000 1.0
C      1  0.4286800000000  0.4952210000000  0.4704130000000 1.0
C      1  0.5682940000000  0.5085620000000  0.4706800000000 1.0
C      1  0.5687010000000  0.5275500000000  0.4904620000000 1.0
C      1  0.5222510000000  0.4879560000000  0.5622470000000 1.0
C      1  0.4936780000000  0.5723460000000  0.5313970000000 1.0
C      1  0.4291710000000  0.4747430000000  0.4889890000000 1.0
C      1  0.5754710000000  0.4692590000000  0.5039440000000 1.0
C      1  0.4317070000000  0.5305650000000  0.5101190000000 1.0
C      1  0.4706800000000  0.5085620000000  0.5682940000000 1.0
C      1  0.5284250000000  0.5104050000000  0.4296450000000 1.0
C      1  0.4704130000000  0.4952210000000  0.4286800000000 1.0
C      1  0.5071810000000  0.4289520000000  0.5269730000000 1.0
C      1  0.4887290000000  0.4317230000000  0.4693270000000 1.0
C      1  0.5119060000000  0.5719750000000  0.4741970000000 1.0
C      1  0.5397070000000  0.5588490000000  0.5184650000000 1.0
C      1  0.5165510000000  0.5362670000000  0.5586730000000 1.0
C      1  0.5582470000000  0.5142150000000  0.5363300000000 1.0
C      1  0.4604720000000  0.4426280000000  0.5144500000000 1.0
C      1  0.4659170000000  0.5594890000000  0.4867940000000 1.0
C      1  0.5369490000000  0.4399100000000  0.4809720000000 1.0
C      1  0.4794490000000  0.4602980000000  0.5603790000000 1.0
C      1  0.4855740000000  0.5398070000000  0.4441440000000 1.0
C      1  0.5141530000000  0.4645700000000  0.4405030000000 1.0
C      1  0.4401060000000  0.4844060000000  0.5362580000000 1.0
C      1  0.4416530000000  0.5206740000000  0.4627400000000 1.0
C      1  0.5578470000000  0.4832410000000  0.4601380000000 1.0
C      1  0.5586730000000  0.5362670000000  0.5165510000000 1.0
C      1  0.5363300000000  0.5142150000000  0.5582470000000 1.0
C      1  0.5184650000000  0.5588490000000  0.5397070000000 1.0
C      1  0.4405030000000  0.4645700000000  0.5141530000000 1.0
C      1  0.5603790000000  0.4602980000000  0.4794490000000 1.0
C      1  0.4441440000000  0.5398070000000  0.4855740000000 1.0
C      1  0.4601380000000  0.4832410000000  0.5578470000000 1.0
C      1  0.5362580000000  0.4844060000000  0.4401060000000 1.0
C      1  0.4627400000000  0.5206740000000  0.4416530000000 1.0
C      1  0.4809720000000  0.4399100000000  0.5369490000000 1.0
C      1  0.5144500000000  0.4426280000000  0.4604720000000 1.0
C      1  0.4867940000000  0.5594890000000  0.4659170000000 1.0
C      1  0.5145950000000  0.5010210000000  0.4752370000000 1.0
C      1  0.4686960000000  0.4977190000000  0.4875990000000 1.0
C      1  0.5158580000000  0.4821510000000  0.5353630000000 1.0
C      1  0.4752370000000  0.5010210000000  0.5145950000000 1.0
C      1  0.5353630000000  0.4821510000000  0.5158580000000 1.0
C      1  0.5203680000000  0.5260480000000  0.4852250000000 1.0
C      1  0.4909120000000  0.4795800000000  0.5225720000000 1.0
C      1  0.4852250000000  0.5260480000000  0.5203680000000 1.0
C      1  0.5225720000000  0.4795800000000  0.4909120000000 1.0
C      1  0.4875990000000  0.4977190000000  0.4686960000000 1.0
C      1  0.4987990000000  0.4648830000000  0.4987990000000 1.0
C      1  0.5057220000000  0.5348550000000  0.5057220000000 1.0
END
