TITL C-2323479-8056-438 9.79939987761746 125000 -357.25968592781 0 0 60 (C3) n - 1
REM
REM in /home/bkarasulu/CARBON/AIRSS/Generating-Clusters/LCBOP/Higher-Symm/Only-C60/SD-CG/FIRE-HFTN
REM
REM
REM
REM
REM
REM ./C.cell (50c204cfd26239f34c78669fe23a5462)
REM
REM compiler GCC version 9.2.1 20190827 (Red Hat 9.2.1-1)
REM options -cpp -mtune=generic -march=x86-64 -g -O0 -fpre-include=/usr/include/finclude/math-vector-fortran.h
REM seed 2096037977 981807214 -50531863 -622123089 586418401 -1284989689 783942114 1810392199 -2051517631 1967739997 539711967 1984879042 5906056 -1655606534 1838527024 1742635906 -600968033 -1195008509 1968025132 -1411315266 507303796 -209288721 -999925246 -781416302 1484782971 -1128416250 1075062792 -1312399384 -315188862 337724593 2110562497 -1741139858 672580223
REM
CELL 1.54180   50.00000   50.00000   50.00000   90.00000   90.00000   90.00000
LATT -1
SFAC C  
C      1  0.4726600000000  0.5065590000000  0.4655610000000 1.0
C      1  0.5193120000000  0.5204490000000  0.4655700000000 1.0
C      1  0.5080150000000  0.4731020000000  0.4655210000000 1.0
C      1  0.5306480000000  0.4440310000000  0.5795170000000 1.0
C      1  0.4362940000000  0.5013230000000  0.5795900000000 1.0
C      1  0.5330880000000  0.5543900000000  0.5796340000000 1.0
C      1  0.5906320000000  0.4130170000000  0.5118210000000 1.0
C      1  0.3793680000000  0.4649840000000  0.5119030000000 1.0
C      1  0.5300040000000  0.6219610000000  0.5120520000000 1.0
C      1  0.4699590000000  0.4578910000000  0.5360980000000 1.0
C      1  0.4785940000000  0.5470170000000  0.5361930000000 1.0
C      1  0.5514610000000  0.4949760000000  0.5361280000000 1.0
C      1  0.5370950000000  0.6188810000000  0.4866780000000 1.0
C      1  0.5843920000000  0.4084540000000  0.4864470000000 1.0
C      1  0.3785080000000  0.4727080000000  0.4865420000000 1.0
C      1  0.5707900000000  0.4066860000000  0.4637600000000 1.0
C      1  0.3837520000000  0.4854050000000  0.4638680000000 1.0
C      1  0.5454440000000  0.6080250000000  0.4639790000000 1.0
C      1  0.4832930000000  0.5527580000000  0.5107470000000 1.0
C      1  0.5540550000000  0.4880740000000  0.5106690000000 1.0
C      1  0.4626560000000  0.4591340000000  0.5106490000000 1.0
C      1  0.5520810000000  0.4873960000000  0.4828000000000 1.0
C      1  0.4630250000000  0.4612250000000  0.4827830000000 1.0
C      1  0.4848880000000  0.5514350000000  0.4828770000000 1.0
C      1  0.5509090000000  0.4088520000000  0.4441840000000 1.0
C      1  0.3955470000000  0.5015700000000  0.4443030000000 1.0
C      1  0.5535240000000  0.5897580000000  0.4443770000000 1.0
C      1  0.3815890000000  0.5088640000000  0.4219620000000 1.0
C      1  0.5667950000000  0.5982320000000  0.4220350000000 1.0
C      1  0.5515870000000  0.3931550000000  0.4218170000000 1.0
C      1  0.4846430000000  0.4554730000000  0.5580540000000 1.0
C      1  0.4691820000000  0.5354760000000  0.5581420000000 1.0
C      1  0.5461970000000  0.5088640000000  0.5581040000000 1.0
C      1  0.5158580000000  0.4483300000000  0.4554720000000 1.0
C      1  0.4472740000000  0.5121680000000  0.4555490000000 1.0
C      1  0.5368510000000  0.5396450000000  0.4555670000000 1.0
C      1  0.5249280000000  0.6016530000000  0.5597660000000 1.0
C      1  0.5756370000000  0.4274950000000  0.5595730000000 1.0
C      1  0.3994570000000  0.4706600000000  0.5596410000000 1.0
C      1  0.4219380000000  0.5100910000000  0.4480700000000 1.0
C      1  0.5477120000000  0.5626360000000  0.4481110000000 1.0
C      1  0.5303300000000  0.4274400000000  0.4479680000000 1.0
C      1  0.4301260000000  0.4317890000000  0.4517730000000 1.0
C      1  0.4758110000000  0.5946900000000  0.4519420000000 1.0
C      1  0.5940450000000  0.4736760000000  0.4517980000000 1.0
C      1  0.5741960000000  0.4807200000000  0.4671430000000 1.0
C      1  0.4461690000000  0.4454340000000  0.4671210000000 1.0
C      1  0.4796230000000  0.5739510000000  0.4672550000000 1.0
C      1  0.4546600000000  0.5195170000000  0.5735810000000 1.0
C      1  0.5396540000000  0.5293970000000  0.5735810000000 1.0
C      1  0.5057130000000  0.4508500000000  0.5735020000000 1.0
C      1  0.3864790000000  0.4640720000000  0.5374490000000 1.0
C      1  0.5256880000000  0.6162200000000  0.5375950000000 1.0
C      1  0.5878470000000  0.4195870000000  0.5373760000000 1.0
C      1  0.4919650000000  0.5268810000000  0.4706320000000 1.0
C      1  0.5272650000000  0.4935620000000  0.4705920000000 1.0
C      1  0.4807590000000  0.4796510000000  0.4705820000000 1.0
C      1  0.5554440000000  0.4359370000000  0.5745910000000 1.0
C      1  0.4168810000000  0.4839040000000  0.5746600000000 1.0
C      1  0.5277030000000  0.5799190000000  0.5747490000000 1.0
END
