TITL C-2323491-8878-599 4.46764315053291e-05 125000 -374.153326906023 0 0 60 (C5) n - 1
REM
REM in /home/bkarasulu/CARBON/AIRSS/Generating-Clusters/LCBOP/Higher-Symm/Only-C60/SD-CG/FIRE-HFTN
REM
REM
REM
REM
REM
REM ./C.cell (50c204cfd26239f34c78669fe23a5462)
REM
REM compiler GCC version 9.2.1 20190827 (Red Hat 9.2.1-1)
REM options -cpp -mtune=generic -march=x86-64 -g -O0 -fpre-include=/usr/include/finclude/math-vector-fortran.h
REM seed 1096520202 -192926671 -1667450999 -1565234927 1572900010 1838493890 -163180136 -1124741676 -657271581 -2134080845 2069860171 -1095584498 23373928 1619124398 -1722500397 1604137635 433490609 -956051323 1544710475 -503758363 1687689367 1457987764 -1941007305 -195890182 1172940472 205036585 -1585412825 2111405543 1463729708 -400831923 -1865143018 1340234019 313148505
REM
CELL 1.54180   50.00000   50.00000   50.00000   90.00000   90.00000   90.00000
LATT -1
SFAC C  
C      1  0.5655040000000  0.4770350000000  0.4882310000000 1.0
C      1  0.5655040000000  0.5040950000000  0.4745230000000 1.0
C      1  0.5655040000000  0.5254950000000  0.4960230000000 1.0
C      1  0.5655040000000  0.5116600000000  0.5230180000000 1.0
C      1  0.5655040000000  0.4817110000000  0.5182030000000 1.0
C      1  0.4695510000000  0.4580980000000  0.5831430000000 1.0
C      1  0.4695500000000  0.4079780000000  0.4858410000000 1.0
C      1  0.4695500000000  0.4850300000000  0.4081060000000 1.0
C      1  0.4695510000000  0.5827700000000  0.4573660000000 1.0
C      1  0.4695520000000  0.5661250000000  0.5655450000000 1.0
C      1  0.5268310000000  0.5379930000000  0.5294070000000 1.0
C      1  0.5268300000000  0.4837730000000  0.5452210000000 1.0
C      1  0.5268300000000  0.4519780000000  0.4985410000000 1.0
C      1  0.5268300000000  0.4865480000000  0.4538780000000 1.0
C      1  0.5268300000000  0.5397080000000  0.4729530000000 1.0
C      1  0.4808350000000  0.5628690000000  0.5013610000000 1.0
C      1  0.4808350000000  0.5181340000000  0.5602130000000 1.0
C      1  0.4808340000000  0.4483380000000  0.5358530000000 1.0
C      1  0.4808340000000  0.4499380000000  0.4619460000000 1.0
C      1  0.4808340000000  0.5207220000000  0.4406290000000 1.0
C      1  0.5068150000000  0.4441690000000  0.4506920000000 1.0
C      1  0.5068160000000  0.5296410000000  0.4316640000000 1.0
C      1  0.5068170000000  0.5741510000000  0.5070740000000 1.0
C      1  0.5068170000000  0.5161860000000  0.5727070000000 1.0
C      1  0.5068160000000  0.4358530000000  0.5378620000000 1.0
C      1  0.5097830000000  0.5191420000000  0.5154770000000 1.0
C      1  0.5097830000000  0.4911960000000  0.5229880000000 1.0
C      1  0.5097820000000  0.4754160000000  0.4987300000000 1.0
C      1  0.5097820000000  0.4936100000000  0.4762270000000 1.0
C      1  0.5097830000000  0.5206350000000  0.4865770000000 1.0
C      1  0.5315800000000  0.4432280000000  0.5252810000000 1.0
C      1  0.5315800000000  0.4584130000000  0.4538190000000 1.0
C      1  0.5315800000000  0.5310690000000  0.4461780000000 1.0
C      1  0.5315810000000  0.5607880000000  0.5129170000000 1.0
C      1  0.5315810000000  0.5065000000000  0.5618050000000 1.0
C      1  0.4676820000000  0.4766560000000  0.3835010000000 1.0
C      1  0.4676840000000  0.6035840000000  0.4417980000000 1.0
C      1  0.4676850000000  0.5873630000000  0.5805290000000 1.0
C      1  0.4676830000000  0.4504100000000  0.6079720000000 1.0
C      1  0.4676820000000  0.3819890000000  0.4862020000000 1.0
C      1  0.4539640000000  0.5164590000000  0.4814730000000 1.0
C      1  0.4539640000000  0.5227070000000  0.5099280000000 1.0
C      1  0.4539640000000  0.4975750000000  0.5246630000000 1.0
C      1  0.4539630000000  0.4757950000000  0.5053150000000 1.0
C      1  0.4539630000000  0.4874660000000  0.4786220000000 1.0
C      1  0.4725980000000  0.4933770000000  0.4345350000000 1.0
C      1  0.4725990000000  0.5602140000000  0.4734710000000 1.0
C      1  0.4725990000000  0.5438380000000  0.5490690000000 1.0
C      1  0.4725980000000  0.4668800000000  0.5568560000000 1.0
C      1  0.4725980000000  0.4356920000000  0.4860700000000 1.0
C      1  0.4673410000000  0.4944000000000  0.5496910000000 1.0
C      1  0.4673410000000  0.4510120000000  0.5100300000000 1.0
C      1  0.4673410000000  0.4753230000000  0.4565080000000 1.0
C      1  0.4673410000000  0.5337380000000  0.4630910000000 1.0
C      1  0.4673420000000  0.5455280000000  0.5206810000000 1.0
C      1  0.5475150000000  0.5064490000000  0.4510360000000 1.0
C      1  0.5475160000000  0.5485590000000  0.4910030000000 1.0
C      1  0.5475160000000  0.5235620000000  0.5434030000000 1.0
C      1  0.5475150000000  0.4660020000000  0.5358210000000 1.0
C      1  0.5475150000000  0.4554260000000  0.4787350000000 1.0
END
