TITL C-2323477-5056-371 -9687.67155084141 125000 -334.074059667001 0 0 60 (D3) n - 1
REM
REM in /home/bkarasulu/CARBON/AIRSS/Generating-Clusters/LCBOP/Higher-Symm/Only-C60/SD-CG/FIRE-HFTN
REM
REM
REM
REM
REM
REM ./C.cell (50c204cfd26239f34c78669fe23a5462)
REM
REM compiler GCC version 9.2.1 20190827 (Red Hat 9.2.1-1)
REM options -cpp -mtune=generic -march=x86-64 -g -O0 -fpre-include=/usr/include/finclude/math-vector-fortran.h
REM seed -1703443735 1797736267 -56201745 384195426 -1955103643 1906651810 1043566724 -169751498 -1331808420 -780475273 -417206312 569524612 -1901647830 1804216653 -238301677 1086301500 924583002 -925391212 845794475 -1976024915 -369838009 1853449385 1963594323 -1353904879 1724936933 1886096392 -1961010473 -1500566856 1749277094 -201428837 -1256866331 -1424948999 -1843196637
REM
CELL 1.54180   50.00000   50.00000   50.00000   90.00000   90.00000   90.00000
LATT -1
SFAC C  
C      1  0.5497130000000  0.4611880000000  0.4582230000000 1.0
C      1  0.5497120000000  0.4833990000000  0.5544910000000 1.0
C      1  0.5498210000000  0.5553490000000  0.4873640000000 1.0
C      1  0.4502860000000  0.4611110000000  0.5416220000000 1.0
C      1  0.4501800000000  0.4832690000000  0.4457480000000 1.0
C      1  0.4502870000000  0.5555860000000  0.5127230000000 1.0
C      1  0.5685420000000  0.4651420000000  0.4804310000000 1.0
C      1  0.5684610000000  0.5008490000000  0.5400770000000 1.0
C      1  0.5685500000000  0.5340660000000  0.4795380000000 1.0
C      1  0.4315380000000  0.4648680000000  0.5193030000000 1.0
C      1  0.4314510000000  0.5006890000000  0.4602660000000 1.0
C      1  0.4314590000000  0.5343760000000  0.5204030000000 1.0
C      1  0.5536050000000  0.4560620000000  0.5033940000000 1.0
C      1  0.5533670000000  0.5252230000000  0.5366720000000 1.0
C      1  0.5534990000000  0.5190740000000  0.4599640000000 1.0
C      1  0.4466330000000  0.4556290000000  0.4964920000000 1.0
C      1  0.4465010000000  0.5251360000000  0.4634620000000 1.0
C      1  0.4463950000000  0.5190290000000  0.5397470000000 1.0
C      1  0.4750370000000  0.4403180000000  0.4473400000000 1.0
C      1  0.4750310000000  0.4841150000000  0.5779900000000 1.0
C      1  0.4752220000000  0.5755570000000  0.4747240000000 1.0
C      1  0.5249680000000  0.4404010000000  0.5527520000000 1.0
C      1  0.5247780000000  0.4841110000000  0.4219280000000 1.0
C      1  0.5249630000000  0.5754460000000  0.5253570000000 1.0
C      1  0.4775330000000  0.5504480000000  0.5256290000000 1.0
C      1  0.4774650000000  0.4969330000000  0.4435590000000 1.0
C      1  0.4776080000000  0.4525430000000  0.5308670000000 1.0
C      1  0.5225350000000  0.5504130000000  0.4744360000000 1.0
C      1  0.5223910000000  0.4969970000000  0.5565330000000 1.0
C      1  0.5224670000000  0.4525810000000  0.4691250000000 1.0
C      1  0.5247670000000  0.5201380000000  0.5354280000000 1.0
C      1  0.5248820000000  0.5205940000000  0.4648740000000 1.0
C      1  0.5249470000000  0.4593970000000  0.4997170000000 1.0
C      1  0.4751180000000  0.5201240000000  0.4646010000000 1.0
C      1  0.4750530000000  0.5205470000000  0.5350210000000 1.0
C      1  0.4752320000000  0.4592500000000  0.5002750000000 1.0
C      1  0.4520100000000  0.4548360000000  0.4438360000000 1.0
C      1  0.4520460000000  0.4737360000000  0.5671700000000 1.0
C      1  0.4521840000000  0.5714450000000  0.4890560000000 1.0
C      1  0.5479530000000  0.4549610000000  0.5563310000000 1.0
C      1  0.5478160000000  0.4737560000000  0.4326550000000 1.0
C      1  0.5479910000000  0.5712220000000  0.5110320000000 1.0
C      1  0.5877530000000  0.5193950000000  0.4926280000000 1.0
C      1  0.5879670000000  0.4836860000000  0.4860490000000 1.0
C      1  0.5878800000000  0.4968560000000  0.5210840000000 1.0
C      1  0.4120330000000  0.5202400000000  0.5071550000000 1.0
C      1  0.4121210000000  0.4833150000000  0.5132630000000 1.0
C      1  0.4122480000000  0.4966840000000  0.4795130000000 1.0
C      1  0.5004900000000  0.4792340000000  0.5660350000000 1.0
C      1  0.5006200000000  0.5675550000000  0.4850120000000 1.0
C      1  0.5004780000000  0.4531640000000  0.4490420000000 1.0
C      1  0.4993810000000  0.4792030000000  0.4340020000000 1.0
C      1  0.4995220000000  0.5675490000000  0.5150820000000 1.0
C      1  0.4995100000000  0.4531950000000  0.5510020000000 1.0
C      1  0.5115060000000  0.4788660000000  0.5182400000000 1.0
C      1  0.5114450000000  0.5263280000000  0.5092070000000 1.0
C      1  0.5114880000000  0.4948200000000  0.4725490000000 1.0
C      1  0.4885550000000  0.4788620000000  0.4818020000000 1.0
C      1  0.4885120000000  0.5263630000000  0.4907600000000 1.0
C      1  0.4884940000000  0.4947700000000  0.5274220000000 1.0
END
