TITL C-2323480-5884-137 1.70299955691287e-06 125000 -359.077783870781 0 0 60 (C1) n - 1
REM
REM in /home/bkarasulu/CARBON/AIRSS/Generating-Clusters/LCBOP/Higher-Symm/Only-C60/SD-CG/FIRE-HFTN
REM
REM
REM
REM
REM
REM ./C.cell (50c204cfd26239f34c78669fe23a5462)
REM
REM compiler GCC version 9.2.1 20190827 (Red Hat 9.2.1-1)
REM options -cpp -mtune=generic -march=x86-64 -g -O0 -fpre-include=/usr/include/finclude/math-vector-fortran.h
REM seed 807913962 2040288823 -1340672833 38828535 1955604983 191568045 -1558145500 747221339 838496376 1860945139 -1933139355 -430492337 -1361225402 -1848658635 331344111 -1053887650 159611864 1593548579 -542536051 1952034510 1745986170 -1298041658 637393531 204883601 1748823527 -507937963 -1142298273 -548726238 -592762413 1535475968 -1561100435 -6759169 1768702224
REM
CELL 1.54180   50.00000   50.00000   50.00000   90.00000   90.00000   90.00000
LATT -1
SFAC C  
C      1  0.4704910000000  0.5690520000000  0.4613610000000 1.0
C      1  0.4799960000000  0.5711700000000  0.5462390000000 1.0
C      1  0.5503590000000  0.5696170000000  0.4937840000000 1.0
C      1  0.4700570000000  0.4313440000000  0.4604080000000 1.0
C      1  0.4802330000000  0.4316850000000  0.5461230000000 1.0
C      1  0.5499330000000  0.4316980000000  0.4928710000000 1.0
C      1  0.5656000000000  0.5147170000000  0.4807240000000 1.0
C      1  0.4529930000000  0.5147660000000  0.4555510000000 1.0
C      1  0.4847680000000  0.5155580000000  0.5691520000000 1.0
C      1  0.5674800000000  0.4863380000000  0.4775650000000 1.0
C      1  0.4484840000000  0.4866140000000  0.4539890000000 1.0
C      1  0.4828910000000  0.4864800000000  0.5666070000000 1.0
C      1  0.5275910000000  0.5156110000000  0.5473380000000 1.0
C      1  0.5304190000000  0.5157290000000  0.4476910000000 1.0
C      1  0.4371160000000  0.5154180000000  0.5019760000000 1.0
C      1  0.5311170000000  0.4866920000000  0.5532540000000 1.0
C      1  0.5315380000000  0.4858950000000  0.4432390000000 1.0
C      1  0.4388520000000  0.4852890000000  0.5019080000000 1.0
C      1  0.5500950000000  0.5306350000000  0.4627950000000 1.0
C      1  0.4440110000000  0.5302880000000  0.4776820000000 1.0
C      1  0.5062160000000  0.5309530000000  0.5591230000000 1.0
C      1  0.5501060000000  0.4705800000000  0.4608570000000 1.0
C      1  0.4434280000000  0.4705710000000  0.4769340000000 1.0
C      1  0.5069260000000  0.4712460000000  0.5605900000000 1.0
C      1  0.4611590000000  0.5770190000000  0.5281730000000 1.0
C      1  0.5433020000000  0.5749560000000  0.5190270000000 1.0
C      1  0.4955510000000  0.5745190000000  0.4538080000000 1.0
C      1  0.4616570000000  0.4254440000000  0.5279100000000 1.0
C      1  0.5424170000000  0.4255200000000  0.5179160000000 1.0
C      1  0.4952010000000  0.4251140000000  0.4534230000000 1.0
C      1  0.4790910000000  0.5181030000000  0.5183450000000 1.0
C      1  0.5200070000000  0.5024720000000  0.5019470000000 1.0
C      1  0.5022260000000  0.5030730000000  0.4808370000000 1.0
C      1  0.4812970000000  0.4904190000000  0.5170390000000 1.0
C      1  0.5273430000000  0.4755210000000  0.5095820000000 1.0
C      1  0.4963890000000  0.4765530000000  0.4708400000000 1.0
C      1  0.5052500000000  0.4436860000000  0.5514170000000 1.0
C      1  0.5428500000000  0.4432180000000  0.4679210000000 1.0
C      1  0.4523310000000  0.4431030000000  0.4790700000000 1.0
C      1  0.5046850000000  0.5586190000000  0.5513950000000 1.0
C      1  0.5433500000000  0.5580480000000  0.4690150000000 1.0
C      1  0.4524400000000  0.5578630000000  0.4799870000000 1.0
C      1  0.5351470000000  0.5204980000000  0.5194370000000 1.0
C      1  0.5027600000000  0.5207050000000  0.4575410000000 1.0
C      1  0.4517030000000  0.5252640000000  0.5260070000000 1.0
C      1  0.5474500000000  0.4755960000000  0.5307500000000 1.0
C      1  0.5032310000000  0.4753370000000  0.4422450000000 1.0
C      1  0.4564170000000  0.4772880000000  0.5246200000000 1.0
C      1  0.5219650000000  0.5705240000000  0.4553050000000 1.0
C      1  0.4499540000000  0.5718060000000  0.5044310000000 1.0
C      1  0.5275940000000  0.5709810000000  0.5403050000000 1.0
C      1  0.5215960000000  0.4299060000000  0.4545620000000 1.0
C      1  0.4504720000000  0.4298210000000  0.5039970000000 1.0
C      1  0.5275090000000  0.4304310000000  0.5397290000000 1.0
C      1  0.4809460000000  0.4890530000000  0.4306470000000 1.0
C      1  0.4552830000000  0.4850160000000  0.5529140000000 1.0
C      1  0.5694960000000  0.4887480000000  0.5177750000000 1.0
C      1  0.4792200000000  0.5165790000000  0.4414390000000 1.0
C      1  0.4491780000000  0.5148180000000  0.5524870000000 1.0
C      1  0.5628330000000  0.5164340000000  0.5103970000000 1.0
END
