TITL C-2323484-8600-197 -7.05815259214355e-07 125000 -341.515209838455 0 0 60 (C5) n - 1
REM
REM in /home/bkarasulu/CARBON/AIRSS/Generating-Clusters/LCBOP/Higher-Symm/Only-C60/SD-CG/FIRE-HFTN
REM
REM
REM
REM
REM
REM ./C.cell (50c204cfd26239f34c78669fe23a5462)
REM
REM compiler GCC version 9.2.1 20190827 (Red Hat 9.2.1-1)
REM options -cpp -mtune=generic -march=x86-64 -g -O0 -fpre-include=/usr/include/finclude/math-vector-fortran.h
REM seed -2048772429 1599082047 -245539501 -1711385543 921711667 -1432686770 2124857166 -643015175 -1690028179 1474570678 -999933517 -1438112311 2101915927 42945511 -626705610 638732885 -390872668 1924248038 214421551 -1479265131 -755216719 1383832247 -2072475487 1870703300 687245541 -886856545 -1957613893 1548025694 -709825977 -697869829 -1034639257 -1354652988 -621627186
REM
CELL 1.54180   50.00000   50.00000   50.00000   90.00000   90.00000   90.00000
LATT -1
SFAC C  
C      1  0.5507200000000  0.4679610000000  0.5411000000000 1.0
C      1  0.5547620000000  0.4679610000000  0.4644630000000 1.0
C      1  0.4831250000000  0.4679610000000  0.4369370000000 1.0
C      1  0.4348090000000  0.4679610000000  0.4965610000000 1.0
C      1  0.4765850000000  0.4679610000000  0.5609380000000 1.0
C      1  0.5507200000000  0.5320390000000  0.5411000000000 1.0
C      1  0.5547620000000  0.5320390000000  0.4644630000000 1.0
C      1  0.4831250000000  0.5320390000000  0.4369370000000 1.0
C      1  0.4348090000000  0.5320390000000  0.4965610000000 1.0
C      1  0.4765850000000  0.5320390000000  0.5609380000000 1.0
C      1  0.4809850000000  0.4406420000000  0.5466280000000 1.0
C      1  0.5384700000000  0.4406420000000  0.5324930000000 1.0
C      1  0.5427910000000  0.4406420000000  0.4734530000000 1.0
C      1  0.4879760000000  0.4406420000000  0.4511000000000 1.0
C      1  0.4497780000000  0.4406420000000  0.4963250000000 1.0
C      1  0.4809850000000  0.5593580000000  0.5466280000000 1.0
C      1  0.5384700000000  0.5593580000000  0.5324930000000 1.0
C      1  0.5427910000000  0.5593580000000  0.4734530000000 1.0
C      1  0.4879760000000  0.5593580000000  0.4511000000000 1.0
C      1  0.4497780000000  0.5593580000000  0.4963250000000 1.0
C      1  0.4815210000000  0.5298700000000  0.4846040000000 1.0
C      1  0.4796470000000  0.5298700000000  0.5128170000000 1.0
C      1  0.5059000000000  0.5298700000000  0.5233170000000 1.0
C      1  0.5239990000000  0.5298700000000  0.5015940000000 1.0
C      1  0.5089320000000  0.5298700000000  0.4776680000000 1.0
C      1  0.4815210000000  0.4701300000000  0.4846040000000 1.0
C      1  0.4796470000000  0.4701300000000  0.5128170000000 1.0
C      1  0.5059000000000  0.4701300000000  0.5233170000000 1.0
C      1  0.5239990000000  0.4701300000000  0.5015940000000 1.0
C      1  0.5089320000000  0.4701300000000  0.4776680000000 1.0
C      1  0.5097530000000  0.4443120000000  0.5387200000000 1.0
C      1  0.5398390000000  0.4443120000000  0.5026890000000 1.0
C      1  0.5148680000000  0.4443120000000  0.4629420000000 1.0
C      1  0.4693500000000  0.4443120000000  0.4744080000000 1.0
C      1  0.4661890000000  0.4443120000000  0.5212410000000 1.0
C      1  0.5097530000000  0.5556880000000  0.5387200000000 1.0
C      1  0.5398390000000  0.5556880000000  0.5026890000000 1.0
C      1  0.5148680000000  0.5556880000000  0.4629420000000 1.0
C      1  0.4693500000000  0.5556880000000  0.4744080000000 1.0
C      1  0.4661890000000  0.5556880000000  0.5212410000000 1.0
C      1  0.5047040000000  0.5235500000000  0.5686930000000 1.0
C      1  0.5667840000000  0.5235500000000  0.5167540000000 1.0
C      1  0.5365710000000  0.5235500000000  0.4416620000000 1.0
C      1  0.4558180000000  0.5235500000000  0.4471910000000 1.0
C      1  0.4361230000000  0.5235500000000  0.5257010000000 1.0
C      1  0.5047040000000  0.4764500000000  0.5686930000000 1.0
C      1  0.5667840000000  0.4764500000000  0.5167540000000 1.0
C      1  0.5365710000000  0.4764500000000  0.4416620000000 1.0
C      1  0.4558180000000  0.4764500000000  0.4471910000000 1.0
C      1  0.4361230000000  0.4764500000000  0.5257010000000 1.0
C      1  0.5322680000000  0.4852350000000  0.5582670000000 1.0
C      1  0.5653870000000  0.4852350000000  0.4873170000000 1.0
C      1  0.5081430000000  0.4852350000000  0.4338940000000 1.0
C      1  0.4396460000000  0.4852350000000  0.4718270000000 1.0
C      1  0.4545560000000  0.4852350000000  0.5486940000000 1.0
C      1  0.5322680000000  0.5147650000000  0.5582670000000 1.0
C      1  0.5653870000000  0.5147650000000  0.4873170000000 1.0
C      1  0.5081430000000  0.5147650000000  0.4338940000000 1.0
C      1  0.4396460000000  0.5147650000000  0.4718270000000 1.0
C      1  0.4545560000000  0.5147650000000  0.5486940000000 1.0
END
