TITL C-2323481-8605-462 1.35000310667401 125000 -357.743687106896 0 0 60 (C1) n - 1
REM
REM in /home/bkarasulu/CARBON/AIRSS/Generating-Clusters/LCBOP/Higher-Symm/Only-C60/SD-CG/FIRE-HFTN
REM
REM
REM
REM
REM
REM ./C.cell (50c204cfd26239f34c78669fe23a5462)
REM
REM compiler GCC version 9.2.1 20190827 (Red Hat 9.2.1-1)
REM options -cpp -mtune=generic -march=x86-64 -g -O0 -fpre-include=/usr/include/finclude/math-vector-fortran.h
REM seed 780504479 -1319277994 -1904802580 -1995395197 -1408926992 -348037993 -1237417904 -1065607842 386658335 -1804719652 2082609267 390398766 -1033672029 163360876 -767786334 -1030683161 1153552162 1025054760 -401839428 -1594300776 1344377459 -2003162180 -871366727 2072641224 -1651974146 -771332846 1527803271 -139676698 -1287727937 631219467 478292002 439987174 -741847226
REM
CELL 1.54180   50.00000   50.00000   50.00000   90.00000   90.00000   90.00000
LATT -1
SFAC C  
C      1  0.4814070000000  0.5002650000000  0.6455460000000 1.0
C      1  0.4593770000000  0.5610460000000  0.4264650000000 1.0
C      1  0.5530280000000  0.5208660000000  0.4460290000000 1.0
C      1  0.4336870000000  0.5087220000000  0.5314140000000 1.0
C      1  0.5344890000000  0.4746820000000  0.5020310000000 1.0
C      1  0.5063090000000  0.5061280000000  0.4469850000000 1.0
C      1  0.4581010000000  0.4984600000000  0.4435770000000 1.0
C      1  0.4298410000000  0.5548670000000  0.4644530000000 1.0
C      1  0.4621960000000  0.5371680000000  0.5647680000000 1.0
C      1  0.4767790000000  0.5504480000000  0.4094070000000 1.0
C      1  0.5720010000000  0.5011320000000  0.4452120000000 1.0
C      1  0.4701210000000  0.4409560000000  0.4383830000000 1.0
C      1  0.5571340000000  0.5449090000000  0.4335780000000 1.0
C      1  0.4359250000000  0.4901720000000  0.4591090000000 1.0
C      1  0.5099150000000  0.4726110000000  0.6711870000000 1.0
C      1  0.5681610000000  0.5246880000000  0.5357780000000 1.0
C      1  0.4251040000000  0.5326510000000  0.4783020000000 1.0
C      1  0.4278670000000  0.4635860000000  0.4544770000000 1.0
C      1  0.5562890000000  0.4589810000000  0.5072790000000 1.0
C      1  0.5120820000000  0.5181410000000  0.3871780000000 1.0
C      1  0.5279640000000  0.4968590000000  0.3856240000000 1.0
C      1  0.4412700000000  0.5233880000000  0.5522720000000 1.0
C      1  0.5910580000000  0.5369890000000  0.5376450000000 1.0
C      1  0.5351740000000  0.5026610000000  0.5074750000000 1.0
C      1  0.4872770000000  0.4876580000000  0.6689820000000 1.0
C      1  0.4767460000000  0.5249860000000  0.5852390000000 1.0
C      1  0.4944830000000  0.5362340000000  0.3955640000000 1.0
C      1  0.5821170000000  0.4597110000000  0.5859570000000 1.0
C      1  0.4311180000000  0.5055600000000  0.4824510000000 1.0
C      1  0.5108150000000  0.4633700000000  0.4911700000000 1.0
C      1  0.5302260000000  0.4327060000000  0.4229490000000 1.0
C      1  0.5038860000000  0.5636160000000  0.5117380000000 1.0
C      1  0.5281080000000  0.5064920000000  0.5559150000000 1.0
C      1  0.4346150000000  0.5981740000000  0.4442500000000 1.0
C      1  0.5391050000000  0.4733650000000  0.3912870000000 1.0
C      1  0.4412000000000  0.5716320000000  0.4450500000000 1.0
C      1  0.5273840000000  0.5219620000000  0.4879570000000 1.0
C      1  0.4879600000000  0.4610970000000  0.4485290000000 1.0
C      1  0.4819420000000  0.4209880000000  0.4224340000000 1.0
C      1  0.5205470000000  0.5002210000000  0.5818400000000 1.0
C      1  0.5308380000000  0.4400420000000  0.4504260000000 1.0
C      1  0.5598110000000  0.4708150000000  0.5935900000000 1.0
C      1  0.5268290000000  0.4700770000000  0.6499710000000 1.0
C      1  0.5077750000000  0.4170170000000  0.4155990000000 1.0
C      1  0.4977350000000  0.4987460000000  0.6226040000000 1.0
C      1  0.5287870000000  0.5163640000000  0.4601230000000 1.0
C      1  0.4409930000000  0.4961800000000  0.5074890000000 1.0
C      1  0.5436980000000  0.5114140000000  0.5332210000000 1.0
C      1  0.4844620000000  0.4890090000000  0.4439090000000 1.0
C      1  0.4968810000000  0.5093580000000  0.5959950000000 1.0
C      1  0.4878550000000  0.5689370000000  0.5322520000000 1.0
C      1  0.5223500000000  0.4824030000000  0.6250060000000 1.0
C      1  0.4862100000000  0.4669540000000  0.5043450000000 1.0
C      1  0.4620840000000  0.4775450000000  0.5081580000000 1.0
C      1  0.4726500000000  0.5598560000000  0.5520930000000 1.0
C      1  0.5173540000000  0.5467220000000  0.4963260000000 1.0
C      1  0.4428790000000  0.4432920000000  0.4449350000000 1.0
C      1  0.5414840000000  0.4501070000000  0.4040890000000 1.0
C      1  0.5104960000000  0.4535380000000  0.4645510000000 1.0
C      1  0.5360220000000  0.4834740000000  0.5998350000000 1.0
END
