TITL C-2323484-8600-91 7.59662297503178e-07 125000 -382.216495910454 0 0 60 (D5h) n - 1
REM
REM in /home/bkarasulu/CARBON/AIRSS/Generating-Clusters/LCBOP/Higher-Symm/Only-C60/SD-CG/FIRE-HFTN
REM
REM
REM
REM
REM
REM ./C.cell (50c204cfd26239f34c78669fe23a5462)
REM
REM compiler GCC version 9.2.1 20190827 (Red Hat 9.2.1-1)
REM options -cpp -mtune=generic -march=x86-64 -g -O0 -fpre-include=/usr/include/finclude/math-vector-fortran.h
REM seed -1830080515 1710215581 1895921689 -677218449 -458863580 -1504734148 1129934784 115226372 1018181247 -785598588 -1929778661 1596497925 -1992822591 -1312637548 942074726 371240804 -1920994521 -929444176 807409437 -1226095549 -1893969665 1592455370 1503225784 -900476683 -2138443046 1214424606 -207748439 -117040721 1531085725 -621881475 1886560548 1942024630 -849754955
REM
CELL 1.54180   50.00000   50.00000   50.00000   90.00000   90.00000   90.00000
LATT -1
SFAC C  
C      1  0.4718670000000  0.4575080000000  0.4857530000000 1.0
C      1  0.5317190000000  0.4601130000000  0.4857520000000 1.0
C      1  0.5477360000000  0.5178410000000  0.4857520000000 1.0
C      1  0.4977840000000  0.5509130000000  0.4857520000000 1.0
C      1  0.4508940000000  0.5136250000000  0.4857520000000 1.0
C      1  0.4718670000000  0.4575080000000  0.5142480000000 1.0
C      1  0.5317190000000  0.4601130000000  0.5142480000000 1.0
C      1  0.5477370000000  0.5178410000000  0.5142470000000 1.0
C      1  0.4977840000000  0.5509130000000  0.5142470000000 1.0
C      1  0.4508940000000  0.5136250000000  0.5142480000000 1.0
C      1  0.4606830000000  0.4406160000000  0.5336250000000 1.0
C      1  0.5443280000000  0.4442570000000  0.5336240000000 1.0
C      1  0.5667130000000  0.5249330000000  0.5336240000000 1.0
C      1  0.4969030000000  0.5711530000000  0.5336240000000 1.0
C      1  0.4313730000000  0.5190420000000  0.5336240000000 1.0
C      1  0.4606830000000  0.4406160000000  0.4663760000000 1.0
C      1  0.5443280000000  0.4442570000000  0.4663760000000 1.0
C      1  0.5667130000000  0.5249330000000  0.4663750000000 1.0
C      1  0.4969030000000  0.5711520000000  0.4663750000000 1.0
C      1  0.4313730000000  0.5190420000000  0.4663760000000 1.0
C      1  0.4616010000000  0.4420030000000  0.4395010000000 1.0
C      1  0.5432920000000  0.4455580000000  0.4395000000000 1.0
C      1  0.5651550000000  0.5243500000000  0.4395000000000 1.0
C      1  0.4969750000000  0.5694900000000  0.4395000000000 1.0
C      1  0.4329750000000  0.5185970000000  0.4395000000000 1.0
C      1  0.4616020000000  0.4420030000000  0.5605010000000 1.0
C      1  0.5432930000000  0.4455590000000  0.5605000000000 1.0
C      1  0.5651550000000  0.5243510000000  0.5605000000000 1.0
C      1  0.4969760000000  0.5694910000000  0.5605000000000 1.0
C      1  0.4329760000000  0.5185970000000  0.5605000000000 1.0
C      1  0.4977520000000  0.5516380000000  0.4195410000000 1.0
C      1  0.4501930000000  0.5138190000000  0.4195410000000 1.0
C      1  0.4714650000000  0.4569020000000  0.4195420000000 1.0
C      1  0.5321710000000  0.4595440000000  0.4195410000000 1.0
C      1  0.5484170000000  0.5180950000000  0.4195410000000 1.0
C      1  0.4977530000000  0.5516390000000  0.5804580000000 1.0
C      1  0.4501940000000  0.5138200000000  0.5804590000000 1.0
C      1  0.4714660000000  0.4569030000000  0.5804590000000 1.0
C      1  0.5321710000000  0.4595450000000  0.5804590000000 1.0
C      1  0.5484170000000  0.5180960000000  0.5804580000000 1.0
C      1  0.5154330000000  0.4805920000000  0.4119510000000 1.0
C      1  0.5232260000000  0.5086800000000  0.4119510000000 1.0
C      1  0.4989210000000  0.5247720000000  0.4119510000000 1.0
C      1  0.4761060000000  0.5066290000000  0.4119510000000 1.0
C      1  0.4863110000000  0.4793240000000  0.4119510000000 1.0
C      1  0.5154340000000  0.4805930000000  0.5880490000000 1.0
C      1  0.5232270000000  0.5086810000000  0.5880490000000 1.0
C      1  0.4989220000000  0.5247730000000  0.5880490000000 1.0
C      1  0.4761070000000  0.5066300000000  0.5880490000000 1.0
C      1  0.4863120000000  0.4793250000000  0.5880490000000 1.0
C      1  0.4864110000000  0.4794750000000  0.5253170000000 1.0
C      1  0.5153210000000  0.4807340000000  0.5253170000000 1.0
C      1  0.5230580000000  0.5086180000000  0.5253170000000 1.0
C      1  0.4989300000000  0.5245930000000  0.5253170000000 1.0
C      1  0.4762800000000  0.5065820000000  0.5253170000000 1.0
C      1  0.4864110000000  0.4794750000000  0.4746830000000 1.0
C      1  0.5153210000000  0.4807330000000  0.4746830000000 1.0
C      1  0.5230580000000  0.5086170000000  0.4746830000000 1.0
C      1  0.4989290000000  0.5245920000000  0.4746830000000 1.0
C      1  0.4762800000000  0.5065810000000  0.4746830000000 1.0
END
