TITL C-2323484-8600-355 -1670.62794182044 125000 -350.566925170532 0 0 60 (C1) n - 1
REM
REM in /home/bkarasulu/CARBON/AIRSS/Generating-Clusters/LCBOP/Higher-Symm/Only-C60/SD-CG/FIRE-HFTN
REM
REM
REM
REM
REM
REM ./C.cell (50c204cfd26239f34c78669fe23a5462)
REM
REM compiler GCC version 9.2.1 20190827 (Red Hat 9.2.1-1)
REM options -cpp -mtune=generic -march=x86-64 -g -O0 -fpre-include=/usr/include/finclude/math-vector-fortran.h
REM seed -2053702772 -1180056885 449535043 1283056869 61546761 -415069289 1029635559 -2140871451 1336207576 -1092925839 999643462 642327273 -340096150 52445723 -313107846 1745536416 -772320990 1939611748 335610356 -485353461 1950916326 -1892009107 2086844058 -1191269584 -1286701649 -1750033478 2050032316 1423429748 1742154453 2078368112 1493321604 -1247004307 1929219998
REM
CELL 1.54180   50.00000   50.00000   50.00000   90.00000   90.00000   90.00000
LATT -1
SFAC C  
C      1  0.5385750000000  0.5126840000000  0.4409950000000 1.0
C      1  0.5147130000000  0.4418070000000  0.5368490000000 1.0
C      1  0.4363580000000  0.5346430000000  0.5110680000000 1.0
C      1  0.4555210000000  0.4884770000000  0.4477120000000 1.0
C      1  0.5348260000000  0.4844180000000  0.5595320000000 1.0
C      1  0.4619160000000  0.5172060000000  0.5564590000000 1.0
C      1  0.4788210000000  0.5523330000000  0.5272660000000 1.0
C      1  0.5199360000000  0.5477170000000  0.4695770000000 1.0
C      1  0.4870920000000  0.4468720000000  0.4631560000000 1.0
C      1  0.5583630000000  0.4593410000000  0.5213980000000 1.0
C      1  0.4416650000000  0.4583210000000  0.4854430000000 1.0
C      1  0.5659750000000  0.5350520000000  0.4801260000000 1.0
C      1  0.5161690000000  0.5335600000000  0.4440510000000 1.0
C      1  0.4393320000000  0.5156430000000  0.5331560000000 1.0
C      1  0.5346520000000  0.4411840000000  0.5167630000000 1.0
C      1  0.4806350000000  0.4736910000000  0.4487790000000 1.0
C      1  0.4825650000000  0.5386960000000  0.5536880000000 1.0
C      1  0.5156770000000  0.4632500000000  0.5581080000000 1.0
C      1  0.5578640000000  0.4823350000000  0.5401450000000 1.0
C      1  0.5618120000000  0.5129820000000  0.4614830000000 1.0
C      1  0.4457200000000  0.4840090000000  0.4753060000000 1.0
C      1  0.4560610000000  0.5563410000000  0.5100250000000 1.0
C      1  0.4672250000000  0.4399140000000  0.4850720000000 1.0
C      1  0.5431130000000  0.5534950000000  0.4856810000000 1.0
C      1  0.4626160000000  0.4863290000000  0.5601930000000 1.0
C      1  0.4703170000000  0.5614230000000  0.4574480000000 1.0
C      1  0.5665820000000  0.4621640000000  0.4863380000000 1.0
C      1  0.5255640000000  0.5110620000000  0.5685060000000 1.0
C      1  0.4553660000000  0.5179890000000  0.4422660000000 1.0
C      1  0.5339130000000  0.4851560000000  0.4317490000000 1.0
C      1  0.5182480000000  0.4429960000000  0.4626190000000 1.0
C      1  0.4858690000000  0.4394000000000  0.5359660000000 1.0
C      1  0.5323220000000  0.5537190000000  0.5418370000000 1.0
C      1  0.4248380000000  0.5301330000000  0.4849200000000 1.0
C      1  0.5743850000000  0.5295920000000  0.5150240000000 1.0
C      1  0.4390920000000  0.4585300000000  0.5194200000000 1.0
C      1  0.4809300000000  0.4657230000000  0.5615230000000 1.0
C      1  0.5604430000000  0.4877020000000  0.4766420000000 1.0
C      1  0.4610860000000  0.5672570000000  0.4830070000000 1.0
C      1  0.5135740000000  0.5373390000000  0.5606210000000 1.0
C      1  0.5299590000000  0.4592760000000  0.4405270000000 1.0
C      1  0.4798460000000  0.5379230000000  0.4406920000000 1.0
C      1  0.4326040000000  0.5286180000000  0.4585400000000 1.0
C      1  0.4374950000000  0.4812430000000  0.5350640000000 1.0
C      1  0.5612150000000  0.5078610000000  0.5264940000000 1.0
C      1  0.5360990000000  0.4405900000000  0.4868690000000 1.0
C      1  0.5464810000000  0.5547760000000  0.5160420000000 1.0
C      1  0.4677530000000  0.4370990000000  0.5153100000000 1.0
C      1  0.4638460000000  0.4996480000000  0.4922920000000 1.0
C      1  0.4976410000000  0.4934110000000  0.4622650000000 1.0
C      1  0.4975940000000  0.4685110000000  0.5011240000000 1.0
C      1  0.5360220000000  0.4928660000000  0.4904580000000 1.0
C      1  0.4782850000000  0.4855420000000  0.5126130000000 1.0
C      1  0.5358880000000  0.5085730000000  0.5128730000000 1.0
C      1  0.4837140000000  0.5146870000000  0.4770350000000 1.0
C      1  0.4929240000000  0.5000070000000  0.5312810000000 1.0
C      1  0.5000990000000  0.5413330000000  0.5118380000000 1.0
C      1  0.4976960000000  0.5383100000000  0.4846290000000 1.0
C      1  0.5132690000000  0.4813320000000  0.4821220000000 1.0
C      1  0.5118400000000  0.5179070000000  0.5220130000000 1.0
END
