TITL C-2323477-5056-296 0.385956859816953 125000 -370.072802122874 0 0 60 (C1) n - 1
REM
REM in /home/bkarasulu/CARBON/AIRSS/Generating-Clusters/LCBOP/Higher-Symm/Only-C60/SD-CG/FIRE-HFTN
REM
REM
REM
REM
REM
REM ./C.cell (50c204cfd26239f34c78669fe23a5462)
REM
REM compiler GCC version 9.2.1 20190827 (Red Hat 9.2.1-1)
REM options -cpp -mtune=generic -march=x86-64 -g -O0 -fpre-include=/usr/include/finclude/math-vector-fortran.h
REM seed -1171458092 1726155234 2135790871 401757348 1713712327 1384270595 -1446331730 1198353281 469031495 -70389265 1242690060 -1927309149 383615236 -297669625 -1966461999 -142793612 1267058388 10409563 -895998690 1514822165 2081990099 -1698396523 -1276364974 -1618027529 -1239968528 -667351285 170538012 -1881632279 -1570103349 -1557811858 755986195 -930671864 443664767
REM
CELL 1.54180   50.00000   50.00000   50.00000   90.00000   90.00000   90.00000
LATT -1
SFAC C  
C      1  0.5385490000000  0.4509030000000  0.5366170000000 1.0
C      1  0.5442110000000  0.4554320000000  0.4852400000000 1.0
C      1  0.5235460000000  0.4493560000000  0.4425690000000 1.0
C      1  0.4766210000000  0.4489860000000  0.4377820000000 1.0
C      1  0.4500450000000  0.4616890000000  0.4754820000000 1.0
C      1  0.4627290000000  0.4638150000000  0.5267220000000 1.0
C      1  0.4961100000000  0.4495720000000  0.5581020000000 1.0
C      1  0.5387220000000  0.4365520000000  0.4637270000000 1.0
C      1  0.5000110000000  0.4325230000000  0.4381390000000 1.0
C      1  0.4573790000000  0.4390720000000  0.4573360000000 1.0
C      1  0.4547070000000  0.4520770000000  0.5019220000000 1.0
C      1  0.4724360000000  0.4411280000000  0.5436990000000 1.0
C      1  0.5183560000000  0.4327720000000  0.5488690000000 1.0
C      1  0.5429650000000  0.4412040000000  0.5100720000000 1.0
C      1  0.5146320000000  0.5641820000000  0.5415310000000 1.0
C      1  0.5335900000000  0.5454540000000  0.5415300000000 1.0
C      1  0.5129300000000  0.5283650000000  0.4512330000000 1.0
C      1  0.4484850000000  0.5579400000000  0.4793390000000 1.0
C      1  0.4568570000000  0.5761660000000  0.4969970000000 1.0
C      1  0.4727820000000  0.5833180000000  0.5172600000000 1.0
C      1  0.4933980000000  0.5781940000000  0.5334740000000 1.0
C      1  0.5148820000000  0.4784620000000  0.4513210000000 1.0
C      1  0.4837010000000  0.4762010000000  0.4477030000000 1.0
C      1  0.4608500000000  0.4859510000000  0.4631560000000 1.0
C      1  0.4810530000000  0.4860640000000  0.5309570000000 1.0
C      1  0.5021370000000  0.4774200000000  0.5493400000000 1.0
C      1  0.5299260000000  0.4781940000000  0.5408930000000 1.0
C      1  0.5292230000000  0.4796580000000  0.4797160000000 1.0
C      1  0.4604290000000  0.5280790000000  0.5237080000000 1.0
C      1  0.5376650000000  0.4998060000000  0.5246340000000 1.0
C      1  0.5496890000000  0.5233150000000  0.5350120000000 1.0
C      1  0.5205830000000  0.5053140000000  0.4394660000000 1.0
C      1  0.4472840000000  0.5338520000000  0.4679600000000 1.0
C      1  0.4451470000000  0.5084640000000  0.4562610000000 1.0
C      1  0.4810500000000  0.5107270000000  0.5164090000000 1.0
C      1  0.5259320000000  0.4168470000000  0.5048530000000 1.0
C      1  0.5223430000000  0.4144830000000  0.4763280000000 1.0
C      1  0.4975090000000  0.4134050000000  0.4613910000000 1.0
C      1  0.4711560000000  0.4175660000000  0.4731170000000 1.0
C      1  0.4661100000000  0.4243220000000  0.5005370000000 1.0
C      1  0.4795680000000  0.4186570000000  0.5251670000000 1.0
C      1  0.5081810000000  0.4142370000000  0.5274740000000 1.0
C      1  0.5773350000000  0.5244410000000  0.5385780000000 1.0
C      1  0.6299270000000  0.5250150000000  0.5450030000000 1.0
C      1  0.6825410000000  0.5255130000000  0.5514200000000 1.0
C      1  0.4260160000000  0.5051110000000  0.4359910000000 1.0
C      1  0.3912770000000  0.4951400000000  0.3972390000000 1.0
C      1  0.4388010000000  0.5366170000000  0.5364940000000 1.0
C      1  0.3957100000000  0.5561090000000  0.5604030000000 1.0
C      1  0.6036240000000  0.5247640000000  0.5417940000000 1.0
C      1  0.6562300000000  0.5252640000000  0.5482110000000 1.0
C      1  0.7084180000000  0.5257580000000  0.5545770000000 1.0
C      1  0.4086100000000  0.5002500000000  0.4166300000000 1.0
C      1  0.3742300000000  0.4901100000000  0.3781670000000 1.0
C      1  0.4172090000000  0.5460220000000  0.5486330000000 1.0
C      1  0.3745810000000  0.5661140000000  0.5719390000000 1.0
C      1  0.5083770000000  0.5637040000000  0.4825890000000 1.0
C      1  0.5053690000000  0.5371450000000  0.4770850000000 1.0
C      1  0.5019790000000  0.5168700000000  0.4972350000000 1.0
C      1  0.5248510000000  0.4996560000000  0.4991480000000 1.0
END
