TITL C-2323482-8828-22 -0.000598343754342765 125000 -362.200643395348 0 0 60 (C1) n - 1
REM
REM in /home/bkarasulu/CARBON/AIRSS/Generating-Clusters/LCBOP/Higher-Symm/Only-C60/SD-CG/FIRE-HFTN
REM
REM
REM
REM
REM
REM ./C.cell (50c204cfd26239f34c78669fe23a5462)
REM
REM compiler GCC version 9.2.1 20190827 (Red Hat 9.2.1-1)
REM options -cpp -mtune=generic -march=x86-64 -g -O0 -fpre-include=/usr/include/finclude/math-vector-fortran.h
REM seed 1438176558 -829491724 1863259258 1618396484 1245730646 -184889335 1497673288 576280345 -592214160 790961027 1887487509 1611643042 1775542419 463153009 -620209877 -1527284824 543568719 1179932288 -1705628849 1634300293 260000287 -1145919880 1257412316 96890940 -1987437936 -1357163166 627502395 -503368165 -1850626535 -2119065006 1489195313 -209295917 -318853905
REM
CELL 1.54180   50.00000   50.00000   50.00000   90.00000   90.00000   90.00000
LATT -1
SFAC C  
C      1  0.4849630000000  0.5509990000000  0.4681360000000 1.0
C      1  0.4767990000000  0.4427850000000  0.5297660000000 1.0
C      1  0.4999640000000  0.4676540000000  0.4230760000000 1.0
C      1  0.4988400000000  0.5447230000000  0.5831830000000 1.0
C      1  0.5078550000000  0.5547110000000  0.4505680000000 1.0
C      1  0.4968310000000  0.4470560000000  0.5505220000000 1.0
C      1  0.4754280000000  0.4657730000000  0.4657240000000 1.0
C      1  0.4760590000000  0.5014690000000  0.5036390000000 1.0
C      1  0.4714000000000  0.4422500000000  0.4814460000000 1.0
C      1  0.4785150000000  0.5300980000000  0.5091340000000 1.0
C      1  0.5657370000000  0.5378760000000  0.4484620000000 1.0
C      1  0.5296820000000  0.4691120000000  0.5143720000000 1.0
C      1  0.5004260000000  0.5191820000000  0.4168720000000 1.0
C      1  0.4949850000000  0.4916390000000  0.5761750000000 1.0
C      1  0.4526960000000  0.5418610000000  0.5164190000000 1.0
C      1  0.4161470000000  0.4535240000000  0.4906720000000 1.0
C      1  0.5168520000000  0.5601450000000  0.5076230000000 1.0
C      1  0.5147170000000  0.4527560000000  0.4970520000000 1.0
C      1  0.5280850000000  0.5712700000000  0.4630060000000 1.0
C      1  0.5197410000000  0.4296580000000  0.5521390000000 1.0
C      1  0.5638380000000  0.5099790000000  0.5301200000000 1.0
C      1  0.5648990000000  0.4873030000000  0.4601230000000 1.0
C      1  0.5719930000000  0.5321820000000  0.4760770000000 1.0
C      1  0.5587940000000  0.4662500000000  0.5134400000000 1.0
C      1  0.4856400000000  0.5757150000000  0.6253860000000 1.0
C      1  0.5102990000000  0.4260580000000  0.3903470000000 1.0
C      1  0.4215170000000  0.4688830000000  0.4686470000000 1.0
C      1  0.4418960000000  0.5309990000000  0.5402130000000 1.0
C      1  0.4920460000000  0.5607440000000  0.6050380000000 1.0
C      1  0.5051180000000  0.4462870000000  0.4059380000000 1.0
C      1  0.4414160000000  0.5026820000000  0.5388380000000 1.0
C      1  0.4368950000000  0.4925190000000  0.4730750000000 1.0
C      1  0.5177970000000  0.5343370000000  0.4328340000000 1.0
C      1  0.5036020000000  0.4745740000000  0.5558170000000 1.0
C      1  0.4380030000000  0.5373590000000  0.4912760000000 1.0
C      1  0.4259860000000  0.4629630000000  0.5158320000000 1.0
C      1  0.4889180000000  0.4408940000000  0.5037170000000 1.0
C      1  0.4948910000000  0.5473740000000  0.4951710000000 1.0
C      1  0.4554870000000  0.5468080000000  0.4683950000000 1.0
C      1  0.4480930000000  0.4488020000000  0.5291510000000 1.0
C      1  0.4234620000000  0.4927190000000  0.5182350000000 1.0
C      1  0.4254240000000  0.5103450000000  0.4927950000000 1.0
C      1  0.5727700000000  0.5035400000000  0.4824590000000 1.0
C      1  0.5709390000000  0.4922540000000  0.5087720000000 1.0
C      1  0.4942280000000  0.5170450000000  0.5842610000000 1.0
C      1  0.4949420000000  0.4933520000000  0.4130360000000 1.0
C      1  0.4996110000000  0.4641170000000  0.4510010000000 1.0
C      1  0.5101540000000  0.5564750000000  0.5603090000000 1.0
C      1  0.5627140000000  0.5528990000000  0.4928960000000 1.0
C      1  0.5641820000000  0.4430280000000  0.5293030000000 1.0
C      1  0.4668810000000  0.4918240000000  0.5295650000000 1.0
C      1  0.4653890000000  0.4893400000000  0.4781110000000 1.0
C      1  0.5458470000000  0.4293740000000  0.5443730000000 1.0
C      1  0.5378950000000  0.5661970000000  0.4895930000000 1.0
C      1  0.5497620000000  0.4958000000000  0.4390130000000 1.0
C      1  0.5395590000000  0.5069920000000  0.5421590000000 1.0
C      1  0.5444630000000  0.5237520000000  0.4357860000000 1.0
C      1  0.5217240000000  0.4855120000000  0.5366810000000 1.0
C      1  0.5171900000000  0.5628360000000  0.5354240000000 1.0
C      1  0.5200170000000  0.4553440000000  0.4688050000000 1.0
END
