TITL C-2323477-5056-455 -0.000798167687144507 125000 -312.243006695891 0 0 60 (C1) n - 1
REM
REM in /home/bkarasulu/CARBON/AIRSS/Generating-Clusters/LCBOP/Higher-Symm/Only-C60/SD-CG/FIRE-HFTN
REM
REM
REM
REM
REM
REM ./C.cell (50c204cfd26239f34c78669fe23a5462)
REM
REM compiler GCC version 9.2.1 20190827 (Red Hat 9.2.1-1)
REM options -cpp -mtune=generic -march=x86-64 -g -O0 -fpre-include=/usr/include/finclude/math-vector-fortran.h
REM seed -1895273422 489434770 393779374 1031690018 -812495742 -455935172 28989679 -139188915 -2062036431 -1117373833 -102237583 -354992776 -907685957 -201539460 234936305 1718079682 1553509752 -556774161 2069863671 -429822219 1125405643 1412244771 1152147854 1668174085 -9055902 -379133243 -2090862327 283977396 1722887008 -989254762 -239272012 2035084311 -434294101
REM
CELL 1.54180   50.00000   50.00000   50.00000   90.00000   90.00000   90.00000
LATT -1
SFAC C  
C      1  0.5336440000000  0.4802620000000  0.5586710000000 1.0
C      1  0.4871800000000  0.5574550000000  0.5343240000000 1.0
C      1  0.5602440000000  0.5321150000000  0.4715480000000 1.0
C      1  0.4641800000000  0.5192780000000  0.5708230000000 1.0
C      1  0.5442120000000  0.4691590000000  0.4092840000000 1.0
C      1  0.4648430000000  0.4947590000000  0.4280310000000 1.0
C      1  0.4738060000000  0.4086850000000  0.5439130000000 1.0
C      1  0.4961920000000  0.4274610000000  0.4676630000000 1.0
C      1  0.5253720000000  0.5701370000000  0.4739760000000 1.0
C      1  0.4279120000000  0.4679760000000  0.4949080000000 1.0
C      1  0.5695380000000  0.4831030000000  0.5255890000000 1.0
C      1  0.4114800000000  0.5475200000000  0.4725160000000 1.0
C      1  0.5289620000000  0.4748960000000  0.4296000000000 1.0
C      1  0.5320620000000  0.5922000000000  0.4618590000000 1.0
C      1  0.5712640000000  0.5341770000000  0.4970990000000 1.0
C      1  0.4644830000000  0.5196730000000  0.4394840000000 1.0
C      1  0.5307530000000  0.5026190000000  0.5740830000000 1.0
C      1  0.4484530000000  0.5233810000000  0.5911820000000 1.0
C      1  0.5205510000000  0.4399360000000  0.4668420000000 1.0
C      1  0.4785310000000  0.4304460000000  0.5303970000000 1.0
C      1  0.5143010000000  0.5620730000000  0.5339680000000 1.0
C      1  0.4397750000000  0.4662970000000  0.5195050000000 1.0
C      1  0.5922280000000  0.4731390000000  0.5336100000000 1.0
C      1  0.4318490000000  0.5323560000000  0.4783150000000 1.0
C      1  0.5440210000000  0.4968200000000  0.5156380000000 1.0
C      1  0.4866220000000  0.5149100000000  0.5511540000000 1.0
C      1  0.5179810000000  0.5447800000000  0.4884940000000 1.0
C      1  0.4592270000000  0.5092850000000  0.5135310000000 1.0
C      1  0.5316600000000  0.5202440000000  0.4735190000000 1.0
C      1  0.4381420000000  0.4852330000000  0.4763790000000 1.0
C      1  0.5196960000000  0.4817180000000  0.5308700000000 1.0
C      1  0.4818730000000  0.4756680000000  0.4378220000000 1.0
C      1  0.5081370000000  0.5124410000000  0.4555420000000 1.0
C      1  0.4767910000000  0.4379660000000  0.4838750000000 1.0
C      1  0.5131880000000  0.4602570000000  0.5088610000000 1.0
C      1  0.4796930000000  0.5302650000000  0.5237760000000 1.0
C      1  0.5404860000000  0.4913620000000  0.4850290000000 1.0
C      1  0.4786870000000  0.5208730000000  0.4672380000000 1.0
C      1  0.5296560000000  0.5457710000000  0.5165800000000 1.0
C      1  0.4530640000000  0.5107120000000  0.4836840000000 1.0
C      1  0.5515030000000  0.5272540000000  0.5176330000000 1.0
C      1  0.4682000000000  0.4785630000000  0.5208310000000 1.0
C      1  0.5083830000000  0.4822800000000  0.4510640000000 1.0
C      1  0.4892990000000  0.4857250000000  0.5424950000000 1.0
C      1  0.5116890000000  0.5209610000000  0.5675910000000 1.0
C      1  0.4834470000000  0.4524170000000  0.5096300000000 1.0
C      1  0.5200710000000  0.4689100000000  0.4781900000000 1.0
C      1  0.4882860000000  0.5413510000000  0.4882260000000 1.0
C      1  0.4333930000000  0.5157240000000  0.5286460000000 1.0
C      1  0.5129090000000  0.5274210000000  0.4295770000000 1.0
C      1  0.5307830000000  0.4366210000000  0.5163780000000 1.0
C      1  0.5884560000000  0.4724600000000  0.4626440000000 1.0
C      1  0.4098760000000  0.5216820000000  0.5381510000000 1.0
C      1  0.5665710000000  0.4823650000000  0.4727190000000 1.0
C      1  0.5192680000000  0.5409120000000  0.4082280000000 1.0
C      1  0.4848990000000  0.4678950000000  0.5664460000000 1.0
C      1  0.4800950000000  0.4561370000000  0.5891970000000 1.0
C      1  0.4734800000000  0.5667220000000  0.4860380000000 1.0
C      1  0.4626310000000  0.5902240000000  0.4830310000000 1.0
C      1  0.5460230000000  0.4169670000000  0.5241040000000 1.0
END
