TITL C-2323490-8774-31 2.24221960503447e-06 125000 -356.125332114825 0 0 60 (D6d) n - 1
REM
REM in /home/bkarasulu/CARBON/AIRSS/Generating-Clusters/LCBOP/Higher-Symm/Only-C60/SD-CG/FIRE-HFTN
REM
REM
REM
REM
REM
REM ./C.cell (50c204cfd26239f34c78669fe23a5462)
REM
REM compiler GCC version 9.2.1 20190827 (Red Hat 9.2.1-1)
REM options -cpp -mtune=generic -march=x86-64 -g -O0 -fpre-include=/usr/include/finclude/math-vector-fortran.h
REM seed -2140436536 1479755241 1681887372 -715696277 847318560 -1388848056 344078409 930177166 -161152300 1383957833 2046981413 186967018 -1875411015 1155555956 -1596446876 -621112221 1376673200 -1665430100 426069121 169995890 2104911497 826421426 -1420038170 112341486 2022265761 -2058117201 286250552 -1384415373 2007471404 -205740182 -1150584060 -640151084 1205337860
REM
CELL 1.54180   50.00000   50.00000   50.00000   90.00000   90.00000   90.00000
LATT -1
SFAC C  
C      1  0.4649970000000  0.5333980000000  0.5397270000000 1.0
C      1  0.4649960000000  0.5511040000000  0.4909410000000 1.0
C      1  0.4649940000000  0.5177070000000  0.4512150000000 1.0
C      1  0.4649920000000  0.4666040000000  0.4602750000000 1.0
C      1  0.4649930000000  0.4488980000000  0.5090610000000 1.0
C      1  0.4649950000000  0.4822960000000  0.5487870000000 1.0
C      1  0.4610600000000  0.4528410000000  0.5396480000000 1.0
C      1  0.4610580000000  0.4420870000000  0.4789830000000 1.0
C      1  0.4610580000000  0.4892460000000  0.4393360000000 1.0
C      1  0.4610600000000  0.5471610000000  0.4603550000000 1.0
C      1  0.4610620000000  0.5579160000000  0.5210200000000 1.0
C      1  0.4610620000000  0.5107560000000  0.5606660000000 1.0
C      1  0.4999970000000  0.5079280000000  0.4084050000000 1.0
C      1  0.4999960000000  0.4246410000000  0.4473370000000 1.0
C      1  0.4999990000000  0.4167130000000  0.5389310000000 1.0
C      1  0.5000020000000  0.4920720000000  0.5915950000000 1.0
C      1  0.5000040000000  0.5753590000000  0.5526630000000 1.0
C      1  0.5000010000000  0.5832870000000  0.4610690000000 1.0
C      1  0.4839350000000  0.4852100000000  0.4165730000000 1.0
C      1  0.4839380000000  0.5648560000000  0.4454780000000 1.0
C      1  0.4839410000000  0.5796460000000  0.5289060000000 1.0
C      1  0.4839410000000  0.5147910000000  0.5834280000000 1.0
C      1  0.4839380000000  0.4351450000000  0.5545230000000 1.0
C      1  0.4839350000000  0.4203550000000  0.4710950000000 1.0
C      1  0.5066850000000  0.4920920000000  0.4553920000000 1.0
C      1  0.5066850000000  0.4574150000000  0.4845450000000 1.0
C      1  0.5066870000000  0.4653230000000  0.5291520000000 1.0
C      1  0.5066890000000  0.5079080000000  0.5446070000000 1.0
C      1  0.5066890000000  0.5425850000000  0.5154550000000 1.0
C      1  0.5066870000000  0.5346770000000  0.4708480000000 1.0
C      1  0.4933120000000  0.5154550000000  0.4574150000000 1.0
C      1  0.4933140000000  0.5446080000000  0.4920920000000 1.0
C      1  0.4933150000000  0.5291520000000  0.5346770000000 1.0
C      1  0.4933140000000  0.4845450000000  0.5425850000000 1.0
C      1  0.4933120000000  0.4553930000000  0.5079080000000 1.0
C      1  0.4933110000000  0.4708480000000  0.4653230000000 1.0
C      1  0.5389380000000  0.4393340000000  0.5107540000000 1.0
C      1  0.5389410000000  0.4789800000000  0.5579140000000 1.0
C      1  0.5389430000000  0.5396450000000  0.5471590000000 1.0
C      1  0.5389420000000  0.5606640000000  0.4892440000000 1.0
C      1  0.5389390000000  0.5210170000000  0.4420840000000 1.0
C      1  0.5389370000000  0.4603520000000  0.4528390000000 1.0
C      1  0.5350080000000  0.5487850000000  0.5177040000000 1.0
C      1  0.5350070000000  0.5090590000000  0.5511020000000 1.0
C      1  0.5350050000000  0.4602720000000  0.5333960000000 1.0
C      1  0.5350030000000  0.4512130000000  0.4822930000000 1.0
C      1  0.5350040000000  0.4909390000000  0.4488960000000 1.0
C      1  0.5350060000000  0.5397250000000  0.4666020000000 1.0
C      1  0.5160660000000  0.5545220000000  0.5648550000000 1.0
C      1  0.5160640000000  0.5834270000000  0.4852090000000 1.0
C      1  0.5160600000000  0.5289050000000  0.4203540000000 1.0
C      1  0.5160580000000  0.4454770000000  0.4351440000000 1.0
C      1  0.5160600000000  0.4165720000000  0.5147900000000 1.0
C      1  0.5160630000000  0.4710940000000  0.5796450000000 1.0
C      1  0.5000010000000  0.4473370000000  0.5753590000000 1.0
C      1  0.4999970000000  0.4084050000000  0.4920720000000 1.0
C      1  0.4999960000000  0.4610690000000  0.4167130000000 1.0
C      1  0.4999990000000  0.5526630000000  0.4246410000000 1.0
C      1  0.5000030000000  0.5915950000000  0.5079280000000 1.0
C      1  0.5000040000000  0.5389310000000  0.5832870000000 1.0
END
