TITL C-2323481-8605-556 0.601200090817828 125000 -356.706403085069 0 0 60 (C1) n - 1
REM
REM in /home/bkarasulu/CARBON/AIRSS/Generating-Clusters/LCBOP/Higher-Symm/Only-C60/SD-CG/FIRE-HFTN
REM
REM
REM
REM
REM
REM ./C.cell (50c204cfd26239f34c78669fe23a5462)
REM
REM compiler GCC version 9.2.1 20190827 (Red Hat 9.2.1-1)
REM options -cpp -mtune=generic -march=x86-64 -g -O0 -fpre-include=/usr/include/finclude/math-vector-fortran.h
REM seed -2114892517 1932750928 -981107038 721453189 2014420128 1619740858 543307340 1784703473 -753667511 630687750 -269319237 1289396587 767711364 1628689462 1871547306 -1639783060 1852861576 -1176124501 1304557513 923534962 -227009666 831051775 1222071940 1558425338 960159712 -594938839 10158422 -1343252715 -2127910973 -1185424060 1518113072 -1100146513 -1339466063
REM
CELL 1.54180   50.00000   50.00000   50.00000   90.00000   90.00000   90.00000
LATT -1
SFAC C  
C      1  0.6113820000000  0.4639930000000  0.4229140000000 1.0
C      1  0.4294290000000  0.4960810000000  0.5407070000000 1.0
C      1  0.4413010000000  0.4254560000000  0.4748320000000 1.0
C      1  0.5661930000000  0.4623730000000  0.5071880000000 1.0
C      1  0.5376270000000  0.4242450000000  0.4999250000000 1.0
C      1  0.5437290000000  0.4504270000000  0.4942310000000 1.0
C      1  0.4534730000000  0.5419420000000  0.3990930000000 1.0
C      1  0.5561220000000  0.5134720000000  0.4249250000000 1.0
C      1  0.5248970000000  0.4554060000000  0.4492120000000 1.0
C      1  0.4411300000000  0.4381410000000  0.4982610000000 1.0
C      1  0.4610870000000  0.5071410000000  0.4619160000000 1.0
C      1  0.4689530000000  0.5057690000000  0.5164920000000 1.0
C      1  0.4234790000000  0.4825730000000  0.5153930000000 1.0
C      1  0.5124020000000  0.4878070000000  0.4832390000000 1.0
C      1  0.5764190000000  0.5001460000000  0.5339880000000 1.0
C      1  0.5248970000000  0.5519420000000  0.5123950000000 1.0
C      1  0.4536390000000  0.5356020000000  0.5507870000000 1.0
C      1  0.4984430000000  0.5627390000000  0.5739200000000 1.0
C      1  0.5228910000000  0.5024610000000  0.5068980000000 1.0
C      1  0.4844800000000  0.5207560000000  0.4981680000000 1.0
C      1  0.4443080000000  0.4296680000000  0.4486730000000 1.0
C      1  0.4611450000000  0.5638400000000  0.5110280000000 1.0
C      1  0.5933080000000  0.4995810000000  0.5104490000000 1.0
C      1  0.4562400000000  0.5014100000000  0.4346140000000 1.0
C      1  0.4870310000000  0.5027910000000  0.4745510000000 1.0
C      1  0.4421070000000  0.4921790000000  0.5674040000000 1.0
C      1  0.4806810000000  0.5738760000000  0.5568030000000 1.0
C      1  0.5222930000000  0.4475150000000  0.4245140000000 1.0
C      1  0.5547780000000  0.5191520000000  0.5367600000000 1.0
C      1  0.4403880000000  0.5198300000000  0.4797230000000 1.0
C      1  0.4440890000000  0.4626530000000  0.5107260000000 1.0
C      1  0.5865020000000  0.4777100000000  0.4929450000000 1.0
C      1  0.4883280000000  0.5132990000000  0.5779540000000 1.0
C      1  0.4214900000000  0.5014720000000  0.4927440000000 1.0
C      1  0.5105180000000  0.5288790000000  0.5047190000000 1.0
C      1  0.4687730000000  0.4768120000000  0.5147060000000 1.0
C      1  0.5944050000000  0.4745060000000  0.4666940000000 1.0
C      1  0.4472530000000  0.5170420000000  0.5306610000000 1.0
C      1  0.5003230000000  0.4875640000000  0.5712380000000 1.0
C      1  0.4551150000000  0.4680450000000  0.5750360000000 1.0
C      1  0.5268890000000  0.4646920000000  0.4755040000000 1.0
C      1  0.5941860000000  0.4779200000000  0.4389320000000 1.0
C      1  0.4460270000000  0.5463870000000  0.4923730000000 1.0
C      1  0.5486420000000  0.5456800000000  0.5276020000000 1.0
C      1  0.4822800000000  0.4658830000000  0.5756670000000 1.0
C      1  0.5309100000000  0.5022040000000  0.5340330000000 1.0
C      1  0.5757780000000  0.4959710000000  0.4280410000000 1.0
C      1  0.4840350000000  0.5782930000000  0.5016290000000 1.0
C      1  0.5107400000000  0.5755960000000  0.5062230000000 1.0
C      1  0.5660690000000  0.4713740000000  0.5354700000000 1.0
C      1  0.4617890000000  0.5605310000000  0.5403580000000 1.0
C      1  0.5457200000000  0.4657830000000  0.5548990000000 1.0
C      1  0.4487080000000  0.4489420000000  0.4308190000000 1.0
C      1  0.5361250000000  0.5307330000000  0.4271690000000 1.0
C      1  0.4548790000000  0.5221550000000  0.4159950000000 1.0
C      1  0.5173850000000  0.5481800000000  0.4320740000000 1.0
C      1  0.4528530000000  0.4748440000000  0.4265300000000 1.0
C      1  0.4597030000000  0.5167310000000  0.5726260000000 1.0
C      1  0.5024640000000  0.5373730000000  0.5822690000000 1.0
C      1  0.5237700000000  0.4844330000000  0.5553660000000 1.0
END
