TITL C-2323489-8765-226 2.4314834328389e-06 125000 -372.713842414898 0 0 60 (Cs) n - 1
REM
REM in /home/bkarasulu/CARBON/AIRSS/Generating-Clusters/LCBOP/Higher-Symm/Only-C60/SD-CG/FIRE-HFTN
REM
REM
REM
REM
REM
REM ./C.cell (50c204cfd26239f34c78669fe23a5462)
REM
REM compiler GCC version 9.2.1 20190827 (Red Hat 9.2.1-1)
REM options -cpp -mtune=generic -march=x86-64 -g -O0 -fpre-include=/usr/include/finclude/math-vector-fortran.h
REM seed -1030334359 541216929 1931241369 2069012298 -58927546 -1098904177 138968201 -1025791324 -887524821 1879047163 1676161126 1585822005 -51551622 1298322527 -966246268 226612117 12895548 -341835863 -1072187836 93514196 -438895753 1157553289 398334064 1197331483 -1732590624 88177543 1557197500 -229236083 -329547082 1885287328 325617364 1314018508 1667820327
REM
CELL 1.54180   50.00000   50.00000   50.00000   90.00000   90.00000   90.00000
LATT -1
SFAC C  
C      1  0.5567920000000  0.4619250000000  0.4491210000000 1.0
C      1  0.5572230000000  0.5318040000000  0.4453020000000 1.0
C      1  0.5572320000000  0.5603420000000  0.5190040000000 1.0
C      1  0.5568060000000  0.5061140000000  0.5632410000000 1.0
C      1  0.5584230000000  0.4389960000000  0.5236140000000 1.0
C      1  0.4424070000000  0.4582610000000  0.4527500000000 1.0
C      1  0.4427760000000  0.5367050000000  0.4484410000000 1.0
C      1  0.4427840000000  0.5618610000000  0.5134070000000 1.0
C      1  0.4424200000000  0.5009700000000  0.5630500000000 1.0
C      1  0.4443070000000  0.4426150000000  0.5222270000000 1.0
C      1  0.5801740000000  0.5480210000000  0.5135150000000 1.0
C      1  0.5797340000000  0.5030760000000  0.5500720000000 1.0
C      1  0.5806960000000  0.4525700000000  0.5183550000000 1.0
C      1  0.5797230000000  0.4685460000000  0.4608970000000 1.0
C      1  0.5801670000000  0.5263910000000  0.4576530000000 1.0
C      1  0.4197340000000  0.5486060000000  0.5122050000000 1.0
C      1  0.4192330000000  0.5022990000000  0.5500650000000 1.0
C      1  0.4205700000000  0.4538470000000  0.5178800000000 1.0
C      1  0.4192220000000  0.4679910000000  0.4614590000000 1.0
C      1  0.4197270000000  0.5277190000000  0.4582610000000 1.0
C      1  0.5289570000000  0.5057570000000  0.5635150000000 1.0
C      1  0.5306000000000  0.4378510000000  0.5240610000000 1.0
C      1  0.5289430000000  0.4614790000000  0.4491640000000 1.0
C      1  0.5293860000000  0.5323710000000  0.4455150000000 1.0
C      1  0.5293950000000  0.5606200000000  0.5184710000000 1.0
C      1  0.4702400000000  0.5015770000000  0.5626020000000 1.0
C      1  0.4721560000000  0.4436110000000  0.5218380000000 1.0
C      1  0.4702270000000  0.4590090000000  0.4526660000000 1.0
C      1  0.4706200000000  0.5363300000000  0.4479590000000 1.0
C      1  0.4706280000000  0.5619050000000  0.5140110000000 1.0
C      1  0.4864070000000  0.4786370000000  0.5598270000000 1.0
C      1  0.4871280000000  0.4364410000000  0.4988650000000 1.0
C      1  0.4842820000000  0.4770970000000  0.4367880000000 1.0
C      1  0.4868480000000  0.5535380000000  0.4633860000000 1.0
C      1  0.4846130000000  0.5561430000000  0.5374430000000 1.0
C      1  0.5148010000000  0.4817400000000  0.5651510000000 1.0
C      1  0.5154970000000  0.4311940000000  0.5016860000000 1.0
C      1  0.5129370000000  0.4816900000000  0.4375710000000 1.0
C      1  0.5154040000000  0.5527320000000  0.4584910000000 1.0
C      1  0.5131870000000  0.5515090000000  0.5397300000000 1.0
C      1  0.4846010000000  0.5162880000000  0.4345150000000 1.0
C      1  0.4868520000000  0.5642360000000  0.4910140000000 1.0
C      1  0.4842970000000  0.5256410000000  0.5621560000000 1.0
C      1  0.4871340000000  0.4537800000000  0.5436450000000 1.0
C      1  0.4863960000000  0.4439190000000  0.4701630000000 1.0
C      1  0.5131740000000  0.5113200000000  0.4359390000000 1.0
C      1  0.5154080000000  0.5669350000000  0.4951700000000 1.0
C      1  0.5129520000000  0.5285060000000  0.5584780000000 1.0
C      1  0.5155020000000  0.4479990000000  0.5450870000000 1.0
C      1  0.5147880000000  0.4426250000000  0.4641320000000 1.0
C      1  0.5912180000000  0.5235020000000  0.5063980000000 1.0
C      1  0.5910250000000  0.5009900000000  0.5247270000000 1.0
C      1  0.5910510000000  0.4766290000000  0.5090380000000 1.0
C      1  0.5910200000000  0.4840730000000  0.4810350000000 1.0
C      1  0.5912150000000  0.5130580000000  0.4794240000000 1.0
C      1  0.4082580000000  0.5239470000000  0.5063140000000 1.0
C      1  0.4080930000000  0.5015030000000  0.5245950000000 1.0
C      1  0.4082630000000  0.4771430000000  0.5088620000000 1.0
C      1  0.4080870000000  0.4845550000000  0.4808260000000 1.0
C      1  0.4082550000000  0.5134580000000  0.4792240000000 1.0
END
