TITL C-2323485-8600-479 1.77562400100811e-06 125000 -370.072026034904 0 0 60 (Td) n - 1
REM
REM in /home/bkarasulu/CARBON/AIRSS/Generating-Clusters/LCBOP/Higher-Symm/Only-C60/SD-CG/FIRE-HFTN
REM
REM
REM
REM
REM
REM ./C.cell (50c204cfd26239f34c78669fe23a5462)
REM
REM compiler GCC version 9.2.1 20190827 (Red Hat 9.2.1-1)
REM options -cpp -mtune=generic -march=x86-64 -g -O0 -fpre-include=/usr/include/finclude/math-vector-fortran.h
REM seed -142143748 465670002 -41915012 -1894120056 297826600 1385878320 -585651066 -2074350611 487807187 256528494 -539361746 1239903236 -1781939478 1690921675 -1017959126 1014312156 383751951 -922445390 -1114541311 1969098306 -2000161429 1237724021 529768210 1665986035 -995862590 585455019 -173152724 -1602570063 -322321983 293578427 1336701958 1913751628 1035425951
REM
CELL 1.54180   50.00000   50.00000   50.00000   90.00000   90.00000   90.00000
LATT -1
SFAC C  
C      1  0.5542260000000  0.4874780000000  0.5730080000000 1.0
C      1  0.4874780000000  0.5730080000000  0.5542260000000 1.0
C      1  0.5730080000000  0.5542260000000  0.4874780000000 1.0
C      1  0.4457740000000  0.5125220000000  0.5730080000000 1.0
C      1  0.5542260000000  0.5125220000000  0.4269920000000 1.0
C      1  0.4457740000000  0.4874780000000  0.4269920000000 1.0
C      1  0.5125220000000  0.4269920000000  0.5542260000000 1.0
C      1  0.4874780000000  0.4269920000000  0.4457740000000 1.0
C      1  0.5125220000000  0.5730080000000  0.4457740000000 1.0
C      1  0.4269920000000  0.4457740000000  0.4874780000000 1.0
C      1  0.5730080000000  0.4457740000000  0.5125220000000 1.0
C      1  0.4269920000000  0.5542260000000  0.5125220000000 1.0
C      1  0.4874780000000  0.5542260000000  0.5730080000000 1.0
C      1  0.5730080000000  0.4874780000000  0.5542260000000 1.0
C      1  0.5542260000000  0.5730080000000  0.4874780000000 1.0
C      1  0.5125220000000  0.4457740000000  0.5730080000000 1.0
C      1  0.5125220000000  0.5542260000000  0.4269920000000 1.0
C      1  0.4874780000000  0.4457740000000  0.4269920000000 1.0
C      1  0.4269920000000  0.5125220000000  0.5542260000000 1.0
C      1  0.4269920000000  0.4874780000000  0.4457740000000 1.0
C      1  0.5730080000000  0.5125220000000  0.4457740000000 1.0
C      1  0.4457740000000  0.4269920000000  0.4874780000000 1.0
C      1  0.4457740000000  0.5730080000000  0.5125220000000 1.0
C      1  0.5542260000000  0.4269920000000  0.5125220000000 1.0
C      1  0.4179780000000  0.5079890000000  0.5282760000000 1.0
C      1  0.5079890000000  0.5282760000000  0.4179780000000 1.0
C      1  0.5282760000000  0.4179780000000  0.5079890000000 1.0
C      1  0.5820220000000  0.4920110000000  0.5282760000000 1.0
C      1  0.4179780000000  0.4920110000000  0.4717240000000 1.0
C      1  0.5820220000000  0.5079890000000  0.4717240000000 1.0
C      1  0.4920110000000  0.4717240000000  0.4179780000000 1.0
C      1  0.5079890000000  0.4717240000000  0.5820220000000 1.0
C      1  0.4920110000000  0.5282760000000  0.5820220000000 1.0
C      1  0.4717240000000  0.5820220000000  0.5079890000000 1.0
C      1  0.5282760000000  0.5820220000000  0.4920110000000 1.0
C      1  0.4717240000000  0.4179780000000  0.4920110000000 1.0
C      1  0.5079890000000  0.4179780000000  0.5282760000000 1.0
C      1  0.5282760000000  0.5079890000000  0.4179780000000 1.0
C      1  0.4179780000000  0.5282760000000  0.5079890000000 1.0
C      1  0.4920110000000  0.5820220000000  0.5282760000000 1.0
C      1  0.4920110000000  0.4179780000000  0.4717240000000 1.0
C      1  0.5079890000000  0.5820220000000  0.4717240000000 1.0
C      1  0.4717240000000  0.4920110000000  0.4179780000000 1.0
C      1  0.4717240000000  0.5079890000000  0.5820220000000 1.0
C      1  0.5282760000000  0.4920110000000  0.5820220000000 1.0
C      1  0.5820220000000  0.4717240000000  0.5079890000000 1.0
C      1  0.5820220000000  0.5282760000000  0.4920110000000 1.0
C      1  0.4179780000000  0.4717240000000  0.4920110000000 1.0
C      1  0.4817230000000  0.4817230000000  0.5857480000000 1.0
C      1  0.5182770000000  0.4817230000000  0.4142520000000 1.0
C      1  0.4142520000000  0.5182770000000  0.4817230000000 1.0
C      1  0.4817230000000  0.5182770000000  0.4142520000000 1.0
C      1  0.4817230000000  0.5857480000000  0.4817230000000 1.0
C      1  0.5182770000000  0.4142520000000  0.4817230000000 1.0
C      1  0.4142520000000  0.4817230000000  0.5182770000000 1.0
C      1  0.5857480000000  0.5182770000000  0.5182770000000 1.0
C      1  0.5857480000000  0.4817230000000  0.4817230000000 1.0
C      1  0.4817230000000  0.4142520000000  0.5182770000000 1.0
C      1  0.5182770000000  0.5182770000000  0.5857480000000 1.0
C      1  0.5182770000000  0.5857480000000  0.5182770000000 1.0
END
