TITL C-2323487-9546-402 -0.000566515872337063 125000 -363.752905182416 0 0 60 (C1) n - 1
REM
REM in /home/bkarasulu/CARBON/AIRSS/Generating-Clusters/LCBOP/Higher-Symm/Only-C60/SD-CG/FIRE-HFTN
REM
REM
REM
REM
REM
REM ./C.cell (50c204cfd26239f34c78669fe23a5462)
REM
REM compiler GCC version 9.2.1 20190827 (Red Hat 9.2.1-1)
REM options -cpp -mtune=generic -march=x86-64 -g -O0 -fpre-include=/usr/include/finclude/math-vector-fortran.h
REM seed 781850663 300074815 -1917772603 1767924009 -1095677313 -32652257 -1952563239 1364120216 2089104027 -1842284354 253725338 428552112 -917074731 -990750183 -1027237648 -1288741255 962852823 -88519202 -2011504241 1854714900 1419735247 1301743822 1387417078 -700688592 -1975845376 -269109595 746515083 -1692910862 -1464587896 -407816025 1803232175 352637742 2046233708
REM
CELL 1.54180   50.00000   50.00000   50.00000   90.00000   90.00000   90.00000
LATT -1
SFAC C  
C      1  0.4994330000000  0.4135970000000  0.4764020000000 1.0
C      1  0.4688050000000  0.4950230000000  0.5735920000000 1.0
C      1  0.5066850000000  0.4766760000000  0.5437460000000 1.0
C      1  0.5157560000000  0.4184660000000  0.4535630000000 1.0
C      1  0.5932090000000  0.4754130000000  0.5133330000000 1.0
C      1  0.5004980000000  0.3661030000000  0.5020320000000 1.0
C      1  0.5173670000000  0.5445170000000  0.4761420000000 1.0
C      1  0.4936890000000  0.5416250000000  0.5735230000000 1.0
C      1  0.4560070000000  0.5544160000000  0.4540650000000 1.0
C      1  0.5251380000000  0.4444500000000  0.4491280000000 1.0
C      1  0.4580500000000  0.5777920000000  0.4982870000000 1.0
C      1  0.5737070000000  0.4968980000000  0.5731600000000 1.0
C      1  0.4349260000000  0.5067360000000  0.3951350000000 1.0
C      1  0.5397120000000  0.5307880000000  0.5680820000000 1.0
C      1  0.5312310000000  0.4863780000000  0.5526710000000 1.0
C      1  0.5573390000000  0.5198710000000  0.4672280000000 1.0
C      1  0.5262940000000  0.4721260000000  0.4520560000000 1.0
C      1  0.4379320000000  0.5107870000000  0.5145910000000 1.0
C      1  0.5001090000000  0.3888420000000  0.4893080000000 1.0
C      1  0.5186820000000  0.5488230000000  0.5631170000000 1.0
C      1  0.4624910000000  0.4448900000000  0.4696630000000 1.0
C      1  0.4528310000000  0.4961230000000  0.4127580000000 1.0
C      1  0.5491770000000  0.5718870000000  0.5057290000000 1.0
C      1  0.4426020000000  0.4572880000000  0.5701220000000 1.0
C      1  0.4409030000000  0.4859020000000  0.5744730000000 1.0
C      1  0.5879890000000  0.5954260000000  0.5657230000000 1.0
C      1  0.4824730000000  0.4342370000000  0.4861900000000 1.0
C      1  0.4217290000000  0.5013650000000  0.5611610000000 1.0
C      1  0.4676290000000  0.4500370000000  0.5580430000000 1.0
C      1  0.5543350000000  0.4963890000000  0.4828140000000 1.0
C      1  0.5217570000000  0.3983320000000  0.4360510000000 1.0
C      1  0.5064670000000  0.4873810000000  0.4952480000000 1.0
C      1  0.4729290000000  0.4352440000000  0.5348500000000 1.0
C      1  0.4787370000000  0.5753480000000  0.5150320000000 1.0
C      1  0.5489680000000  0.5763000000000  0.5342790000000 1.0
C      1  0.5012860000000  0.4847320000000  0.4109360000000 1.0
C      1  0.5344910000000  0.5326280000000  0.4564320000000 1.0
C      1  0.5235060000000  0.5631040000000  0.4959850000000 1.0
C      1  0.5019260000000  0.4689610000000  0.5164740000000 1.0
C      1  0.4487450000000  0.5707440000000  0.4741640000000 1.0
C      1  0.5219780000000  0.4899780000000  0.4303590000000 1.0
C      1  0.4845930000000  0.4740140000000  0.5613720000000 1.0
C      1  0.5691330000000  0.5865430000000  0.5500800000000 1.0
C      1  0.5220890000000  0.5678520000000  0.5425570000000 1.0
C      1  0.4453740000000  0.4766950000000  0.4316650000000 1.0
C      1  0.5291870000000  0.4834480000000  0.4782380000000 1.0
C      1  0.4773680000000  0.5365200000000  0.4517580000000 1.0
C      1  0.4910310000000  0.5253310000000  0.4295350000000 1.0
C      1  0.4868980000000  0.5083310000000  0.4915500000000 1.0
C      1  0.5199180000000  0.5191820000000  0.4354680000000 1.0
C      1  0.4919990000000  0.5315100000000  0.4760250000000 1.0
C      1  0.4774340000000  0.5210300000000  0.5781180000000 1.0
C      1  0.4798560000000  0.5039890000000  0.4131230000000 1.0
C      1  0.5738830000000  0.4864330000000  0.4997600000000 1.0
C      1  0.4610670000000  0.5061610000000  0.5023400000000 1.0
C      1  0.4866820000000  0.4449460000000  0.5120450000000 1.0
C      1  0.4498300000000  0.4593020000000  0.4512800000000 1.0
C      1  0.5053320000000  0.5680180000000  0.5187350000000 1.0
C      1  0.4219230000000  0.5105700000000  0.5359450000000 1.0
C      1  0.5488880000000  0.5045020000000  0.5647590000000 1.0
END
