TITL C-2323482-8828-83 12124.9706211399 125000 -327.628557595967 0 0 60 (Th) n - 1
REM
REM in /home/bkarasulu/CARBON/AIRSS/Generating-Clusters/LCBOP/Higher-Symm/Only-C60/SD-CG/FIRE-HFTN
REM
REM
REM
REM
REM
REM ./C.cell (50c204cfd26239f34c78669fe23a5462)
REM
REM compiler GCC version 9.2.1 20190827 (Red Hat 9.2.1-1)
REM options -cpp -mtune=generic -march=x86-64 -g -O0 -fpre-include=/usr/include/finclude/math-vector-fortran.h
REM seed 1034846739 -506430780 600599426 1182999323 161906117 -224810964 1293040281 111247453 -347960322 -1263999073 -2062047480 -686637689 -825140859 563438602 1103762860 1214176364 296256437 1243976629 -450560257 1343476332 1184303865 2024272121 -1782930203 -580485974 -2025234918 1881366859 744045216 -957123015 1233511983 1964678420 193456323 1084459175 -776175982
REM
CELL 1.54180   50.00000   50.00000   50.00000   90.00000   90.00000   90.00000
LATT -1
SFAC C  
C      1  0.5252470000000  0.5723480000000  0.5145460000000 1.0
C      1  0.5142550000000  0.5255430000000  0.5726200000000 1.0
C      1  0.5727080000000  0.5142820000000  0.5249150000000 1.0
C      1  0.5259510000000  0.4271890000000  0.4859550000000 1.0
C      1  0.4749060000000  0.4272400000000  0.5143480000000 1.0
C      1  0.4741950000000  0.5726920000000  0.4861600000000 1.0
C      1  0.5143780000000  0.4745510000000  0.4273550000000 1.0
C      1  0.4853320000000  0.4747910000000  0.5723360000000 1.0
C      1  0.4856720000000  0.5254130000000  0.4274470000000 1.0
C      1  0.5727720000000  0.4852610000000  0.4742520000000 1.0
C      1  0.4273680000000  0.4858840000000  0.5253100000000 1.0
C      1  0.4273500000000  0.5146390000000  0.4744730000000 1.0
C      1  0.4744010000000  0.5726440000000  0.5148590000000 1.0
C      1  0.4855580000000  0.5256620000000  0.5728330000000 1.0
C      1  0.4269800000000  0.5145780000000  0.5252810000000 1.0
C      1  0.4750690000000  0.4273360000000  0.4856490000000 1.0
C      1  0.5257260000000  0.4272520000000  0.5146540000000 1.0
C      1  0.5250880000000  0.5723380000000  0.4858440000000 1.0
C      1  0.4856770000000  0.4745640000000  0.4274510000000 1.0
C      1  0.5140330000000  0.4746090000000  0.5723250000000 1.0
C      1  0.5143730000000  0.5253970000000  0.4274640000000 1.0
C      1  0.4276720000000  0.4859390000000  0.4743610000000 1.0
C      1  0.5728660000000  0.4855860000000  0.5250720000000 1.0
C      1  0.5726840000000  0.5139600000000  0.4740280000000 1.0
C      1  0.5430620000000  0.4394600000000  0.5318980000000 1.0
C      1  0.5315910000000  0.5428530000000  0.4395280000000 1.0
C      1  0.4387210000000  0.5318250000000  0.5429120000000 1.0
C      1  0.5426620000000  0.5606180000000  0.4685320000000 1.0
C      1  0.4569030000000  0.5606740000000  0.5321050000000 1.0
C      1  0.4574680000000  0.4391140000000  0.4684050000000 1.0
C      1  0.5309920000000  0.4565310000000  0.5609290000000 1.0
C      1  0.4684940000000  0.4570730000000  0.4395140000000 1.0
C      1  0.4685710000000  0.5436950000000  0.5613910000000 1.0
C      1  0.4392100000000  0.4690260000000  0.4563310000000 1.0
C      1  0.5610090000000  0.4684720000000  0.5427510000000 1.0
C      1  0.5609920000000  0.5308810000000  0.4561020000000 1.0
C      1  0.4572210000000  0.4391220000000  0.5314370000000 1.0
C      1  0.4684670000000  0.5430200000000  0.4392800000000 1.0
C      1  0.5609940000000  0.5314910000000  0.5425880000000 1.0
C      1  0.4561950000000  0.5612020000000  0.4691810000000 1.0
C      1  0.5428300000000  0.5603000000000  0.5316500000000 1.0
C      1  0.5439300000000  0.4387160000000  0.4689780000000 1.0
C      1  0.4680960000000  0.4573330000000  0.5602930000000 1.0
C      1  0.5316180000000  0.4569280000000  0.4391130000000 1.0
C      1  0.5312480000000  0.5435180000000  0.5611040000000 1.0
C      1  0.5606640000000  0.4679370000000  0.4569250000000 1.0
C      1  0.4388130000000  0.4689860000000  0.5434110000000 1.0
C      1  0.4394810000000  0.5319620000000  0.4571590000000 1.0
C      1  0.4750050000000  0.4999910000000  0.4202480000000 1.0
C      1  0.4209030000000  0.4750540000000  0.4997860000000 1.0
C      1  0.5005600000000  0.4202660000000  0.4750780000000 1.0
C      1  0.4747800000000  0.5002160000000  0.5796800000000 1.0
C      1  0.5250220000000  0.4999870000000  0.4201700000000 1.0
C      1  0.4197430000000  0.5251540000000  0.4998410000000 1.0
C      1  0.5796430000000  0.5248730000000  0.4993960000000 1.0
C      1  0.5801280000000  0.4748050000000  0.4997190000000 1.0
C      1  0.4996170000000  0.5795220000000  0.4752970000000 1.0
C      1  0.5249290000000  0.4999940000000  0.5792220000000 1.0
C      1  0.4999280000000  0.5797200000000  0.5253560000000 1.0
C      1  0.5002520000000  0.4199820000000  0.5251500000000 1.0
END
