TITL C-2323487-9546-12 1.59500468555465e-06 125000 -382.881203556472 0 0 60 (C3) n - 1
REM
REM in /home/bkarasulu/CARBON/AIRSS/Generating-Clusters/LCBOP/Higher-Symm/Only-C60/SD-CG/FIRE-HFTN
REM
REM
REM
REM
REM
REM ./C.cell (50c204cfd26239f34c78669fe23a5462)
REM
REM compiler GCC version 9.2.1 20190827 (Red Hat 9.2.1-1)
REM options -cpp -mtune=generic -march=x86-64 -g -O0 -fpre-include=/usr/include/finclude/math-vector-fortran.h
REM seed -778996655 -8690843 349680458 665922317 247703164 -139572429 -176711826 -2004361887 -1999357981 -1832673485 803951918 -789952111 -417590677 -1242947107 1663548865 404961484 265676504 1122820828 -1473765806 -1786568726 -2113390196 1319075221 -517013585 -444917569 -2062693792 937696783 -896768062 2037700941 9539252 -93481189 2037470435 -1625062994 -1117160659
REM
CELL 1.54180   50.00000   50.00000   50.00000   90.00000   90.00000   90.00000
LATT -1
SFAC C  
C      1  0.4859230000000  0.5118550000000  0.4761210000000 1.0
C      1  0.4863590000000  0.5118550000000  0.5241300000000 1.0
C      1  0.5277180000000  0.5118550000000  0.4997480000000 1.0
C      1  0.5140770000000  0.5118550000000  0.4761220000000 1.0
C      1  0.5136410000000  0.5118550000000  0.5241310000000 1.0
C      1  0.4722820000000  0.5118550000000  0.4997480000000 1.0
C      1  0.5605450000000  0.5715330000000  0.4805030000000 1.0
C      1  0.4528420000000  0.5715330000000  0.4573150000000 1.0
C      1  0.4866120000000  0.5715330000000  0.5621820000000 1.0
C      1  0.4394550000000  0.5715330000000  0.4805020000000 1.0
C      1  0.5471580000000  0.5715330000000  0.4573150000000 1.0
C      1  0.5133870000000  0.5715330000000  0.5621820000000 1.0
C      1  0.4858710000000  0.4292070000000  0.4752290000000 1.0
C      1  0.4856120000000  0.4292080000000  0.5246220000000 1.0
C      1  0.5285180000000  0.4292080000000  0.5001500000000 1.0
C      1  0.5141300000000  0.4292080000000  0.4752290000000 1.0
C      1  0.5143880000000  0.4292080000000  0.5246230000000 1.0
C      1  0.4714830000000  0.4292080000000  0.5001490000000 1.0
C      1  0.4525710000000  0.5368880000000  0.5443550000000 1.0
C      1  0.5621270000000  0.5368880000000  0.5188970000000 1.0
C      1  0.4853020000000  0.5368880000000  0.4367480000000 1.0
C      1  0.5474280000000  0.5368880000000  0.5443560000000 1.0
C      1  0.4378730000000  0.5368880000000  0.5188960000000 1.0
C      1  0.5146990000000  0.5368880000000  0.4367480000000 1.0
C      1  0.5302730000000  0.5135040000000  0.5469270000000 1.0
C      1  0.5255040000000  0.5135040000000  0.4503190000000 1.0
C      1  0.4442230000000  0.5135040000000  0.5027540000000 1.0
C      1  0.4697260000000  0.5135040000000  0.5469270000000 1.0
C      1  0.4744970000000  0.5135040000000  0.4503180000000 1.0
C      1  0.5557770000000  0.5135040000000  0.5027550000000 1.0
C      1  0.4752390000000  0.4424700000000  0.5475320000000 1.0
C      1  0.5535450000000  0.4424690000000  0.4976780000000 1.0
C      1  0.4712170000000  0.4424690000000  0.4547900000000 1.0
C      1  0.5247610000000  0.4424700000000  0.5475330000000 1.0
C      1  0.4464550000000  0.4424690000000  0.4976770000000 1.0
C      1  0.5287840000000  0.4424690000000  0.4547910000000 1.0
C      1  0.5580160000000  0.4675790000000  0.4837460000000 1.0
C      1  0.4569160000000  0.4675790000000  0.4578840000000 1.0
C      1  0.4850690000000  0.4675790000000  0.5583700000000 1.0
C      1  0.4419850000000  0.4675790000000  0.4837450000000 1.0
C      1  0.5430850000000  0.4675790000000  0.4578850000000 1.0
C      1  0.5149310000000  0.4675790000000  0.5583710000000 1.0
C      1  0.4318340000000  0.4879080000000  0.5020000000000 1.0
C      1  0.5358150000000  0.4879090000000  0.5580340000000 1.0
C      1  0.5323510000000  0.4879080000000  0.4399660000000 1.0
C      1  0.5681660000000  0.4879090000000  0.5020010000000 1.0
C      1  0.4641840000000  0.4879090000000  0.5580340000000 1.0
C      1  0.4676490000000  0.4879080000000  0.4399660000000 1.0
C      1  0.4326070000000  0.5601100000000  0.5038050000000 1.0
C      1  0.5369920000000  0.5601110000000  0.5564610000000 1.0
C      1  0.5304010000000  0.5601100000000  0.4397330000000 1.0
C      1  0.5673930000000  0.5601100000000  0.5038060000000 1.0
C      1  0.4630070000000  0.5601100000000  0.5564610000000 1.0
C      1  0.4696000000000  0.5601100000000  0.4397320000000 1.0
C      1  0.5759970000000  0.4789450000000  0.5281580000000 1.0
C      1  0.4863860000000  0.4789450000000  0.4201060000000 1.0
C      1  0.4376160000000  0.4789450000000  0.5517370000000 1.0
C      1  0.4240020000000  0.4789450000000  0.5281570000000 1.0
C      1  0.5136150000000  0.4789450000000  0.4201060000000 1.0
C      1  0.5623830000000  0.4789450000000  0.5517380000000 1.0
END
