TITL C-2323489-8765-533 16.5039891209301 125000 -355.123488607131 0 0 60 (C1) n - 1
REM
REM in /home/bkarasulu/CARBON/AIRSS/Generating-Clusters/LCBOP/Higher-Symm/Only-C60/SD-CG/FIRE-HFTN
REM
REM
REM
REM
REM
REM ./C.cell (50c204cfd26239f34c78669fe23a5462)
REM
REM compiler GCC version 9.2.1 20190827 (Red Hat 9.2.1-1)
REM options -cpp -mtune=generic -march=x86-64 -g -O0 -fpre-include=/usr/include/finclude/math-vector-fortran.h
REM seed 1276081944 1445430158 -1025702693 1111827770 435619219 159536083 -1793842005 948423960 -1354191706 2137940223 -1559883100 -1609505913 771520092 554893314 2008520926 -516800353 -821167928 -1386910646 505199095 -1931207826 111246946 -1547225191 -99119675 -350653309 710955713 -1991813485 1588101039 1392389364 -69997961 -638149888 677442679 -757826289 -1600279798
REM
CELL 1.54180   50.00000   50.00000   50.00000   90.00000   90.00000   90.00000
LATT -1
SFAC C  
C      1  0.4763990000000  0.4306650000000  0.5197520000000 1.0
C      1  0.5689740000000  0.4766300000000  0.5203720000000 1.0
C      1  0.5236210000000  0.5692650000000  0.5198620000000 1.0
C      1  0.4310370000000  0.5233870000000  0.5203820000000 1.0
C      1  0.5660790000000  0.4705960000000  0.5490410000000 1.0
C      1  0.5299330000000  0.5668690000000  0.5485210000000 1.0
C      1  0.4338440000000  0.5294790000000  0.5490460000000 1.0
C      1  0.4701210000000  0.4329640000000  0.5484270000000 1.0
C      1  0.4643440000000  0.4997100000000  0.4928680000000 1.0
C      1  0.5002790000000  0.4642250000000  0.4926710000000 1.0
C      1  0.5357080000000  0.5002760000000  0.4927710000000 1.0
C      1  0.4997430000000  0.5357340000000  0.4927600000000 1.0
C      1  0.4997030000000  0.5600640000000  0.5082180000000 1.0
C      1  0.4400710000000  0.4995710000000  0.5084090000000 1.0
C      1  0.5003170000000  0.4398850000000  0.5081220000000 1.0
C      1  0.5599790000000  0.5004260000000  0.5083250000000 1.0
C      1  0.4500760000000  0.5668990000000  0.5234580000000 1.0
C      1  0.4329190000000  0.4497660000000  0.5228960000000 1.0
C      1  0.5499230000000  0.4331230000000  0.5234810000000 1.0
C      1  0.5671260000000  0.5502030000000  0.5228850000000 1.0
C      1  0.4609710000000  0.5381400000000  0.4333400000000 1.0
C      1  0.4618100000000  0.4620860000000  0.4329680000000 1.0
C      1  0.5390720000000  0.4617930000000  0.4334180000000 1.0
C      1  0.5379100000000  0.5383170000000  0.4329950000000 1.0
C      1  0.4822150000000  0.5184890000000  0.3905960000000 1.0
C      1  0.4864480000000  0.4826510000000  0.3927800000000 1.0
C      1  0.5151380000000  0.4847120000000  0.3940230000000 1.0
C      1  0.5164260000000  0.5141920000000  0.3928840000000 1.0
C      1  0.4268290000000  0.4754880000000  0.5142200000000 1.0
C      1  0.5244090000000  0.4268390000000  0.5143410000000 1.0
C      1  0.5732250000000  0.5245120000000  0.5141200000000 1.0
C      1  0.4756210000000  0.5731510000000  0.5143830000000 1.0
C      1  0.5241720000000  0.5245050000000  0.4827400000000 1.0
C      1  0.4754600000000  0.5241990000000  0.4828820000000 1.0
C      1  0.4758360000000  0.4755030000000  0.4827400000000 1.0
C      1  0.5246090000000  0.4757400000000  0.4828470000000 1.0
C      1  0.5017240000000  0.4186950000000  0.5893950000000 1.0
C      1  0.5793560000000  0.5025660000000  0.5900580000000 1.0
C      1  0.4983230000000  0.5809080000000  0.5895620000000 1.0
C      1  0.4205030000000  0.4974920000000  0.5900280000000 1.0
C      1  0.5139450000000  0.5741160000000  0.5698410000000 1.0
C      1  0.4269490000000  0.5133030000000  0.5703410000000 1.0
C      1  0.4861150000000  0.4256060000000  0.5697050000000 1.0
C      1  0.5729250000000  0.4868040000000  0.5703270000000 1.0
C      1  0.4668310000000  0.5325790000000  0.4080020000000 1.0
C      1  0.4688700000000  0.4681980000000  0.4080350000000 1.0
C      1  0.5321950000000  0.4685270000000  0.4085840000000 1.0
C      1  0.5317400000000  0.5312910000000  0.4080640000000 1.0
C      1  0.5565740000000  0.5554170000000  0.5495600000000 1.0
C      1  0.4452650000000  0.5561320000000  0.5501240000000 1.0
C      1  0.4434970000000  0.4444510000000  0.5495390000000 1.0
C      1  0.5546480000000  0.4439470000000  0.5501390000000 1.0
C      1  0.5359710000000  0.4646180000000  0.4596620000000 1.0
C      1  0.5350450000000  0.5355150000000  0.4592670000000 1.0
C      1  0.4642930000000  0.5351090000000  0.4595170000000 1.0
C      1  0.4648250000000  0.4646800000000  0.4592450000000 1.0
C      1  0.4338610000000  0.5490370000000  0.5072040000000 1.0
C      1  0.4508340000000  0.4337770000000  0.5064750000000 1.0
C      1  0.5661910000000  0.4509500000000  0.5072420000000 1.0
C      1  0.5491730000000  0.5662280000000  0.5065420000000 1.0
END
