TITL C-2323488-8613-321 0.0494847729383037 125000 -360.085788833929 0 0 60 (C1) n - 1
REM
REM in /home/bkarasulu/CARBON/AIRSS/Generating-Clusters/LCBOP/Higher-Symm/Only-C60/SD-CG/FIRE-HFTN
REM
REM
REM
REM
REM
REM ./C.cell (50c204cfd26239f34c78669fe23a5462)
REM
REM compiler GCC version 9.2.1 20190827 (Red Hat 9.2.1-1)
REM options -cpp -mtune=generic -march=x86-64 -g -O0 -fpre-include=/usr/include/finclude/math-vector-fortran.h
REM seed 1915159254 -1970227477 1018759393 716077105 -1005021434 2059836022 -192528407 -1575582886 -1488947627 -629121043 -981494006 -113417014 -1448279000 1722137618 -442295646 -520932188 -1551960850 1242861064 -137286185 -129213966 -1864921845 1770731817 1681525038 -1605637930 1988208370 1985528110 213218416 1130378674 353007278 -1375219324 1083051459 1269783637 2136360089
REM
CELL 1.54180   50.00000   50.00000   50.00000   90.00000   90.00000   90.00000
LATT -1
SFAC C  
C      1  0.4337470000000  0.5617170000000  0.5081670000000 1.0
C      1  0.5482490000000  0.5991320000000  0.5225310000000 1.0
C      1  0.5266770000000  0.5472320000000  0.4555190000000 1.0
C      1  0.4099090000000  0.4538050000000  0.5622150000000 1.0
C      1  0.5821010000000  0.4443680000000  0.5532710000000 1.0
C      1  0.4990450000000  0.4901050000000  0.4011970000000 1.0
C      1  0.4291800000000  0.5393670000000  0.4936630000000 1.0
C      1  0.5306850000000  0.6192500000000  0.5215570000000 1.0
C      1  0.5499190000000  0.5339370000000  0.4564120000000 1.0
C      1  0.4446080000000  0.3966910000000  0.5396940000000 1.0
C      1  0.6084180000000  0.4525560000000  0.4885880000000 1.0
C      1  0.4528490000000  0.4441670000000  0.4282580000000 1.0
C      1  0.5457400000000  0.4585890000000  0.5167870000000 1.0
C      1  0.4965320000000  0.4893440000000  0.4545780000000 1.0
C      1  0.4453680000000  0.4634380000000  0.5235580000000 1.0
C      1  0.4420380000000  0.5226020000000  0.4746730000000 1.0
C      1  0.5052350000000  0.6272120000000  0.5206450000000 1.0
C      1  0.5594370000000  0.5177570000000  0.4775390000000 1.0
C      1  0.4997780000000  0.5329910000000  0.5591760000000 1.0
C      1  0.5177220000000  0.5111940000000  0.5334210000000 1.0
C      1  0.4812620000000  0.5127360000000  0.5329200000000 1.0
C      1  0.5020940000000  0.5448980000000  0.4688220000000 1.0
C      1  0.4552220000000  0.5757100000000  0.5203320000000 1.0
C      1  0.5497600000000  0.5712170000000  0.5229330000000 1.0
C      1  0.5836180000000  0.4617740000000  0.4855350000000 1.0
C      1  0.4589400000000  0.4590190000000  0.4495250000000 1.0
C      1  0.4580340000000  0.4162120000000  0.5275200000000 1.0
C      1  0.4267290000000  0.4643920000000  0.5444790000000 1.0
C      1  0.5606010000000  0.4524160000000  0.5397690000000 1.0
C      1  0.5008290000000  0.4952230000000  0.4272810000000 1.0
C      1  0.4786320000000  0.5481760000000  0.4538640000000 1.0
C      1  0.4596980000000  0.6033070000000  0.5200170000000 1.0
C      1  0.5703750000000  0.5549530000000  0.5121660000000 1.0
C      1  0.5731480000000  0.5322410000000  0.4977320000000 1.0
C      1  0.4544560000000  0.5366980000000  0.4536310000000 1.0
C      1  0.4791530000000  0.6216220000000  0.5200770000000 1.0
C      1  0.4706070000000  0.4536740000000  0.3827600000000 1.0
C      1  0.4068960000000  0.4049400000000  0.5710970000000 1.0
C      1  0.6265110000000  0.4368170000000  0.5321600000000 1.0
C      1  0.5460070000000  0.4924360000000  0.4808080000000 1.0
C      1  0.4517480000000  0.4960440000000  0.4797720000000 1.0
C      1  0.4921900000000  0.4492250000000  0.5183300000000 1.0
C      1  0.5260280000000  0.5572400000000  0.5288450000000 1.0
C      1  0.5009830000000  0.5344700000000  0.4952530000000 1.0
C      1  0.4768670000000  0.5593250000000  0.5278610000000 1.0
C      1  0.5229430000000  0.5315350000000  0.5146490000000 1.0
C      1  0.4782240000000  0.5333160000000  0.5138760000000 1.0
C      1  0.5010990000000  0.5577120000000  0.5449780000000 1.0
C      1  0.5585620000000  0.4708090000000  0.4942920000000 1.0
C      1  0.4696430000000  0.4819620000000  0.4620780000000 1.0
C      1  0.4653010000000  0.4429150000000  0.5228750000000 1.0
C      1  0.4249330000000  0.3910700000000  0.5569060000000 1.0
C      1  0.6262260000000  0.4429100000000  0.5060450000000 1.0
C      1  0.4564200000000  0.4413650000000  0.4019030000000 1.0
C      1  0.5184390000000  0.4523600000000  0.5160620000000 1.0
C      1  0.5195130000000  0.4887400000000  0.4710170000000 1.0
C      1  0.4440050000000  0.4822100000000  0.5028840000000 1.0
C      1  0.6079450000000  0.4377500000000  0.5514880000000 1.0
C      1  0.4880080000000  0.4740800000000  0.3828500000000 1.0
C      1  0.4011190000000  0.4310460000000  0.5731590000000 1.0
END
