TITL C-2323485-8600-541 0.269974130958147 125000 -363.443054673907 0 0 60 (C1) n - 1
REM
REM in /home/bkarasulu/CARBON/AIRSS/Generating-Clusters/LCBOP/Higher-Symm/Only-C60/SD-CG/FIRE-HFTN
REM
REM
REM
REM
REM
REM ./C.cell (50c204cfd26239f34c78669fe23a5462)
REM
REM compiler GCC version 9.2.1 20190827 (Red Hat 9.2.1-1)
REM options -cpp -mtune=generic -march=x86-64 -g -O0 -fpre-include=/usr/include/finclude/math-vector-fortran.h
REM seed -1001011260 1770927365 473841849 -964923275 942280183 1301120825 644722102 1686013866 -203703755 1809993140 2106866634 -1201664660 1911883723 -1095899166 -536974238 1503914366 879441090 -225917829 2097230993 594447238 865073736 -929346891 436823613 -1281998117 1281267847 -1937206843 -1471485703 702407613 1177424375 -2109631440 -13873219 -796815873 -1747873560
REM
CELL 1.54180   50.00000   50.00000   50.00000   90.00000   90.00000   90.00000
LATT -1
SFAC C  
C      1  0.4725420000000  0.4676390000000  0.4642820000000 1.0
C      1  0.5271580000000  0.4660820000000  0.5292550000000 1.0
C      1  0.4731920000000  0.4657330000000  0.5298620000000 1.0
C      1  0.5265630000000  0.4671100000000  0.4636510000000 1.0
C      1  0.4710470000000  0.4202420000000  0.5111230000000 1.0
C      1  0.5280400000000  0.4219990000000  0.4825360000000 1.0
C      1  0.4708970000000  0.4223550000000  0.4830730000000 1.0
C      1  0.5291850000000  0.4204150000000  0.5105960000000 1.0
C      1  0.5561170000000  0.5835000000000  0.4687170000000 1.0
C      1  0.4439050000000  0.5823220000000  0.5296690000000 1.0
C      1  0.5442980000000  0.5881620000000  0.5283870000000 1.0
C      1  0.4560130000000  0.5896210000000  0.4703160000000 1.0
C      1  0.4847540000000  0.4943860000000  0.4274790000000 1.0
C      1  0.5150710000000  0.4914060000000  0.5671170000000 1.0
C      1  0.4858110000000  0.4911000000000  0.5675740000000 1.0
C      1  0.5140090000000  0.4939860000000  0.4270050000000 1.0
C      1  0.5160840000000  0.5162550000000  0.5256480000000 1.0
C      1  0.4838370000000  0.5175120000000  0.4699690000000 1.0
C      1  0.5170680000000  0.5170210000000  0.4692850000000 1.0
C      1  0.4828440000000  0.5158620000000  0.5263150000000 1.0
C      1  0.5427750000000  0.4007580000000  0.5246290000000 1.0
C      1  0.4468070000000  0.3816890000000  0.5396960000000 1.0
C      1  0.5553210000000  0.3828030000000  0.5387480000000 1.0
C      1  0.4584060000000  0.4001140000000  0.5253750000000 1.0
C      1  0.5333920000000  0.5638360000000  0.5265850000000 1.0
C      1  0.4668210000000  0.5651960000000  0.4710670000000 1.0
C      1  0.5439580000000  0.5597300000000  0.4698010000000 1.0
C      1  0.4559960000000  0.5585840000000  0.5275790000000 1.0
C      1  0.4383630000000  0.6031150000000  0.5135800000000 1.0
C      1  0.5618050000000  0.6035330000000  0.4856960000000 1.0
C      1  0.4437890000000  0.6063680000000  0.4874020000000 1.0
C      1  0.5565080000000  0.6056210000000  0.5120180000000 1.0
C      1  0.5238640000000  0.5171410000000  0.5560500000000 1.0
C      1  0.4760580000000  0.5196640000000  0.4396290000000 1.0
C      1  0.5237510000000  0.5190220000000  0.4387680000000 1.0
C      1  0.4761680000000  0.5166470000000  0.5568870000000 1.0
C      1  0.5137590000000  0.5399410000000  0.5703580000000 1.0
C      1  0.4862490000000  0.5430050000000  0.4262790000000 1.0
C      1  0.5137280000000  0.5426750000000  0.4258610000000 1.0
C      1  0.4862810000000  0.5397020000000  0.5707610000000 1.0
C      1  0.5476180000000  0.4552390000000  0.5728010000000 1.0
C      1  0.4522740000000  0.4584270000000  0.4202900000000 1.0
C      1  0.5453980000000  0.4572060000000  0.4191630000000 1.0
C      1  0.4540710000000  0.4543250000000  0.5738820000000 1.0
C      1  0.5137290000000  0.4424940000000  0.4696860000000 1.0
C      1  0.4859170000000  0.4411990000000  0.5231390000000 1.0
C      1  0.5145340000000  0.4413690000000  0.5228780000000 1.0
C      1  0.4850970000000  0.4427620000000  0.4699640000000 1.0
C      1  0.5295350000000  0.5400760000000  0.4837270000000 1.0
C      1  0.4704390000000  0.5395390000000  0.5128460000000 1.0
C      1  0.5266590000000  0.5408150000000  0.5119580000000 1.0
C      1  0.4733780000000  0.5415160000000  0.4846820000000 1.0
C      1  0.4690230000000  0.4726800000000  0.4362980000000 1.0
C      1  0.5307850000000  0.4700710000000  0.5574170000000 1.0
C      1  0.4702400000000  0.4695300000000  0.5581490000000 1.0
C      1  0.5294320000000  0.4719410000000  0.4355360000000 1.0
C      1  0.4742100000000  0.4903480000000  0.4828020000000 1.0
C      1  0.5255740000000  0.4895790000000  0.5116870000000 1.0
C      1  0.4741280000000  0.4892160000000  0.5123140000000 1.0
C      1  0.5257270000000  0.4898150000000  0.4821540000000 1.0
END
