TITL C-2323480-5884-91 38.033278789024 125000 -358.369488284931 0 0 60 (C1) n - 1
REM
REM in /home/bkarasulu/CARBON/AIRSS/Generating-Clusters/LCBOP/Higher-Symm/Only-C60/SD-CG/FIRE-HFTN
REM
REM
REM
REM
REM
REM ./C.cell (50c204cfd26239f34c78669fe23a5462)
REM
REM compiler GCC version 9.2.1 20190827 (Red Hat 9.2.1-1)
REM options -cpp -mtune=generic -march=x86-64 -g -O0 -fpre-include=/usr/include/finclude/math-vector-fortran.h
REM seed 1976864228 1895118057 -1686266861 988559371 1868148001 1192617566 -1140872328 -1897521381 1598455397 667351049 -1656304474 -1317244314 1376811592 567131169 1636552914 -1534080771 -1269832640 1042001471 -1360364224 466003242 1051491880 124234108 -1715970660 -2072108403 1925170388 -2141812712 -139683345 2112330814 -900393185 -1694609758 -83212395 2047553432 1143049514
REM
CELL 1.54180   50.00000   50.00000   50.00000   90.00000   90.00000   90.00000
LATT -1
SFAC C  
C      1  0.5639180000000  0.5635200000000  0.4822400000000 1.0
C      1  0.4143440000000  0.5221070000000  0.4829220000000 1.0
C      1  0.5226220000000  0.4122780000000  0.4782550000000 1.0
C      1  0.5042820000000  0.5376390000000  0.4498290000000 1.0
C      1  0.4663030000000  0.4851820000000  0.4480190000000 1.0
C      1  0.5321660000000  0.4782670000000  0.4483160000000 1.0
C      1  0.5058080000000  0.4633040000000  0.5632060000000 1.0
C      1  0.5356070000000  0.5246480000000  0.5490430000000 1.0
C      1  0.4614230000000  0.5205130000000  0.5520740000000 1.0
C      1  0.4367350000000  0.5387610000000  0.4905650000000 1.0
C      1  0.4970880000000  0.4235270000000  0.4855090000000 1.0
C      1  0.5673120000000  0.5357130000000  0.4893540000000 1.0
C      1  0.5116780000000  0.5407940000000  0.5511210000000 1.0
C      1  0.4580170000000  0.4921410000000  0.5570700000000 1.0
C      1  0.5319140000000  0.4719400000000  0.5564010000000 1.0
C      1  0.5127120000000  0.5687100000000  0.5458040000000 1.0
C      1  0.4352480000000  0.4781210000000  0.5456480000000 1.0
C      1  0.5539130000000  0.4555240000000  0.5486050000000 1.0
C      1  0.5159460000000  0.4962820000000  0.4939810000000 1.0
C      1  0.4896160000000  0.5035820000000  0.4984680000000 1.0
C      1  0.4738080000000  0.4823320000000  0.5068780000000 1.0
C      1  0.4581710000000  0.5321660000000  0.4701390000000 1.0
C      1  0.4935520000000  0.4474380000000  0.4673430000000 1.0
C      1  0.5503530000000  0.5205020000000  0.4694330000000 1.0
C      1  0.5209970000000  0.4534890000000  0.4566160000000 1.0
C      1  0.5311610000000  0.5408080000000  0.4583020000000 1.0
C      1  0.4498430000000  0.5064700000000  0.4571110000000 1.0
C      1  0.5327720000000  0.4969510000000  0.5424170000000 1.0
C      1  0.4871120000000  0.5290530000000  0.5419210000000 1.0
C      1  0.4818440000000  0.4759120000000  0.5554290000000 1.0
C      1  0.4682380000000  0.4606990000000  0.4630940000000 1.0
C      1  0.5520350000000  0.4919920000000  0.4643260000000 1.0
C      1  0.4822500000000  0.5474220000000  0.4655920000000 1.0
C      1  0.5196860000000  0.4904960000000  0.4271100000000 1.0
C      1  0.5001820000000  0.5219040000000  0.4277550000000 1.0
C      1  0.4834390000000  0.4905800000000  0.4272340000000 1.0
C      1  0.4859820000000  0.5708880000000  0.4812070000000 1.0
C      1  0.4456850000000  0.4526150000000  0.4788830000000 1.0
C      1  0.5694200000000  0.4766370000000  0.4811440000000 1.0
C      1  0.5430560000000  0.5664610000000  0.4644880000000 1.0
C      1  0.4217800000000  0.5038210000000  0.4636720000000 1.0
C      1  0.5364760000000  0.4295790000000  0.4618540000000 1.0
C      1  0.4297910000000  0.4599390000000  0.5259700000000 1.0
C      1  0.5713550000000  0.4579690000000  0.5278600000000 1.0
C      1  0.5006910000000  0.5836430000000  0.5267420000000 1.0
C      1  0.4540040000000  0.5758470000000  0.5159910000000 1.0
C      1  0.4564210000000  0.4204850000000  0.5120370000000 1.0
C      1  0.5884750000000  0.5019980000000  0.5165840000000 1.0
C      1  0.5325070000000  0.4928230000000  0.5144810000000 1.0
C      1  0.4870990000000  0.5267380000000  0.5136150000000 1.0
C      1  0.4806170000000  0.4658710000000  0.5279990000000 1.0
C      1  0.4400860000000  0.5511570000000  0.5159500000000 1.0
C      1  0.4850380000000  0.4226810000000  0.5111800000000 1.0
C      1  0.5747600000000  0.5267650000000  0.5152400000000 1.0
C      1  0.4403050000000  0.5358240000000  0.5401290000000 1.0
C      1  0.4947390000000  0.4420780000000  0.5297510000000 1.0
C      1  0.5597880000000  0.5353230000000  0.5380460000000 1.0
C      1  0.5795530000000  0.4764280000000  0.5077910000000 1.0
C      1  0.4805130000000  0.5808110000000  0.5071540000000 1.0
C      1  0.4397660000000  0.4428530000000  0.5051050000000 1.0
END
