TITL C-2323485-8600-294 -0.000112095018337688 125000 -351.876403739808 0 0 60 (C1) n - 1
REM
REM in /home/bkarasulu/CARBON/AIRSS/Generating-Clusters/LCBOP/Higher-Symm/Only-C60/SD-CG/FIRE-HFTN
REM
REM
REM
REM
REM
REM ./C.cell (50c204cfd26239f34c78669fe23a5462)
REM
REM compiler GCC version 9.2.1 20190827 (Red Hat 9.2.1-1)
REM options -cpp -mtune=generic -march=x86-64 -g -O0 -fpre-include=/usr/include/finclude/math-vector-fortran.h
REM seed -980450101 -161989155 -1140733375 -2118448837 -370602137 399334001 606126577 -1683836794 -1407175340 -1491565005 -1265173752 1911296513 467151683 1438277663 1877116191 1135201785 1922058764 1277994527 714898463 756324825 583958886 -1966342064 1994400363 1185267493 -688190702 1824394383 249384579 -1465801616 -852994771 675533967 -701657432 819904618 -438070999
REM
CELL 1.54180   50.00000   50.00000   50.00000   90.00000   90.00000   90.00000
LATT -1
SFAC C  
C      1  0.5172830000000  0.4752210000000  0.4976500000000 1.0
C      1  0.5155730000000  0.5112730000000  0.4732830000000 1.0
C      1  0.4757880000000  0.4852830000000  0.4832390000000 1.0
C      1  0.4898320000000  0.4719020000000  0.5031600000000 1.0
C      1  0.4966370000000  0.5250390000000  0.5125110000000 1.0
C      1  0.4939520000000  0.5248540000000  0.4845350000000 1.0
C      1  0.4783180000000  0.5079970000000  0.5244060000000 1.0
C      1  0.4801550000000  0.4798390000000  0.5282760000000 1.0
C      1  0.5209310000000  0.4830030000000  0.4708400000000 1.0
C      1  0.5290900000000  0.4938790000000  0.5147430000000 1.0
C      1  0.4702240000000  0.5130880000000  0.4763530000000 1.0
C      1  0.5224580000000  0.5190060000000  0.5210280000000 1.0
C      1  0.5584040000000  0.5312670000000  0.4808630000000 1.0
C      1  0.4835370000000  0.5603060000000  0.5341760000000 1.0
C      1  0.5355010000000  0.4823050000000  0.5588580000000 1.0
C      1  0.4403960000000  0.5331770000000  0.5212650000000 1.0
C      1  0.5619740000000  0.4654540000000  0.5157390000000 1.0
C      1  0.4366840000000  0.4667660000000  0.4847610000000 1.0
C      1  0.5163020000000  0.5592290000000  0.4665340000000 1.0
C      1  0.4808450000000  0.4403100000000  0.4688150000000 1.0
C      1  0.5187660000000  0.4400410000000  0.5312490000000 1.0
C      1  0.4649040000000  0.4816690000000  0.4397110000000 1.0
C      1  0.5330830000000  0.5195160000000  0.4348530000000 1.0
C      1  0.4678840000000  0.5197040000000  0.5644990000000 1.0
C      1  0.4852560000000  0.4598950000000  0.4474540000000 1.0
C      1  0.4400690000000  0.4852940000000  0.4587590000000 1.0
C      1  0.4560270000000  0.4436390000000  0.4872230000000 1.0
C      1  0.5156330000000  0.4600770000000  0.5522520000000 1.0
C      1  0.4872020000000  0.5431730000000  0.5579290000000 1.0
C      1  0.5133850000000  0.5430800000000  0.4416290000000 1.0
C      1  0.5606460000000  0.4831020000000  0.5420810000000 1.0
C      1  0.4427550000000  0.5163170000000  0.5473160000000 1.0
C      1  0.5557170000000  0.5149210000000  0.4547340000000 1.0
C      1  0.5431010000000  0.4427170000000  0.5129460000000 1.0
C      1  0.4585140000000  0.5557980000000  0.5170300000000 1.0
C      1  0.5406570000000  0.5541250000000  0.4844540000000 1.0
C      1  0.5702000000000  0.5134420000000  0.5025750000000 1.0
C      1  0.5052530000000  0.5703730000000  0.5149140000000 1.0
C      1  0.5173930000000  0.5051730000000  0.5705900000000 1.0
C      1  0.4303460000000  0.5151140000000  0.4988800000000 1.0
C      1  0.5702370000000  0.4842100000000  0.4923610000000 1.0
C      1  0.4285110000000  0.4859950000000  0.5084610000000 1.0
C      1  0.4945390000000  0.5702340000000  0.4858020000000 1.0
C      1  0.5037630000000  0.4287460000000  0.4852020000000 1.0
C      1  0.4953680000000  0.4286690000000  0.5150370000000 1.0
C      1  0.4835430000000  0.5047270000000  0.4276410000000 1.0
C      1  0.5131410000000  0.4958620000000  0.4277520000000 1.0
C      1  0.4879280000000  0.4961980000000  0.5709750000000 1.0
C      1  0.5711650000000  0.5093990000000  0.5317750000000 1.0
C      1  0.5337830000000  0.5658820000000  0.5104810000000 1.0
C      1  0.5139080000000  0.5341300000000  0.5673470000000 1.0
C      1  0.4419540000000  0.5126860000000  0.4721680000000 1.0
C      1  0.5671770000000  0.4885660000000  0.4632990000000 1.0
C      1  0.4314390000000  0.4898980000000  0.5377890000000 1.0
C      1  0.4657960000000  0.5667110000000  0.4905400000000 1.0
C      1  0.5330120000000  0.4312620000000  0.4874320000000 1.0
C      1  0.4660570000000  0.4316960000000  0.5127350000000 1.0
C      1  0.4869030000000  0.5337750000000  0.4313340000000 1.0
C      1  0.5120090000000  0.4725110000000  0.4459670000000 1.0
C      1  0.4890910000000  0.4724800000000  0.5537900000000 1.0
END
