TITL C-2323491-8878-351 2287542.26672621 125000 -192.610896692483 0 0 60 (Th) n - 1
REM
REM in /home/bkarasulu/CARBON/AIRSS/Generating-Clusters/LCBOP/Higher-Symm/Only-C60/SD-CG/FIRE-HFTN
REM
REM
REM
REM
REM
REM ./C.cell (50c204cfd26239f34c78669fe23a5462)
REM
REM compiler GCC version 9.2.1 20190827 (Red Hat 9.2.1-1)
REM options -cpp -mtune=generic -march=x86-64 -g -O0 -fpre-include=/usr/include/finclude/math-vector-fortran.h
REM seed -398452187 -709292714 -415089184 848841456 -1630194152 -1804798081 -1067088135 1193156804 -411320328 1953916731 1878882832 -1807793090 -615496202 1601402717 -977947659 -682039537 1985240933 46802744 -951797223 -353042238 -1894498286 1033808366 1327837527 -1987167360 440603122 -42521614 82048242 -369785932 797202035 820892145 -1523852711 2080593897 -964098459
REM
CELL 1.54180   50.00000   50.00000   50.00000   90.00000   90.00000   90.00000
LATT -1
SFAC C  
C      1  0.5275530000000  0.4443270000000  0.5519470000000 1.0
C      1  0.4443270000000  0.5519470000000  0.5275530000000 1.0
C      1  0.5519470000000  0.5275530000000  0.4443270000000 1.0
C      1  0.4725010000000  0.5555980000000  0.5518560000000 1.0
C      1  0.5275500000000  0.5556610000000  0.4480650000000 1.0
C      1  0.4724850000000  0.4443730000000  0.4480980000000 1.0
C      1  0.5556610000000  0.4480650000000  0.5275510000000 1.0
C      1  0.4443730000000  0.4480980000000  0.4724850000000 1.0
C      1  0.5555980000000  0.5518560000000  0.4725010000000 1.0
C      1  0.4480980000000  0.4724860000000  0.4443730000000 1.0
C      1  0.5518560000000  0.4725010000000  0.5555980000000 1.0
C      1  0.4480650000000  0.5275510000000  0.5556610000000 1.0
C      1  0.5274990000000  0.4444020000000  0.4481440000000 1.0
C      1  0.4443380000000  0.5519350000000  0.4724490000000 1.0
C      1  0.5519020000000  0.5275140000000  0.5556270000000 1.0
C      1  0.4724480000000  0.5556730000000  0.4480540000000 1.0
C      1  0.5275150000000  0.5556270000000  0.5519020000000 1.0
C      1  0.4724490000000  0.4443390000000  0.5519350000000 1.0
C      1  0.5556730000000  0.4480540000000  0.4724480000000 1.0
C      1  0.4444020000000  0.4481440000000  0.5274990000000 1.0
C      1  0.5556270000000  0.5519020000000  0.5275150000000 1.0
C      1  0.4480540000000  0.4724480000000  0.5556730000000 1.0
C      1  0.5519360000000  0.4724490000000  0.4443380000000 1.0
C      1  0.4481440000000  0.5274990000000  0.4444020000000 1.0
C      1  0.4784730000000  0.5133860000000  0.4544220000000 1.0
C      1  0.5133860000000  0.4544210000000  0.4784730000000 1.0
C      1  0.4544220000000  0.4784730000000  0.5133860000000 1.0
C      1  0.5215940000000  0.4867300000000  0.4543330000000 1.0
C      1  0.4783940000000  0.4865890000000  0.5453040000000 1.0
C      1  0.5215560000000  0.5133420000000  0.5454670000000 1.0
C      1  0.4865890000000  0.5453040000000  0.4783940000000 1.0
C      1  0.5133420000000  0.5454670000000  0.5215560000000 1.0
C      1  0.4867300000000  0.4543320000000  0.5215940000000 1.0
C      1  0.5454670000000  0.5215560000000  0.5133420000000 1.0
C      1  0.4543330000000  0.5215940000000  0.4867300000000 1.0
C      1  0.5453040000000  0.4783940000000  0.4865890000000 1.0
C      1  0.4784060000000  0.5132700000000  0.5456690000000 1.0
C      1  0.5134100000000  0.4546960000000  0.5216060000000 1.0
C      1  0.4545340000000  0.4784440000000  0.4866580000000 1.0
C      1  0.5215270000000  0.4866130000000  0.5455750000000 1.0
C      1  0.4784450000000  0.4866570000000  0.4545340000000 1.0
C      1  0.5216060000000  0.5134100000000  0.4546960000000 1.0
C      1  0.4866130000000  0.5455750000000  0.5215270000000 1.0
C      1  0.5132700000000  0.5456690000000  0.4784070000000 1.0
C      1  0.4866570000000  0.4545350000000  0.4784440000000 1.0
C      1  0.5455750000000  0.5215270000000  0.4866130000000 1.0
C      1  0.4546960000000  0.5216060000000  0.5134100000000 1.0
C      1  0.5456700000000  0.4784070000000  0.5132700000000 1.0
C      1  0.5000560000000  0.5366410000000  0.4374920000000 1.0
C      1  0.4999450000000  0.4633580000000  0.5625090000000 1.0
C      1  0.5366410000000  0.4374920000000  0.5000560000000 1.0
C      1  0.4374920000000  0.5000560000000  0.5366410000000 1.0
C      1  0.5000330000000  0.4634490000000  0.4375890000000 1.0
C      1  0.4999680000000  0.5365520000000  0.5624110000000 1.0
C      1  0.4633580000000  0.5625090000000  0.4999450000000 1.0
C      1  0.5365520000000  0.5624110000000  0.4999680000000 1.0
C      1  0.4634480000000  0.4375890000000  0.5000330000000 1.0
C      1  0.5624110000000  0.4999680000000  0.5365510000000 1.0
C      1  0.4375900000000  0.5000330000000  0.4634490000000 1.0
C      1  0.5625090000000  0.4999450000000  0.4633570000000 1.0
END
