TITL C-2323480-5884-544 16.4042033186168 125000 -355.49372227083 0 0 60 (C1) n - 1
REM
REM in /home/bkarasulu/CARBON/AIRSS/Generating-Clusters/LCBOP/Higher-Symm/Only-C60/SD-CG/FIRE-HFTN
REM
REM
REM
REM
REM
REM ./C.cell (50c204cfd26239f34c78669fe23a5462)
REM
REM compiler GCC version 9.2.1 20190827 (Red Hat 9.2.1-1)
REM options -cpp -mtune=generic -march=x86-64 -g -O0 -fpre-include=/usr/include/finclude/math-vector-fortran.h
REM seed 2097562835 2100413088 -789575014 -1462210386 -1446354608 -1345833450 730571598 -2077163395 886447232 271797852 916163471 -1457366682 -1925145753 1747043698 74136619 1974971190 -538790433 919990485 548261496 1352816831 -813630646 1666391012 -714781050 -60979154 602443326 1659364017 -627794738 22416995 826041365 1997442643 642787019 590777858 -1694679536
REM
CELL 1.54180   50.00000   50.00000   50.00000   90.00000   90.00000   90.00000
LATT -1
SFAC C  
C      1  0.4971270000000  0.4040000000000  0.4791350000000 1.0
C      1  0.3917570000000  0.4285540000000  0.4606600000000 1.0
C      1  0.5009130000000  0.4683130000000  0.4335310000000 1.0
C      1  0.5473980000000  0.5922160000000  0.4611930000000 1.0
C      1  0.4911190000000  0.3556350000000  0.5653450000000 1.0
C      1  0.5724020000000  0.4534460000000  0.5325780000000 1.0
C      1  0.4753030000000  0.6399120000000  0.6020150000000 1.0
C      1  0.4857520000000  0.5255860000000  0.5560130000000 1.0
C      1  0.5193570000000  0.5470430000000  0.4561900000000 1.0
C      1  0.5018160000000  0.5750000000000  0.3564650000000 1.0
C      1  0.5274130000000  0.4508890000000  0.4724740000000 1.0
C      1  0.4999700000000  0.4857010000000  0.4117290000000 1.0
C      1  0.5359130000000  0.5694240000000  0.4539580000000 1.0
C      1  0.4630070000000  0.3797980000000  0.4571550000000 1.0
C      1  0.5298140000000  0.5212120000000  0.4546170000000 1.0
C      1  0.5201210000000  0.4715690000000  0.4537020000000 1.0
C      1  0.4817740000000  0.5503020000000  0.5435670000000 1.0
C      1  0.4441300000000  0.3768330000000  0.4783260000000 1.0
C      1  0.5255050000000  0.4379440000000  0.5323550000000 1.0
C      1  0.5011290000000  0.5516430000000  0.3680250000000 1.0
C      1  0.4572830000000  0.6187180000000  0.6061230000000 1.0
C      1  0.5901250000000  0.4955360000000  0.5165100000000 1.0
C      1  0.4558950000000  0.3726020000000  0.5035380000000 1.0
C      1  0.5139000000000  0.4141760000000  0.5233660000000 1.0
C      1  0.5480820000000  0.4489750000000  0.5190410000000 1.0
C      1  0.4206640000000  0.3920420000000  0.4747520000000 1.0
C      1  0.5125870000000  0.4537040000000  0.5515340000000 1.0
C      1  0.4998630000000  0.5057520000000  0.3944180000000 1.0
C      1  0.4745220000000  0.6626200000000  0.6170990000000 1.0
C      1  0.4975530000000  0.3986270000000  0.5068500000000 1.0
C      1  0.4792940000000  0.4031290000000  0.4573930000000 1.0
C      1  0.4393090000000  0.4290030000000  0.4505200000000 1.0
C      1  0.5444390000000  0.4605360000000  0.4935390000000 1.0
C      1  0.4794170000000  0.3792120000000  0.5177550000000 1.0
C      1  0.5499850000000  0.6282880000000  0.4984130000000 1.0
C      1  0.4808630000000  0.5518300000000  0.5156480000000 1.0
C      1  0.4850700000000  0.3667020000000  0.5420460000000 1.0
C      1  0.4511910000000  0.5943290000000  0.5970830000000 1.0
C      1  0.4792550000000  0.5737950000000  0.5591490000000 1.0
C      1  0.5401650000000  0.6352230000000  0.5220780000000 1.0
C      1  0.4921780000000  0.5006150000000  0.5621820000000 1.0
C      1  0.4732510000000  0.5526890000000  0.4424710000000 1.0
C      1  0.4672510000000  0.4268250000000  0.4468220000000 1.0
C      1  0.5248570000000  0.6329830000000  0.5436320000000 1.0
C      1  0.4918120000000  0.5505710000000  0.4624450000000 1.0
C      1  0.5055780000000  0.6217920000000  0.5604170000000 1.0
C      1  0.5347360000000  0.4951560000000  0.4625770000000 1.0
C      1  0.4841750000000  0.5517820000000  0.4893510000000 1.0
C      1  0.4941740000000  0.6363710000000  0.5814760000000 1.0
C      1  0.5012550000000  0.4757090000000  0.5610960000000 1.0
C      1  0.4594160000000  0.5766030000000  0.5788460000000 1.0
C      1  0.4823920000000  0.4474060000000  0.4357450000000 1.0
C      1  0.4972140000000  0.3449200000000  0.5883160000000 1.0
C      1  0.4163980000000  0.4169570000000  0.4619180000000 1.0
C      1  0.5728930000000  0.5015040000000  0.4966920000000 1.0
C      1  0.5004430000000  0.5281310000000  0.3802410000000 1.0
C      1  0.5901990000000  0.4736710000000  0.5323180000000 1.0
C      1  0.4966180000000  0.5955920000000  0.5557060000000 1.0
C      1  0.5525020000000  0.6130530000000  0.4768210000000 1.0
C      1  0.5514730000000  0.4878510000000  0.4850380000000 1.0
END
