TITL C-2323485-8600-292 51.1728644548757 125000 -364.789329544296 0 0 60 (C1) n - 1
REM
REM in /home/bkarasulu/CARBON/AIRSS/Generating-Clusters/LCBOP/Higher-Symm/Only-C60/SD-CG/FIRE-HFTN
REM
REM
REM
REM
REM
REM ./C.cell (50c204cfd26239f34c78669fe23a5462)
REM
REM compiler GCC version 9.2.1 20190827 (Red Hat 9.2.1-1)
REM options -cpp -mtune=generic -march=x86-64 -g -O0 -fpre-include=/usr/include/finclude/math-vector-fortran.h
REM seed 1782743322 96671212 -314154325 1175303892 -588323130 1177217163 -1215735320 -2135220893 1920557041 -331151551 261139083 -1114583343 -1195292138 -2067787752 -624044921 100307770 1033468755 -638935593 -474781302 -1392750956 1105687851 831591425 614668591 -1060842392 -484323249 -86899620 151843525 -1863268872 147972866 888328672 1282778688 -1353597520 -1563432068
REM
CELL 1.54180   50.00000   50.00000   50.00000   90.00000   90.00000   90.00000
LATT -1
SFAC C  
C      1  0.4735020000000  0.5126580000000  0.5840120000000 1.0
C      1  0.5205290000000  0.4804970000000  0.4079150000000 1.0
C      1  0.5023480000000  0.4402910000000  0.5629980000000 1.0
C      1  0.5149760000000  0.5611080000000  0.4422300000000 1.0
C      1  0.5435650000000  0.5569900000000  0.5105090000000 1.0
C      1  0.4708840000000  0.4547940000000  0.5008360000000 1.0
C      1  0.5399080000000  0.4310400000000  0.5086720000000 1.0
C      1  0.4234280000000  0.5798550000000  0.4407060000000 1.0
C      1  0.5587130000000  0.4422330000000  0.5237790000000 1.0
C      1  0.4234680000000  0.5636340000000  0.4618110000000 1.0
C      1  0.4826450000000  0.5687310000000  0.4070490000000 1.0
C      1  0.5294440000000  0.4403210000000  0.6032600000000 1.0
C      1  0.4532730000000  0.5007860000000  0.5992190000000 1.0
C      1  0.5329790000000  0.4818310000000  0.3829290000000 1.0
C      1  0.4526750000000  0.5633750000000  0.5342680000000 1.0
C      1  0.5357730000000  0.4213020000000  0.4499890000000 1.0
C      1  0.4924310000000  0.4397250000000  0.5107450000000 1.0
C      1  0.5216670000000  0.5657410000000  0.4949270000000 1.0
C      1  0.5106210000000  0.4596530000000  0.4495840000000 1.0
C      1  0.4900960000000  0.5426930000000  0.5512520000000 1.0
C      1  0.5122740000000  0.5267860000000  0.5609700000000 1.0
C      1  0.4920560000000  0.4816110000000  0.4453870000000 1.0
C      1  0.4113100000000  0.5224600000000  0.5859190000000 1.0
C      1  0.5610850000000  0.4417600000000  0.3792190000000 1.0
C      1  0.5268090000000  0.4581820000000  0.4248620000000 1.0
C      1  0.4663480000000  0.5344820000000  0.5668090000000 1.0
C      1  0.4630670000000  0.4992200000000  0.4835680000000 1.0
C      1  0.5534380000000  0.5156660000000  0.5332760000000 1.0
C      1  0.4940040000000  0.4349280000000  0.5383570000000 1.0
C      1  0.5223680000000  0.5668370000000  0.4670800000000 1.0
C      1  0.5015060000000  0.5066720000000  0.5790340000000 1.0
C      1  0.5007850000000  0.4964550000000  0.4219900000000 1.0
C      1  0.5148840000000  0.4541230000000  0.5838810000000 1.0
C      1  0.4990570000000  0.5511930000000  0.4214210000000 1.0
C      1  0.4598720000000  0.5824970000000  0.4060370000000 1.0
C      1  0.5437240000000  0.4271810000000  0.6212970000000 1.0
C      1  0.4266410000000  0.5051230000000  0.5998200000000 1.0
C      1  0.5503350000000  0.4650640000000  0.3708370000000 1.0
C      1  0.5578180000000  0.4142510000000  0.6390120000000 1.0
C      1  0.4370340000000  0.5871850000000  0.4189800000000 1.0
C      1  0.5672330000000  0.4646890000000  0.5351650000000 1.0
C      1  0.4344630000000  0.5439800000000  0.4759030000000 1.0
C      1  0.5577540000000  0.4281320000000  0.4022810000000 1.0
C      1  0.4180000000000  0.5407380000000  0.5672190000000 1.0
C      1  0.5643460000000  0.4908480000000  0.5385820000000 1.0
C      1  0.4506520000000  0.5238610000000  0.4819760000000 1.0
C      1  0.4812600000000  0.5601500000000  0.5299870000000 1.0
C      1  0.5177260000000  0.4374380000000  0.4666340000000 1.0
C      1  0.4971640000000  0.5683280000000  0.5087430000000 1.0
C      1  0.5157550000000  0.4348010000000  0.4946590000000 1.0
C      1  0.4969260000000  0.5235580000000  0.4176550000000 1.0
C      1  0.5127690000000  0.4820190000000  0.5848870000000 1.0
C      1  0.5421980000000  0.4337640000000  0.4247390000000 1.0
C      1  0.4427610000000  0.5474940000000  0.5562900000000 1.0
C      1  0.5412650000000  0.5594200000000  0.5395740000000 1.0
C      1  0.4634270000000  0.4545750000000  0.4728300000000 1.0
C      1  0.4689260000000  0.4809620000000  0.4612020000000 1.0
C      1  0.5379180000000  0.5328250000000  0.5514140000000 1.0
C      1  0.4664800000000  0.4829550000000  0.5074650000000 1.0
C      1  0.5556360000000  0.5305280000000  0.5083480000000 1.0
END
