TITL C-2323481-8605-346 0.259362926330878 125000 -328.324166244644 0 0 60 (C1) n - 1
REM
REM in /home/bkarasulu/CARBON/AIRSS/Generating-Clusters/LCBOP/Higher-Symm/Only-C60/SD-CG/FIRE-HFTN
REM
REM
REM
REM
REM
REM ./C.cell (50c204cfd26239f34c78669fe23a5462)
REM
REM compiler GCC version 9.2.1 20190827 (Red Hat 9.2.1-1)
REM options -cpp -mtune=generic -march=x86-64 -g -O0 -fpre-include=/usr/include/finclude/math-vector-fortran.h
REM seed 379831184 359577815 506773866 -393428248 -1309555897 -615894098 451677636 1708821615 1480527536 -1726820117 198030265 1565603997 1059388133 1129015351 397747866 311395955 1165772198 -1478363773 -563829208 442226487 -1476462791 -2104712744 1241056791 404530060 -2144565537 310381667 340165106 916597490 970829423 604814574 626954271 -1068148978 -563681737
REM
CELL 1.54180   50.00000   50.00000   50.00000   90.00000   90.00000   90.00000
LATT -1
SFAC C  
C      1  0.5555120000000  0.4983580000000  0.5735640000000 1.0
C      1  0.5290000000000  0.4918420000000  0.4148370000000 1.0
C      1  0.4105720000000  0.5001880000000  0.5181410000000 1.0
C      1  0.6259790000000  0.4838940000000  0.3582000000000 1.0
C      1  0.3185170000000  0.5037920000000  0.4536480000000 1.0
C      1  0.5353810000000  0.4958010000000  0.6841940000000 1.0
C      1  0.5121690000000  0.4049870000000  0.5012690000000 1.0
C      1  0.5293150000000  0.4432670000000  0.4771610000000 1.0
C      1  0.4827100000000  0.4387900000000  0.4830870000000 1.0
C      1  0.5449130000000  0.5153620000000  0.5522650000000 1.0
C      1  0.5206670000000  0.5093750000000  0.4367140000000 1.0
C      1  0.4361380000000  0.5142980000000  0.5163480000000 1.0
C      1  0.4864100000000  0.4140710000000  0.4974880000000 1.0
C      1  0.5340040000000  0.4186930000000  0.4914920000000 1.0
C      1  0.5038290000000  0.4409260000000  0.4629370000000 1.0
C      1  0.5653390000000  0.5011140000000  0.6413310000000 1.0
C      1  0.5743090000000  0.4920610000000  0.3633400000000 1.0
C      1  0.3455580000000  0.5090790000000  0.4984110000000 1.0
C      1  0.5247160000000  0.5358420000000  0.4254760000000 1.0
C      1  0.4279810000000  0.5421520000000  0.5171240000000 1.0
C      1  0.5519530000000  0.5420110000000  0.5614140000000 1.0
C      1  0.5112500000000  0.5020840000000  0.4621530000000 1.0
C      1  0.4616460000000  0.5032110000000  0.5145340000000 1.0
C      1  0.5316310000000  0.5075810000000  0.5290130000000 1.0
C      1  0.5983000000000  0.5088050000000  0.5021780000000 1.0
C      1  0.4563770000000  0.4775350000000  0.4224640000000 1.0
C      1  0.4595310000000  0.4724990000000  0.5791420000000 1.0
C      1  0.4848850000000  0.5319720000000  0.5470070000000 1.0
C      1  0.5350490000000  0.5423340000000  0.4941340000000 1.0
C      1  0.4724080000000  0.5313940000000  0.4674340000000 1.0
C      1  0.5653680000000  0.5410500000000  0.5856730000000 1.0
C      1  0.5344250000000  0.5343110000000  0.3995350000000 1.0
C      1  0.4004190000000  0.5444790000000  0.5191610000000 1.0
C      1  0.3605770000000  0.5120400000000  0.5218190000000 1.0
C      1  0.5806640000000  0.5041860000000  0.6181380000000 1.0
C      1  0.5469360000000  0.4966490000000  0.3667910000000 1.0
C      1  0.5502700000000  0.4984240000000  0.6629560000000 1.0
C      1  0.6003470000000  0.4879320000000  0.3607130000000 1.0
C      1  0.3318960000000  0.5064060000000  0.4758700000000 1.0
C      1  0.3877360000000  0.5183620000000  0.5199280000000 1.0
C      1  0.5684650000000  0.5136650000000  0.5948460000000 1.0
C      1  0.5377250000000  0.5066800000000  0.3911990000000 1.0
C      1  0.4803860000000  0.5024950000000  0.4664710000000 1.0
C      1  0.4810570000000  0.5037580000000  0.5381960000000 1.0
C      1  0.5428340000000  0.5145730000000  0.5012980000000 1.0
C      1  0.5077300000000  0.4917090000000  0.5293530000000 1.0
C      1  0.5305610000000  0.4944030000000  0.4819790000000 1.0
C      1  0.4706990000000  0.4883370000000  0.4918050000000 1.0
C      1  0.5073240000000  0.4687370000000  0.5121270000000 1.0
C      1  0.5290650000000  0.4675890000000  0.4923540000000 1.0
C      1  0.4820650000000  0.4629600000000  0.4985010000000 1.0
C      1  0.5724450000000  0.5117640000000  0.5011580000000 1.0
C      1  0.4673330000000  0.4892350000000  0.4429890000000 1.0
C      1  0.4699420000000  0.4875000000000  0.5605730000000 1.0
C      1  0.3487700000000  0.5087730000000  0.5462830000000 1.0
C      1  0.6073070000000  0.4979680000000  0.6182910000000 1.0
C      1  0.5293980000000  0.4913590000000  0.3464700000000 1.0
C      1  0.5294460000000  0.5674910000000  0.4903870000000 1.0
C      1  0.4664610000000  0.5566570000000  0.4652680000000 1.0
C      1  0.4863030000000  0.5571900000000  0.5533690000000 1.0
END
