TITL C-2323488-8613-44 56.503364774598 125000 -344.18378491774 0 0 60 (C3i) n - 1
REM
REM in /home/bkarasulu/CARBON/AIRSS/Generating-Clusters/LCBOP/Higher-Symm/Only-C60/SD-CG/FIRE-HFTN
REM
REM
REM
REM
REM
REM ./C.cell (50c204cfd26239f34c78669fe23a5462)
REM
REM compiler GCC version 9.2.1 20190827 (Red Hat 9.2.1-1)
REM options -cpp -mtune=generic -march=x86-64 -g -O0 -fpre-include=/usr/include/finclude/math-vector-fortran.h
REM seed 1290562512 -1737942883 -1263603708 -1893566601 1339613313 -1466658561 1913151090 -1399251656 2099268422 565723484 1810515953 -569252838 1516177892 -252511518 1312807664 -1777735525 1200948109 2098071116 -1420308886 -872038414 -296269851 -307908310 2072342571 -1485994139 -81330296 53149397 -542445104 -2062729727 25596447 1963978579 -1301530938 1331701539 600110817
REM
CELL 1.54180   50.00000   50.00000   50.00000   90.00000   90.00000   90.00000
LATT -1
SFAC C  
C      1  0.4056060000000  0.3857740000000  0.5743620000000 1.0
C      1  0.5935750000000  0.5071920000000  0.6366720000000 1.0
C      1  0.4061670000000  0.6220500000000  0.5615340000000 1.0
C      1  0.5943930000000  0.6142290000000  0.4256430000000 1.0
C      1  0.4064250000000  0.4928030000000  0.3633280000000 1.0
C      1  0.5938330000000  0.3779520000000  0.4384610000000 1.0
C      1  0.4901340000000  0.5394880000000  0.4611360000000 1.0
C      1  0.5101780000000  0.4860770000000  0.4464310000000 1.0
C      1  0.4898610000000  0.4466560000000  0.4852120000000 1.0
C      1  0.5098670000000  0.4605120000000  0.5388640000000 1.0
C      1  0.4898230000000  0.5139230000000  0.5535690000000 1.0
C      1  0.5101390000000  0.5533440000000  0.5147880000000 1.0
C      1  0.5623870000000  0.5661760000000  0.5109530000000 1.0
C      1  0.4379680000000  0.5426320000000  0.4477880000000 1.0
C      1  0.5623900000000  0.4760410000000  0.4373500000000 1.0
C      1  0.4376130000000  0.4338230000000  0.4890480000000 1.0
C      1  0.5620320000000  0.4573670000000  0.5522110000000 1.0
C      1  0.4376110000000  0.5239600000000  0.5626500000000 1.0
C      1  0.3852110000000  0.4958730000000  0.3484880000000 1.0
C      1  0.6150960000000  0.3666160000000  0.4285090000000 1.0
C      1  0.3843010000000  0.3715090000000  0.5790770000000 1.0
C      1  0.6147890000000  0.5041200000000  0.6515120000000 1.0
C      1  0.3849040000000  0.6333870000000  0.5714840000000 1.0
C      1  0.6156990000000  0.6284950000000  0.4209300000000 1.0
C      1  0.4277850000000  0.6105220000000  0.5514190000000 1.0
C      1  0.5727320000000  0.5997240000000  0.4304370000000 1.0
C      1  0.4279920000000  0.4896830000000  0.3784170000000 1.0
C      1  0.5722150000000  0.3894800000000  0.4485780000000 1.0
C      1  0.4272680000000  0.4002780000000  0.5695670000000 1.0
C      1  0.5720080000000  0.5103140000000  0.6215830000000 1.0
C      1  0.4488870000000  0.4147940000000  0.5646580000000 1.0
C      1  0.5504820000000  0.5133420000000  0.6064270000000 1.0
C      1  0.4493610000000  0.5988890000000  0.5413500000000 1.0
C      1  0.5511130000000  0.5852080000000  0.4353440000000 1.0
C      1  0.4495180000000  0.4866550000000  0.3935730000000 1.0
C      1  0.5506390000000  0.4011110000000  0.4586480000000 1.0
C      1  0.5292130000000  0.5157270000000  0.5908040000000 1.0
C      1  0.4706770000000  0.5865310000000  0.5316030000000 1.0
C      1  0.5297470000000  0.5706070000000  0.4410430000000 1.0
C      1  0.4707870000000  0.4842720000000  0.4091960000000 1.0
C      1  0.5293230000000  0.4134700000000  0.4683960000000 1.0
C      1  0.4702530000000  0.4293940000000  0.5589580000000 1.0
C      1  0.5372120000000  0.4816800000000  0.4410130000000 1.0
C      1  0.4628140000000  0.4397900000000  0.4861480000000 1.0
C      1  0.5368720000000  0.4578630000000  0.5454410000000 1.0
C      1  0.4627880000000  0.5183210000000  0.5589870000000 1.0
C      1  0.5371860000000  0.5602090000000  0.5138530000000 1.0
C      1  0.4631280000000  0.5421360000000  0.4545590000000 1.0
C      1  0.4910440000000  0.5720940000000  0.5227570000000 1.0
C      1  0.5093180000000  0.5557470000000  0.4489990000000 1.0
C      1  0.4911130000000  0.4837130000000  0.4261670000000 1.0
C      1  0.5089560000000  0.4279060000000  0.4772420000000 1.0
C      1  0.4906820000000  0.4442540000000  0.5510010000000 1.0
C      1  0.5088870000000  0.5162870000000  0.5738340000000 1.0
C      1  0.5019680000000  0.5271810000000  0.5075280000000 1.0
C      1  0.4981710000000  0.5201120000000  0.4802130000000 1.0
C      1  0.5019880000000  0.4929180000000  0.4727000000000 1.0
C      1  0.4980320000000  0.4728190000000  0.4924720000000 1.0
C      1  0.5018290000000  0.4798880000000  0.5197870000000 1.0
C      1  0.4980130000000  0.5070820000000  0.5273000000000 1.0
END
