TITL C-2323478-8180-162 15.2313714204857 125000 -355.800920752527 0 0 60 (C3) n - 1
REM
REM in /home/bkarasulu/CARBON/AIRSS/Generating-Clusters/LCBOP/Higher-Symm/Only-C60/SD-CG/FIRE-HFTN
REM
REM
REM
REM
REM
REM ./C.cell (50c204cfd26239f34c78669fe23a5462)
REM
REM compiler GCC version 9.2.1 20190827 (Red Hat 9.2.1-1)
REM options -cpp -mtune=generic -march=x86-64 -g -O0 -fpre-include=/usr/include/finclude/math-vector-fortran.h
REM seed 936462856 -470558055 2062951703 213248545 1079671755 -286562936 530136754 -2026098817 363662570 1841478443 2110489489 1208040523 -1530472155 1741584064 1249055130 1392853061 2121096798 -2126730993 2089139544 -1620967499 -1160356031 2102096163 -747407170 1196594305 1015044234 480980995 -486010460 667015614 -318915115 -1082982764 1646471239 -143977772 1592516284
REM
CELL 1.54180   50.00000   50.00000   50.00000   90.00000   90.00000   90.00000
LATT -1
SFAC C  
C      1  0.3422510000000  0.4557070000000  0.4382380000000 1.0
C      1  0.6172840000000  0.3855570000000  0.4382860000000 1.0
C      1  0.5405180000000  0.6588180000000  0.4383860000000 1.0
C      1  0.4831080000000  0.4759430000000  0.5150960000000 1.0
C      1  0.5292680000000  0.4973930000000  0.5151180000000 1.0
C      1  0.4876120000000  0.5266440000000  0.5151190000000 1.0
C      1  0.5842750000000  0.5401360000000  0.5287460000000 1.0
C      1  0.4230800000000  0.5529040000000  0.5287060000000 1.0
C      1  0.4926200000000  0.4069220000000  0.5286610000000 1.0
C      1  0.5619780000000  0.6227140000000  0.5007010000000 1.0
C      1  0.3627370000000  0.4923170000000  0.5005850000000 1.0
C      1  0.5752850000000  0.3849680000000  0.5005990000000 1.0
C      1  0.4004400000000  0.4844070000000  0.5294540000000 1.0
C      1  0.5632600000000  0.4215620000000  0.5294740000000 1.0
C      1  0.5362750000000  0.5939910000000  0.5295420000000 1.0
C      1  0.4727590000000  0.5024230000000  0.5148810000000 1.0
C      1  0.5115100000000  0.4751910000000  0.5148800000000 1.0
C      1  0.5157180000000  0.5223660000000  0.5149020000000 1.0
C      1  0.5122490000000  0.5834850000000  0.5254790000000 1.0
C      1  0.4215550000000  0.4688540000000  0.5254020000000 1.0
C      1  0.5661750000000  0.4476270000000  0.5254340000000 1.0
C      1  0.5888780000000  0.5660370000000  0.5320330000000 1.0
C      1  0.3983450000000  0.5439390000000  0.5319690000000 1.0
C      1  0.5127490000000  0.3899820000000  0.5319340000000 1.0
C      1  0.6032190000000  0.6101690000000  0.5450220000000 1.0
C      1  0.3529450000000  0.5342870000000  0.5449170000000 1.0
C      1  0.5437980000000  0.3554840000000  0.5448930000000 1.0
C      1  0.5849300000000  0.5937330000000  0.5330960000000 1.0
C      1  0.3763330000000  0.5266710000000  0.5330060000000 1.0
C      1  0.5387090000000  0.3795520000000  0.5329880000000 1.0
C      1  0.4909830000000  0.5751730000000  0.5092600000000 1.0
C      1  0.4393990000000  0.4546010000000  0.5091920000000 1.0
C      1  0.5696100000000  0.4702140000000  0.5092360000000 1.0
C      1  0.5733250000000  0.5165640000000  0.5235650000000 1.0
C      1  0.4489730000000  0.5552090000000  0.5235470000000 1.0
C      1  0.4776820000000  0.4281950000000  0.5234990000000 1.0
C      1  0.3567240000000  0.4785560000000  0.4786860000000 1.0
C      1  0.5902260000000  0.3866500000000  0.4787130000000 1.0
C      1  0.5530670000000  0.6348220000000  0.4788120000000 1.0
C      1  0.5349520000000  0.6398590000000  0.4580410000000 1.0
C      1  0.3614370000000  0.4603570000000  0.4579110000000 1.0
C      1  0.6036470000000  0.3998390000000  0.4579540000000 1.0
C      1  0.5596710000000  0.3949380000000  0.5215700000000 1.0
C      1  0.5611330000000  0.6041980000000  0.5216630000000 1.0
C      1  0.3791780000000  0.5008350000000  0.5215640000000 1.0
C      1  0.4293910000000  0.4436110000000  0.4854600000000 1.0
C      1  0.5841510000000  0.4670510000000  0.4855140000000 1.0
C      1  0.4864710000000  0.5893570000000  0.4855410000000 1.0
C      1  0.6029200000000  0.4278430000000  0.4576030000000 1.0
C      1  0.5110640000000  0.6252270000000  0.4576640000000 1.0
C      1  0.3860530000000  0.4469860000000  0.4575490000000 1.0
C      1  0.3243080000000  0.4513600000000  0.4198430000000 1.0
C      1  0.6300350000000  0.3721990000000  0.4198960000000 1.0
C      1  0.5457250000000  0.6765480000000  0.4200070000000 1.0
C      1  0.4940760000000  0.6073030000000  0.4674690000000 1.0
C      1  0.4100620000000  0.4412320000000  0.4673700000000 1.0
C      1  0.5958900000000  0.4515090000000  0.4674280000000 1.0
C      1  0.5573930000000  0.4948880000000  0.5159790000000 1.0
C      1  0.4757170000000  0.5522530000000  0.5159820000000 1.0
C      1  0.4668760000000  0.4528370000000  0.5159350000000 1.0
END
