TITL C-2323480-5884-549 0.215641503167654 125000 -370.022065209476 0 0 60 (C1) n - 1
REM
REM in /home/bkarasulu/CARBON/AIRSS/Generating-Clusters/LCBOP/Higher-Symm/Only-C60/SD-CG/FIRE-HFTN
REM
REM
REM
REM
REM
REM ./C.cell (50c204cfd26239f34c78669fe23a5462)
REM
REM compiler GCC version 9.2.1 20190827 (Red Hat 9.2.1-1)
REM options -cpp -mtune=generic -march=x86-64 -g -O0 -fpre-include=/usr/include/finclude/math-vector-fortran.h
REM seed 1781313231 -1125732125 -1174570402 -1233539078 611602216 1792720035 -1554987722 1932662571 1269819683 911783683 -1712134645 2136311266 1799378468 700318698 -124228364 1700573024 729586482 -971355694 -284559308 -289593442 -181072868 1997056451 -415883548 -623623647 -1120705185 -875658368 378473063 1933080839 -1703535111 2062536510 -1932661549 -364579594 -360267366
REM
CELL 1.54180   50.00000   50.00000   50.00000   90.00000   90.00000   90.00000
LATT -1
SFAC C  
C      1  0.4201240000000  0.5138700000000  0.5452240000000 1.0
C      1  0.4202750000000  0.4846370000000  0.5464800000000 1.0
C      1  0.5436140000000  0.4464670000000  0.4053460000000 1.0
C      1  0.5402230000000  0.5547810000000  0.4064490000000 1.0
C      1  0.4628340000000  0.5374010000000  0.5750860000000 1.0
C      1  0.4637510000000  0.4647570000000  0.5774670000000 1.0
C      1  0.4356370000000  0.5346460000000  0.5320080000000 1.0
C      1  0.4357910000000  0.4629870000000  0.5348420000000 1.0
C      1  0.4639590000000  0.5300090000000  0.5274470000000 1.0
C      1  0.4639210000000  0.4676120000000  0.5292410000000 1.0
C      1  0.3773280000000  0.4876090000000  0.6023660000000 1.0
C      1  0.3769280000000  0.5146120000000  0.6011280000000 1.0
C      1  0.5084240000000  0.4711970000000  0.5560170000000 1.0
C      1  0.5078370000000  0.5291610000000  0.5552680000000 1.0
C      1  0.4342080000000  0.4383990000000  0.5508010000000 1.0
C      1  0.4332760000000  0.5605420000000  0.5456280000000 1.0
C      1  0.4188410000000  0.4779570000000  0.5758840000000 1.0
C      1  0.4182590000000  0.5229930000000  0.5739590000000 1.0
C      1  0.5489460000000  0.4742160000000  0.3511050000000 1.0
C      1  0.5472100000000  0.5282160000000  0.3512880000000 1.0
C      1  0.4765450000000  0.5352190000000  0.5031210000000 1.0
C      1  0.4757650000000  0.4599320000000  0.5051860000000 1.0
C      1  0.5540680000000  0.5449980000000  0.4661070000000 1.0
C      1  0.5533490000000  0.4558110000000  0.4660050000000 1.0
C      1  0.3961080000000  0.4719030000000  0.5910400000000 1.0
C      1  0.3952710000000  0.5297610000000  0.5884120000000 1.0
C      1  0.4801600000000  0.4690030000000  0.5535660000000 1.0
C      1  0.4797410000000  0.5312990000000  0.5520630000000 1.0
C      1  0.5277970000000  0.4673970000000  0.5354660000000 1.0
C      1  0.5282490000000  0.5309360000000  0.5351220000000 1.0
C      1  0.5167870000000  0.4870410000000  0.5782010000000 1.0
C      1  0.5157050000000  0.5140980000000  0.5782490000000 1.0
C      1  0.5614050000000  0.4848710000000  0.5060330000000 1.0
C      1  0.5638170000000  0.5120950000000  0.5006600000000 1.0
C      1  0.5466590000000  0.4876240000000  0.3275280000000 1.0
C      1  0.5457750000000  0.5148500000000  0.3276200000000 1.0
C      1  0.5351360000000  0.5701120000000  0.4280060000000 1.0
C      1  0.5388450000000  0.4301860000000  0.4262460000000 1.0
C      1  0.5493400000000  0.5342130000000  0.4917090000000 1.0
C      1  0.5480700000000  0.4634000000000  0.4924200000000 1.0
C      1  0.5264350000000  0.5403450000000  0.5079390000000 1.0
C      1  0.5254210000000  0.4555270000000  0.5087410000000 1.0
C      1  0.5505110000000  0.4866120000000  0.3766400000000 1.0
C      1  0.5496520000000  0.5157640000000  0.3767180000000 1.0
C      1  0.5630320000000  0.5154880000000  0.4235510000000 1.0
C      1  0.5625900000000  0.4871640000000  0.4239590000000 1.0
C      1  0.4455770000000  0.5159320000000  0.5848760000000 1.0
C      1  0.4461120000000  0.4865320000000  0.5859000000000 1.0
C      1  0.5516240000000  0.5295150000000  0.4012750000000 1.0
C      1  0.5529490000000  0.4727250000000  0.4011070000000 1.0
C      1  0.5405630000000  0.5668250000000  0.4542820000000 1.0
C      1  0.5425600000000  0.4332450000000  0.4528280000000 1.0
C      1  0.5496410000000  0.5129930000000  0.5386750000000 1.0
C      1  0.5503350000000  0.4855670000000  0.5338040000000 1.0
C      1  0.4480790000000  0.5619620000000  0.5691550000000 1.0
C      1  0.4494920000000  0.4394130000000  0.5740410000000 1.0
C      1  0.5011170000000  0.5433610000000  0.4965220000000 1.0
C      1  0.4999820000000  0.4509950000000  0.4982590000000 1.0
C      1  0.5660160000000  0.4739470000000  0.4484960000000 1.0
C      1  0.5683290000000  0.5292710000000  0.4474360000000 1.0
END
