TITL C-2323492-8884-602 9.50854953005925 125000 -365.652125287288 0 0 60 (C1) n - 1
REM
REM in /home/bkarasulu/CARBON/AIRSS/Generating-Clusters/LCBOP/Higher-Symm/Only-C60/SD-CG/FIRE-HFTN
REM
REM
REM
REM
REM
REM ./C.cell (50c204cfd26239f34c78669fe23a5462)
REM
REM compiler GCC version 9.2.1 20190827 (Red Hat 9.2.1-1)
REM options -cpp -mtune=generic -march=x86-64 -g -O0 -fpre-include=/usr/include/finclude/math-vector-fortran.h
REM seed -360707209 -1297153709 1575268732 669970961 712170079 536265624 -143246327 1930976935 -574206311 -1154930663 1272389137 13146764 1353771035 -933541924 -2092568176 1391882824 -3640113 -32316417 1032109393 1787165366 1321117686 426890810 1963656426 1477178337 -488851715 -703917961 1813869933 1912321151 443997898 1792817704 -1914900828 -1452412864 2018672492
REM
CELL 1.54180   50.00000   50.00000   50.00000   90.00000   90.00000   90.00000
LATT -1
SFAC C  
C      1  0.4794060000000  0.5013670000000  0.5099170000000 1.0
C      1  0.4982430000000  0.4795780000000  0.5098160000000 1.0
C      1  0.5255670000000  0.4851940000000  0.5123520000000 1.0
C      1  0.4890020000000  0.5275300000000  0.5126420000000 1.0
C      1  0.5934860000000  0.4912520000000  0.4506380000000 1.0
C      1  0.5044680000000  0.5941770000000  0.4519590000000 1.0
C      1  0.4027700000000  0.5069340000000  0.4480760000000 1.0
C      1  0.4927070000000  0.4032690000000  0.4480520000000 1.0
C      1  0.4971660000000  0.4540230000000  0.5831640000000 1.0
C      1  0.5490640000000  0.4982810000000  0.5857180000000 1.0
C      1  0.5077590000000  0.5474990000000  0.5866470000000 1.0
C      1  0.4529540000000  0.5034770000000  0.5837160000000 1.0
C      1  0.4927210000000  0.4374180000000  0.5629440000000 1.0
C      1  0.5665990000000  0.5012650000000  0.5660150000000 1.0
C      1  0.5126230000000  0.5644720000000  0.5668190000000 1.0
C      1  0.4363470000000  0.5021510000000  0.5630740000000 1.0
C      1  0.4579280000000  0.4830170000000  0.4713740000000 1.0
C      1  0.4768060000000  0.4611660000000  0.4713110000000 1.0
C      1  0.5388970000000  0.5146710000000  0.4769090000000 1.0
C      1  0.5200200000000  0.5365020000000  0.4771290000000 1.0
C      1  0.5718510000000  0.5018290000000  0.5128200000000 1.0
C      1  0.5127950000000  0.5705100000000  0.5136530000000 1.0
C      1  0.4295860000000  0.5004220000000  0.5097610000000 1.0
C      1  0.4898070000000  0.4305170000000  0.5097350000000 1.0
C      1  0.5231470000000  0.4982010000000  0.5949250000000 1.0
C      1  0.5043770000000  0.5219570000000  0.5960900000000 1.0
C      1  0.4772910000000  0.5033770000000  0.5957180000000 1.0
C      1  0.5018220000000  0.4785530000000  0.5941970000000 1.0
C      1  0.4890630000000  0.4557320000000  0.4967030000000 1.0
C      1  0.5460290000000  0.5008610000000  0.5008850000000 1.0
C      1  0.5076710000000  0.5453770000000  0.5013220000000 1.0
C      1  0.4544390000000  0.4958870000000  0.4968040000000 1.0
C      1  0.6361960000000  0.4899850000000  0.4735000000000 1.0
C      1  0.5098690000000  0.6363700000000  0.4751680000000 1.0
C      1  0.3630470000000  0.5138910000000  0.4749270000000 1.0
C      1  0.4936960000000  0.3628310000000  0.4747120000000 1.0
C      1  0.4286620000000  0.5006400000000  0.5377420000000 1.0
C      1  0.4898430000000  0.4296890000000  0.5377300000000 1.0
C      1  0.5739320000000  0.5037770000000  0.5406460000000 1.0
C      1  0.5155670000000  0.5717240000000  0.5414650000000 1.0
C      1  0.4899700000000  0.4548090000000  0.4467530000000 1.0
C      1  0.5426480000000  0.5015100000000  0.4514900000000 1.0
C      1  0.5072610000000  0.5423950000000  0.4519030000000 1.0
C      1  0.4534140000000  0.4969990000000  0.4468650000000 1.0
C      1  0.4916940000000  0.4281850000000  0.4386260000000 1.0
C      1  0.5681300000000  0.4941830000000  0.4430020000000 1.0
C      1  0.5035270000000  0.5688000000000  0.4438930000000 1.0
C      1  0.4272920000000  0.5023350000000  0.4386840000000 1.0
C      1  0.4909850000000  0.4065650000000  0.4953460000000 1.0
C      1  0.5949880000000  0.4988510000000  0.4973880000000 1.0
C      1  0.5130190000000  0.5940800000000  0.4985920000000 1.0
C      1  0.4060690000000  0.5050560000000  0.4953490000000 1.0
C      1  0.5023480000000  0.4757920000000  0.4335680000000 1.0
C      1  0.5191260000000  0.4975930000000  0.4365900000000 1.0
C      1  0.4998930000000  0.5198630000000  0.4367670000000 1.0
C      1  0.4758830000000  0.5064430000000  0.4337210000000 1.0
C      1  0.4925020000000  0.3899910000000  0.4727680000000 1.0
C      1  0.6091430000000  0.4932520000000  0.4738310000000 1.0
C      1  0.5091440000000  0.6091270000000  0.4752370000000 1.0
C      1  0.3897410000000  0.5087970000000  0.4728540000000 1.0
END
