TITL C-2323477-5056-260 -3.18691683063799e-07 125000 -356.971845921769 0 0 60 (C5) n - 1
REM
REM in /home/bkarasulu/CARBON/AIRSS/Generating-Clusters/LCBOP/Higher-Symm/Only-C60/SD-CG/FIRE-HFTN
REM
REM
REM
REM
REM
REM ./C.cell (50c204cfd26239f34c78669fe23a5462)
REM
REM compiler GCC version 9.2.1 20190827 (Red Hat 9.2.1-1)
REM options -cpp -mtune=generic -march=x86-64 -g -O0 -fpre-include=/usr/include/finclude/math-vector-fortran.h
REM seed 899129037 1554297194 -616193911 -989822474 299356783 -1992274156 97543386 228305714 518164294 532107504 257823615 952245894 -1321559838 541252769 687059449 -763607240 -1973379098 -357084638 424886092 599052996 -248243661 -1508049669 807091289 -149128457 393373860 -839536872 391306687 -1368904134 -16149253 1329647157 -1952801427 814455529 -1809833224
REM
CELL 1.54180   50.00000   50.00000   50.00000   90.00000   90.00000   90.00000
LATT -1
SFAC C  
C      1  0.5074980000000  0.5653610000000  0.5211930000000 1.0
C      1  0.5074880000000  0.5000410000000  0.5687120000000 1.0
C      1  0.5074850000000  0.4346640000000  0.5212740000000 1.0
C      1  0.5074930000000  0.4595770000000  0.4444360000000 1.0
C      1  0.5075010000000  0.5403530000000  0.4443870000000 1.0
C      1  0.5142710000000  0.5389560000000  0.5107550000000 1.0
C      1  0.5142650000000  0.5018090000000  0.5403750000000 1.0
C      1  0.5142630000000  0.4621600000000  0.5141990000000 1.0
C      1  0.5142670000000  0.4748020000000  0.4684020000000 1.0
C      1  0.5142720000000  0.5222650000000  0.4662730000000 1.0
C      1  0.5401400000000  0.4486150000000  0.5559100000000 1.0
C      1  0.5401440000000  0.4309470000000  0.4684130000000 1.0
C      1  0.5401550000000  0.5087020000000  0.4245720000000 1.0
C      1  0.5401580000000  0.5744250000000  0.4849730000000 1.0
C      1  0.5401480000000  0.5372900000000  0.5661450000000 1.0
C      1  0.5122680000000  0.5463190000000  0.5670900000000 1.0
C      1  0.5122590000000  0.4505070000000  0.5647860000000 1.0
C      1  0.5122620000000  0.4230910000000  0.4729510000000 1.0
C      1  0.5122740000000  0.5019580000000  0.4184980000000 1.0
C      1  0.5122780000000  0.5781180000000  0.4766790000000 1.0
C      1  0.5065420000000  0.5675690000000  0.5490560000000 1.0
C      1  0.5065310000000  0.4742240000000  0.5794220000000 1.0
C      1  0.5065300000000  0.4165000000000  0.5000300000000 1.0
C      1  0.5065420000000  0.4741690000000  0.4205970000000 1.0
C      1  0.5065490000000  0.5675340000000  0.4508970000000 1.0
C      1  0.4873560000000  0.5257480000000  0.5031590000000 1.0
C      1  0.4873520000000  0.5049520000000  0.5254620000000 1.0
C      1  0.4873500000000  0.4773140000000  0.5125760000000 1.0
C      1  0.4873530000000  0.4810290000000  0.4823090000000 1.0
C      1  0.4873560000000  0.5109630000000  0.4764890000000 1.0
C      1  0.4434470000000  0.5488400000000  0.4950620000000 1.0
C      1  0.4434410000000  0.5197890000000  0.5449150000000 1.0
C      1  0.4434360000000  0.4633980000000  0.5326920000000 1.0
C      1  0.4434390000000  0.4575980000000  0.4752840000000 1.0
C      1  0.4434460000000  0.5104030000000  0.4520270000000 1.0
C      1  0.5415980000000  0.5267950000000  0.5034810000000 1.0
C      1  0.5415940000000  0.5049700000000  0.5265660000000 1.0
C      1  0.5415920000000  0.4762700000000  0.5129420000000 1.0
C      1  0.5415950000000  0.4803590000000  0.4814370000000 1.0
C      1  0.5415980000000  0.5115850000000  0.4755900000000 1.0
C      1  0.4287620000000  0.4814750000000  0.5166560000000 1.0
C      1  0.4287640000000  0.4784350000000  0.4875190000000 1.0
C      1  0.4287670000000  0.5052070000000  0.4756230000000 1.0
C      1  0.4287680000000  0.5247930000000  0.4974090000000 1.0
C      1  0.4287650000000  0.5101260000000  0.5227680000000 1.0
C      1  0.4919580000000  0.4406830000000  0.5454450000000 1.0
C      1  0.4919640000000  0.4384490000000  0.4576280000000 1.0
C      1  0.4919750000000  0.5212780000000  0.4283670000000 1.0
C      1  0.4919750000000  0.5747020000000  0.4980990000000 1.0
C      1  0.4919650000000  0.5248920000000  0.5704580000000 1.0
C      1  0.5550460000000  0.4593700000000  0.5350810000000 1.0
C      1  0.5550490000000  0.4540810000000  0.4722070000000 1.0
C      1  0.5550570000000  0.5122430000000  0.4477480000000 1.0
C      1  0.5550580000000  0.5534780000000  0.4955050000000 1.0
C      1  0.5550510000000  0.5208010000000  0.5494800000000 1.0
C      1  0.4711050000000  0.4555220000000  0.4714650000000 1.0
C      1  0.4711120000000  0.5133940000000  0.4488760000000 1.0
C      1  0.4711130000000  0.5527600000000  0.4969360000000 1.0
C      1  0.4711060000000  0.5192180000000  0.5492270000000 1.0
C      1  0.4711010000000  0.4591210000000  0.5334850000000 1.0
END
