TITL C-2323486-8761-170 -0.000460116098379338 125000 -340.787073093697 0 0 60 (C1) n - 1
REM
REM in /home/bkarasulu/CARBON/AIRSS/Generating-Clusters/LCBOP/Higher-Symm/Only-C60/SD-CG/FIRE-HFTN
REM
REM
REM
REM
REM
REM ./C.cell (50c204cfd26239f34c78669fe23a5462)
REM
REM compiler GCC version 9.2.1 20190827 (Red Hat 9.2.1-1)
REM options -cpp -mtune=generic -march=x86-64 -g -O0 -fpre-include=/usr/include/finclude/math-vector-fortran.h
REM seed 1752141115 -2139562542 -1572244393 -1141697837 -474738240 2070284136 -1829840817 -324736873 -1260460400 1364197470 1372296155 -412794866 -239184715 1624374962 -663015541 -1943155233 517523038 1112342164 112235795 1502774685 1056067940 2145646081 1116709277 -146083834 -1271156411 1845073184 1134007206 -595226050 -472211818 -295819806 174427847 729462361 1143235174
REM
CELL 1.54180   50.00000   50.00000   50.00000   90.00000   90.00000   90.00000
LATT -1
SFAC C  
C      1  0.4946130000000  0.4689110000000  0.4500730000000 1.0
C      1  0.5239320000000  0.5072700000000  0.4691470000000 1.0
C      1  0.4790170000000  0.5155240000000  0.4721300000000 1.0
C      1  0.4293550000000  0.4974780000000  0.4561990000000 1.0
C      1  0.5367080000000  0.4381270000000  0.4616730000000 1.0
C      1  0.5337740000000  0.5606780000000  0.4599520000000 1.0
C      1  0.4735790000000  0.4901980000000  0.5662880000000 1.0
C      1  0.5009400000000  0.4794710000000  0.5677530000000 1.0
C      1  0.5191160000000  0.5575520000000  0.5629570000000 1.0
C      1  0.5198720000000  0.4321730000000  0.4846810000000 1.0
C      1  0.5455760000000  0.5511150000000  0.4847900000000 1.0
C      1  0.4298780000000  0.5141240000000  0.4801480000000 1.0
C      1  0.5248320000000  0.5062710000000  0.4961140000000 1.0
C      1  0.4774880000000  0.5197860000000  0.4987250000000 1.0
C      1  0.4925950000000  0.4718110000000  0.4767900000000 1.0
C      1  0.5271240000000  0.5604960000000  0.5052720000000 1.0
C      1  0.4293640000000  0.4948490000000  0.5020090000000 1.0
C      1  0.5347940000000  0.4435400000000  0.5070440000000 1.0
C      1  0.5733150000000  0.5031860000000  0.4755000000000 1.0
C      1  0.4585780000000  0.5608330000000  0.4686410000000 1.0
C      1  0.4642280000000  0.4312220000000  0.4722140000000 1.0
C      1  0.4926760000000  0.5554780000000  0.5590920000000 1.0
C      1  0.4618480000000  0.4750030000000  0.5446480000000 1.0
C      1  0.5232920000000  0.4963020000000  0.5679770000000 1.0
C      1  0.5564840000000  0.4573350000000  0.4610640000000 1.0
C      1  0.5074480000000  0.5681900000000  0.4567550000000 1.0
C      1  0.4366340000000  0.4709090000000  0.4548710000000 1.0
C      1  0.5543640000000  0.4630230000000  0.5064870000000 1.0
C      1  0.5007240000000  0.5679500000000  0.5019790000000 1.0
C      1  0.4358390000000  0.4679830000000  0.5004430000000 1.0
C      1  0.4823340000000  0.4611560000000  0.5295560000000 1.0
C      1  0.5343580000000  0.5143730000000  0.5494130000000 1.0
C      1  0.4747930000000  0.5354530000000  0.5507820000000 1.0
C      1  0.5410980000000  0.5405690000000  0.5584060000000 1.0
C      1  0.4656310000000  0.5168190000000  0.5703940000000 1.0
C      1  0.5023710000000  0.4559590000000  0.5503660000000 1.0
C      1  0.4743480000000  0.4325790000000  0.4246580000000 1.0
C      1  0.5560180000000  0.5082840000000  0.4314690000000 1.0
C      1  0.4667450000000  0.5369130000000  0.4286580000000 1.0
C      1  0.5781820000000  0.5056150000000  0.4471680000000 1.0
C      1  0.4566570000000  0.5596870000000  0.4398500000000 1.0
C      1  0.4619480000000  0.4205070000000  0.4456290000000 1.0
C      1  0.4451860000000  0.4535860000000  0.4770550000000 1.0
C      1  0.5647010000000  0.4757030000000  0.4826010000000 1.0
C      1  0.4860660000000  0.5681300000000  0.4770440000000 1.0
C      1  0.4769160000000  0.5179970000000  0.4452320000000 1.0
C      1  0.4891090000000  0.4550870000000  0.4276390000000 1.0
C      1  0.5315810000000  0.5085480000000  0.4432340000000 1.0
C      1  0.4881900000000  0.4681320000000  0.5030980000000 1.0
C      1  0.5314110000000  0.5087240000000  0.5219780000000 1.0
C      1  0.4727190000000  0.5287050000000  0.5235120000000 1.0
C      1  0.5647290000000  0.5292140000000  0.4865880000000 1.0
C      1  0.4393480000000  0.5417620000000  0.4806160000000 1.0
C      1  0.4912690000000  0.4262430000000  0.4835250000000 1.0
C      1  0.5264370000000  0.4098410000000  0.5635510000000 1.0
C      1  0.5923190000000  0.5560440000000  0.5642900000000 1.0
C      1  0.4350330000000  0.5320840000000  0.6120140000000 1.0
C      1  0.5153500000000  0.4322800000000  0.5562840000000 1.0
C      1  0.5674220000000  0.5486610000000  0.5621110000000 1.0
C      1  0.4497440000000  0.5245610000000  0.5918610000000 1.0
END
