TITL C-2323478-8180-228 -0.00953065996119526 125000 -344.978963822042 0 0 60 (C2) n - 1
REM
REM in /home/bkarasulu/CARBON/AIRSS/Generating-Clusters/LCBOP/Higher-Symm/Only-C60/SD-CG/FIRE-HFTN
REM
REM
REM
REM
REM
REM ./C.cell (50c204cfd26239f34c78669fe23a5462)
REM
REM compiler GCC version 9.2.1 20190827 (Red Hat 9.2.1-1)
REM options -cpp -mtune=generic -march=x86-64 -g -O0 -fpre-include=/usr/include/finclude/math-vector-fortran.h
REM seed -362998809 1222212267 970097812 663018421 -1557551859 -1760511235 430832833 754986372 1405115844 -258541415 -1657149557 856811117 -828128244 -1554653663 -1157105411 365444884 -531001912 943622549 188472399 -2039460192 1318061032 -856335290 -660547755 1334865534 755316506 -1704700711 -229659746 707055662 802686892 -743157014 -50654743 167777398 574069986
REM
CELL 1.54180   50.00000   50.00000   50.00000   90.00000   90.00000   90.00000
LATT -1
SFAC C  
C      1  0.5674450000000  0.5201160000000  0.4623260000000 1.0
C      1  0.4828680000000  0.4326240000000  0.4626620000000 1.0
C      1  0.4492240000000  0.5493380000000  0.4620020000000 1.0
C      1  0.5674450000000  0.4810830000000  0.5362590000000 1.0
C      1  0.4828680000000  0.5685750000000  0.5359230000000 1.0
C      1  0.4492240000000  0.4518610000000  0.5365830000000 1.0
C      1  0.4748820000000  0.5439570000000  0.5485250000000 1.0
C      1  0.5501580000000  0.5003790000000  0.5488780000000 1.0
C      1  0.4746370000000  0.4571150000000  0.5491750000000 1.0
C      1  0.4748820000000  0.4572420000000  0.4500600000000 1.0
C      1  0.5501580000000  0.5008200000000  0.4497070000000 1.0
C      1  0.4746370000000  0.5440830000000  0.4494100000000 1.0
C      1  0.5194410000000  0.4678070000000  0.5384390000000 1.0
C      1  0.4617800000000  0.4997670000000  0.5384750000000 1.0
C      1  0.5184950000000  0.5336960000000  0.5381160000000 1.0
C      1  0.5194400000000  0.5333920000000  0.4601460000000 1.0
C      1  0.4617800000000  0.5014310000000  0.4601100000000 1.0
C      1  0.5184950000000  0.4675030000000  0.4604690000000 1.0
C      1  0.4837280000000  0.4263790000000  0.4906800000000 1.0
C      1  0.4431370000000  0.5512480000000  0.4900910000000 1.0
C      1  0.5724900000000  0.5240120000000  0.4903510000000 1.0
C      1  0.4837280000000  0.5748200000000  0.5079050000000 1.0
C      1  0.4431370000000  0.4499500000000  0.5084940000000 1.0
C      1  0.5724900000000  0.4771870000000  0.5082340000000 1.0
C      1  0.5071100000000  0.5318390000000  0.5134110000000 1.0
C      1  0.5240150000000  0.4784910000000  0.5137960000000 1.0
C      1  0.4691830000000  0.4902860000000  0.5140250000000 1.0
C      1  0.5071100000000  0.4693600000000  0.4851740000000 1.0
C      1  0.5240150000000  0.5227080000000  0.4847890000000 1.0
C      1  0.4691830000000  0.5109130000000  0.4845600000000 1.0
C      1  0.5052730000000  0.4330380000000  0.5098660000000 1.0
C      1  0.4382540000000  0.5287500000000  0.5093140000000 1.0
C      1  0.5557270000000  0.5395670000000  0.5096880000000 1.0
C      1  0.5052730000000  0.5681610000000  0.4887190000000 1.0
C      1  0.4382540000000  0.4724490000000  0.4892720000000 1.0
C      1  0.5557270000000  0.4616320000000  0.4888970000000 1.0
C      1  0.4993400000000  0.5537950000000  0.4623720000000 1.0
C      1  0.5463350000000  0.4744880000000  0.4625430000000 1.0
C      1  0.4539910000000  0.4738720000000  0.4627590000000 1.0
C      1  0.4993410000000  0.4474030000000  0.5362130000000 1.0
C      1  0.5463350000000  0.5267110000000  0.5360420000000 1.0
C      1  0.4539910000000  0.5273270000000  0.5358270000000 1.0
C      1  0.4761530000000  0.5156630000000  0.4395130000000 1.0
C      1  0.5247920000000  0.5136760000000  0.4397720000000 1.0
C      1  0.4987460000000  0.4726100000000  0.4400760000000 1.0
C      1  0.4761530000000  0.4855360000000  0.5590720000000 1.0
C      1  0.5247920000000  0.4875220000000  0.5588130000000 1.0
C      1  0.4987470000000  0.5285890000000  0.5585100000000 1.0
C      1  0.4248460000000  0.5005990000000  0.4992930000000 1.0
C      1  0.5386630000000  0.4360670000000  0.4987090000000 1.0
C      1  0.5386630000000  0.5651320000000  0.4998760000000 1.0
C      1  0.4565880000000  0.5747380000000  0.4991460000000 1.0
C      1  0.5860590000000  0.5006000000000  0.4992920000000 1.0
C      1  0.4565880000000  0.4264600000000  0.4994390000000 1.0
C      1  0.3975020000000  0.5005990000000  0.4992930000000 1.0
C      1  0.5518110000000  0.4123090000000  0.4985760000000 1.0
C      1  0.5518110000000  0.5888900000000  0.5000090000000 1.0
C      1  0.4999310000000  0.5005850000000  0.4318790000000 1.0
C      1  0.4999310000000  0.5006140000000  0.5667060000000 1.0
C      1  0.4990950000000  0.5005990000000  0.4992930000000 1.0
END
