TITL C-2323478-8180-344 1.96061299750717e-05 125000 -359.48340492562 0 0 60 (C1) n - 1
REM
REM in /home/bkarasulu/CARBON/AIRSS/Generating-Clusters/LCBOP/Higher-Symm/Only-C60/SD-CG/FIRE-HFTN
REM
REM
REM
REM
REM
REM ./C.cell (50c204cfd26239f34c78669fe23a5462)
REM
REM compiler GCC version 9.2.1 20190827 (Red Hat 9.2.1-1)
REM options -cpp -mtune=generic -march=x86-64 -g -O0 -fpre-include=/usr/include/finclude/math-vector-fortran.h
REM seed -1526046122 124163437 1949194462 1865582529 -690748719 -1617291358 -545683550 312421251 -2119202646 -1342310974 -1286483782 -542288948 -123374892 2009523175 874827923 687870267 -1989630092 1933430739 -711015186 -1570217962 772959299 -1420749144 490923940 -893780403 -426162465 285902111 -112758406 1691062355 -723809098 -619126480 2072973343 -46109909 -16532962
REM
CELL 1.54180   50.00000   50.00000   50.00000   90.00000   90.00000   90.00000
LATT -1
SFAC C  
C      1  0.4823130000000  0.4594570000000  0.4614840000000 1.0
C      1  0.4939190000000  0.4807680000000  0.4760750000000 1.0
C      1  0.4769270000000  0.4962370000000  0.4913170000000 1.0
C      1  0.5448690000000  0.4909590000000  0.4366650000000 1.0
C      1  0.5366380000000  0.4842360000000  0.5632590000000 1.0
C      1  0.4200910000000  0.4901150000000  0.5092740000000 1.0
C      1  0.4331840000000  0.4695600000000  0.4924950000000 1.0
C      1  0.5574400000000  0.4728030000000  0.4567030000000 1.0
C      1  0.5129660000000  0.4667640000000  0.5598820000000 1.0
C      1  0.4413110000000  0.5020400000000  0.5516050000000 1.0
C      1  0.4950330000000  0.4896580000000  0.4198760000000 1.0
C      1  0.5573880000000  0.4964330000000  0.5219910000000 1.0
C      1  0.5389740000000  0.5498030000000  0.5470080000000 1.0
C      1  0.4468270000000  0.5529520000000  0.5144960000000 1.0
C      1  0.5198700000000  0.5538370000000  0.4512090000000 1.0
C      1  0.5081050000000  0.5566400000000  0.4770080000000 1.0
C      1  0.5232680000000  0.5554090000000  0.5237680000000 1.0
C      1  0.4751770000000  0.5564370000000  0.5136640000000 1.0
C      1  0.4950960000000  0.5522820000000  0.5333870000000 1.0
C      1  0.4816880000000  0.5519060000000  0.4850160000000 1.0
C      1  0.5302340000000  0.5534360000000  0.4964130000000 1.0
C      1  0.5202050000000  0.4877730000000  0.4828050000000 1.0
C      1  0.4789470000000  0.5025820000000  0.5167230000000 1.0
C      1  0.4716010000000  0.4527590000000  0.4375040000000 1.0
C      1  0.4474590000000  0.5227770000000  0.5702120000000 1.0
C      1  0.4830000000000  0.5130060000000  0.4320430000000 1.0
C      1  0.5744090000000  0.5183360000000  0.5177020000000 1.0
C      1  0.5373370000000  0.4937250000000  0.5022020000000 1.0
C      1  0.4669590000000  0.4976520000000  0.5393560000000 1.0
C      1  0.4761420000000  0.4684320000000  0.4156570000000 1.0
C      1  0.5344140000000  0.5098350000000  0.5745200000000 1.0
C      1  0.4192920000000  0.5162380000000  0.4984940000000 1.0
C      1  0.5504330000000  0.5183970000000  0.4368470000000 1.0
C      1  0.5559130000000  0.4775840000000  0.5427030000000 1.0
C      1  0.4244620000000  0.4837030000000  0.5377210000000 1.0
C      1  0.5210680000000  0.4788150000000  0.4258030000000 1.0
C      1  0.5239940000000  0.4409280000000  0.4868010000000 1.0
C      1  0.5055920000000  0.4423280000000  0.5108400000000 1.0
C      1  0.4764100000000  0.4423480000000  0.5092240000000 1.0
C      1  0.4411270000000  0.4978930000000  0.4505630000000 1.0
C      1  0.5887320000000  0.5084470000000  0.4741810000000 1.0
C      1  0.4847340000000  0.4988940000000  0.5869740000000 1.0
C      1  0.4757220000000  0.5242190000000  0.5765110000000 1.0
C      1  0.4607990000000  0.5186780000000  0.4497110000000 1.0
C      1  0.5760900000000  0.5277520000000  0.4909230000000 1.0
C      1  0.5241080000000  0.5346500000000  0.5664000000000 1.0
C      1  0.4371760000000  0.5370700000000  0.4921790000000 1.0
C      1  0.5454760000000  0.5407990000000  0.4528120000000 1.0
C      1  0.5813730000000  0.4832780000000  0.4672150000000 1.0
C      1  0.4921950000000  0.4746400000000  0.5772230000000 1.0
C      1  0.4336420000000  0.4764990000000  0.4652200000000 1.0
C      1  0.5477910000000  0.4509000000000  0.5346350000000 1.0
C      1  0.4356450000000  0.4562860000000  0.5361340000000 1.0
C      1  0.5226520000000  0.4512300000000  0.4370540000000 1.0
C      1  0.4951370000000  0.5391120000000  0.5607410000000 1.0
C      1  0.4594050000000  0.5375980000000  0.4716760000000 1.0
C      1  0.5538640000000  0.5430710000000  0.4811850000000 1.0
C      1  0.4489800000000  0.4512630000000  0.5102990000000 1.0
C      1  0.5379340000000  0.4502290000000  0.4622860000000 1.0
C      1  0.5184640000000  0.4485450000000  0.5363250000000 1.0
END
