TITL C-2323478-8180-557 -7.60867984275666e-06 125000 -357.319464091453 0 0 60 (C1) n - 1
REM
REM in /home/bkarasulu/CARBON/AIRSS/Generating-Clusters/LCBOP/Higher-Symm/Only-C60/SD-CG/FIRE-HFTN
REM
REM
REM
REM
REM
REM ./C.cell (50c204cfd26239f34c78669fe23a5462)
REM
REM compiler GCC version 9.2.1 20190827 (Red Hat 9.2.1-1)
REM options -cpp -mtune=generic -march=x86-64 -g -O0 -fpre-include=/usr/include/finclude/math-vector-fortran.h
REM seed 1144746321 -710982183 -751379322 -751501519 1035739881 1123103897 697922588 -1219723729 -1663735947 -2033911743 42631658 -954207467 -1145946153 987827006 1369018446 -669437557 -1438683863 530800040 1457770513 -1405179751 1373006263 125931811 757145617 847857505 1835628624 1660552903 -1352483524 -846047657 212747237 -61602632 553840598 -144790453 -1329081111
REM
CELL 1.54180   50.00000   50.00000   50.00000   90.00000   90.00000   90.00000
LATT -1
SFAC C  
C      1  0.5402380000000  0.5429590000000  0.4510330000000 1.0
C      1  0.4484520000000  0.5046500000000  0.4525860000000 1.0
C      1  0.5243590000000  0.4508170000000  0.4561860000000 1.0
C      1  0.4767000000000  0.5218550000000  0.5647020000000 1.0
C      1  0.4896340000000  0.4687020000000  0.5665250000000 1.0
C      1  0.5308460000000  0.5072340000000  0.5682840000000 1.0
C      1  0.5660200000000  0.4737440000000  0.4628470000000 1.0
C      1  0.4719090000000  0.5729950000000  0.4492460000000 1.0
C      1  0.4488120000000  0.4554480000000  0.4549770000000 1.0
C      1  0.5611630000000  0.4759820000000  0.5483580000000 1.0
C      1  0.4878300000000  0.5640020000000  0.5446870000000 1.0
C      1  0.4492500000000  0.4520720000000  0.5480150000000 1.0
C      1  0.4713390000000  0.4239380000000  0.5100670000000 1.0
C      1  0.5715020000000  0.5034380000000  0.5074720000000 1.0
C      1  0.4534690000000  0.5631060000000  0.5066710000000 1.0
C      1  0.4606720000000  0.5147450000000  0.5060800000000 1.0
C      1  0.4959780000000  0.4643210000000  0.5051650000000 1.0
C      1  0.5286700000000  0.5330260000000  0.5003360000000 1.0
C      1  0.4972600000000  0.5408540000000  0.5580250000000 1.0
C      1  0.4625040000000  0.4749010000000  0.5594870000000 1.0
C      1  0.5366410000000  0.4805430000000  0.5613410000000 1.0
C      1  0.4698600000000  0.4708410000000  0.5112120000000 1.0
C      1  0.5197380000000  0.5599700000000  0.4981600000000 1.0
C      1  0.4501440000000  0.4889310000000  0.5060540000000 1.0
C      1  0.5247330000000  0.5783170000000  0.4789670000000 1.0
C      1  0.4288430000000  0.4819880000000  0.4891540000000 1.0
C      1  0.5637740000000  0.4255240000000  0.4705530000000 1.0
C      1  0.5158980000000  0.4609990000000  0.5591180000000 1.0
C      1  0.5253880000000  0.5334410000000  0.5588750000000 1.0
C      1  0.4552100000000  0.5036510000000  0.5580520000000 1.0
C      1  0.5156520000000  0.4841030000000  0.5033400000000 1.0
C      1  0.5120990000000  0.5116950000000  0.5055530000000 1.0
C      1  0.4866410000000  0.5194370000000  0.5122300000000 1.0
C      1  0.5600440000000  0.5267320000000  0.4670890000000 1.0
C      1  0.4469860000000  0.5322150000000  0.4646040000000 1.0
C      1  0.4994980000000  0.4383490000000  0.4672080000000 1.0
C      1  0.5474430000000  0.5467650000000  0.5457830000000 1.0
C      1  0.4318650000000  0.5160430000000  0.5450500000000 1.0
C      1  0.5209260000000  0.4377350000000  0.5433030000000 1.0
C      1  0.4360190000000  0.4802940000000  0.4619200000000 1.0
C      1  0.5518030000000  0.4489970000000  0.4635980000000 1.0
C      1  0.5360230000000  0.5704020000000  0.4556630000000 1.0
C      1  0.5566820000000  0.4994200000000  0.4559960000000 1.0
C      1  0.4704020000000  0.5460060000000  0.4528240000000 1.0
C      1  0.4768810000000  0.4526170000000  0.4527290000000 1.0
C      1  0.5585020000000  0.5292810000000  0.4986410000000 1.0
C      1  0.4423130000000  0.5363100000000  0.4989610000000 1.0
C      1  0.4980050000000  0.4351100000000  0.4978320000000 1.0
C      1  0.5187700000000  0.5252560000000  0.4412990000000 1.0
C      1  0.4751470000000  0.5013620000000  0.4407820000000 1.0
C      1  0.5167000000000  0.4747940000000  0.4412420000000 1.0
C      1  0.5736240000000  0.4849110000000  0.5264940000000 1.0
C      1  0.4706500000000  0.5718590000000  0.5255330000000 1.0
C      1  0.4548730000000  0.4319170000000  0.5304070000000 1.0
C      1  0.5183190000000  0.4263700000000  0.5185890000000 1.0
C      1  0.5647190000000  0.5465130000000  0.5241530000000 1.0
C      1  0.4227430000000  0.5307880000000  0.5227590000000 1.0
C      1  0.4883900000000  0.4763320000000  0.4399050000000 1.0
C      1  0.5313270000000  0.4987620000000  0.4416400000000 1.0
C      1  0.4901200000000  0.5266300000000  0.4426390000000 1.0
END
