TITL C-2323480-5884-325 14876.6580944635 125000 -348.996710870612 0 0 60 (C1) n - 1
REM
REM in /home/bkarasulu/CARBON/AIRSS/Generating-Clusters/LCBOP/Higher-Symm/Only-C60/SD-CG/FIRE-HFTN
REM
REM
REM
REM
REM
REM ./C.cell (50c204cfd26239f34c78669fe23a5462)
REM
REM compiler GCC version 9.2.1 20190827 (Red Hat 9.2.1-1)
REM options -cpp -mtune=generic -march=x86-64 -g -O0 -fpre-include=/usr/include/finclude/math-vector-fortran.h
REM seed 1093965686 -2017595498 -494513232 1424815759 515100422 -1086707298 -479336780 -948382719 739991046 474538500 -1427783353 1390307860 626750273 1891686311 -1255479389 1379567901 1339170587 -200996178 1986771612 -617625259 -204514593 -953634806 335078987 739391704 -1307530510 1298465728 -1423284473 -1682707885 -821596566 -857242814 1875448247 683636435 1889445308
REM
CELL 1.54180   50.00000   50.00000   50.00000   90.00000   90.00000   90.00000
LATT -1
SFAC C  
C      1  0.5672980000000  0.5266490000000  0.5500610000000 1.0
C      1  0.4290990000000  0.4717690000000  0.5483880000000 1.0
C      1  0.5721800000000  0.5275920000000  0.4493500000000 1.0
C      1  0.4282700000000  0.4722690000000  0.4528830000000 1.0
C      1  0.5677180000000  0.4737970000000  0.5505360000000 1.0
C      1  0.4287580000000  0.5279420000000  0.5486650000000 1.0
C      1  0.5706790000000  0.4724350000000  0.4484270000000 1.0
C      1  0.4297210000000  0.5279190000000  0.4519370000000 1.0
C      1  0.4877050000000  0.5361530000000  0.5642080000000 1.0
C      1  0.5113590000000  0.4615220000000  0.5795420000000 1.0
C      1  0.4866600000000  0.5338590000000  0.4302860000000 1.0
C      1  0.5123900000000  0.4664340000000  0.4292960000000 1.0
C      1  0.4877860000000  0.4638270000000  0.5642490000000 1.0
C      1  0.5112180000000  0.5388380000000  0.5794890000000 1.0
C      1  0.4854540000000  0.4647780000000  0.4358240000000 1.0
C      1  0.5139730000000  0.5354490000000  0.4349370000000 1.0
C      1  0.5127330000000  0.5496720000000  0.5234470000000 1.0
C      1  0.4881030000000  0.4559940000000  0.5359940000000 1.0
C      1  0.5148740000000  0.5437090000000  0.4631720000000 1.0
C      1  0.4862850000000  0.4560510000000  0.4640360000000 1.0
C      1  0.5133210000000  0.4501560000000  0.5243450000000 1.0
C      1  0.4879160000000  0.5437170000000  0.5359210000000 1.0
C      1  0.5137260000000  0.4531060000000  0.4681040000000 1.0
C      1  0.4878630000000  0.5467590000000  0.4693570000000 1.0
C      1  0.4649080000000  0.4782860000000  0.4229120000000 1.0
C      1  0.5339310000000  0.5219420000000  0.4210980000000 1.0
C      1  0.4675120000000  0.4798000000000  0.5751680000000 1.0
C      1  0.5354100000000  0.5291230000000  0.5853910000000 1.0
C      1  0.4655770000000  0.5193240000000  0.4214610000000 1.0
C      1  0.5331590000000  0.4809510000000  0.4197240000000 1.0
C      1  0.4674560000000  0.5201220000000  0.5752100000000 1.0
C      1  0.5354170000000  0.4715430000000  0.5855050000000 1.0
C      1  0.5587460000000  0.4703880000000  0.4724880000000 1.0
C      1  0.4429900000000  0.5303580000000  0.4751870000000 1.0
C      1  0.5572480000000  0.4710400000000  0.5259540000000 1.0
C      1  0.4421380000000  0.5305040000000  0.5254290000000 1.0
C      1  0.5596150000000  0.5287970000000  0.4731730000000 1.0
C      1  0.4420870000000  0.4700060000000  0.4758700000000 1.0
C      1  0.5567870000000  0.5293050000000  0.5254970000000 1.0
C      1  0.4425910000000  0.4687610000000  0.5252690000000 1.0
C      1  0.4706360000000  0.5268890000000  0.5170810000000 1.0
C      1  0.5302470000000  0.4725520000000  0.5135750000000 1.0
C      1  0.4710540000000  0.5277390000000  0.4853980000000 1.0
C      1  0.5309770000000  0.4726630000000  0.4826680000000 1.0
C      1  0.4710840000000  0.4727070000000  0.5165300000000 1.0
C      1  0.5298550000000  0.5273410000000  0.5128130000000 1.0
C      1  0.4709250000000  0.4729090000000  0.4844110000000 1.0
C      1  0.5311780000000  0.5261860000000  0.4817760000000 1.0
C      1  0.5561850000000  0.4860260000000  0.5733000000000 1.0
C      1  0.4404290000000  0.5145820000000  0.5703380000000 1.0
C      1  0.5597200000000  0.4861440000000  0.4265610000000 1.0
C      1  0.4394190000000  0.5140350000000  0.4296300000000 1.0
C      1  0.5560910000000  0.5146140000000  0.5730930000000 1.0
C      1  0.4405130000000  0.4852020000000  0.5701670000000 1.0
C      1  0.5604750000000  0.5152990000000  0.4270230000000 1.0
C      1  0.4387230000000  0.4849310000000  0.4301750000000 1.0
C      1  0.4853200000000  0.4998420000000  0.5214740000000 1.0
C      1  0.5156280000000  0.4993370000000  0.4768350000000 1.0
C      1  0.5152820000000  0.4999410000000  0.5205190000000 1.0
C      1  0.4855940000000  0.5004150000000  0.4788410000000 1.0
END
