TITL C-2323478-8180-48 0.0397525066227347 125000 -357.192569709379 0 0 60 (C1) n - 1
REM
REM in /home/bkarasulu/CARBON/AIRSS/Generating-Clusters/LCBOP/Higher-Symm/Only-C60/SD-CG/FIRE-HFTN
REM
REM
REM
REM
REM
REM ./C.cell (50c204cfd26239f34c78669fe23a5462)
REM
REM compiler GCC version 9.2.1 20190827 (Red Hat 9.2.1-1)
REM options -cpp -mtune=generic -march=x86-64 -g -O0 -fpre-include=/usr/include/finclude/math-vector-fortran.h
REM seed 1392574987 -492146068 -1861845744 1208902750 -452521571 -1088629730 -956846506 1224262740 -1986358783 1681494974 -301371039 -396379188 705252212 -1640032472 455090760 331988442 -925827932 1503561423 -1548554025 486933057 1009107438 -66499674 -1297973310 -687486075 -1707129292 1569663935 -141369032 -590741187 203935043 581470316 -1248481129 1968813006 1823412450
REM
CELL 1.54180   50.00000   50.00000   50.00000   90.00000   90.00000   90.00000
LATT -1
SFAC C  
C      1  0.4759640000000  0.4802900000000  0.4497310000000 1.0
C      1  0.4546970000000  0.4655120000000  0.4609670000000 1.0
C      1  0.5585980000000  0.5557010000000  0.4706330000000 1.0
C      1  0.4674350000000  0.5732940000000  0.5339110000000 1.0
C      1  0.5675100000000  0.5606060000000  0.4953120000000 1.0
C      1  0.4615480000000  0.4639500000000  0.5149860000000 1.0
C      1  0.4883310000000  0.5453480000000  0.5029440000000 1.0
C      1  0.5246380000000  0.4390940000000  0.5753420000000 1.0
C      1  0.4554440000000  0.4927640000000  0.3926970000000 1.0
C      1  0.5539110000000  0.4744080000000  0.4510620000000 1.0
C      1  0.5223410000000  0.4904160000000  0.4951150000000 1.0
C      1  0.5452650000000  0.4925880000000  0.5086200000000 1.0
C      1  0.5963700000000  0.4540010000000  0.4609440000000 1.0
C      1  0.5367480000000  0.4923350000000  0.4412590000000 1.0
C      1  0.5158350000000  0.5370700000000  0.4442630000000 1.0
C      1  0.4244230000000  0.6179520000000  0.4805820000000 1.0
C      1  0.4893960000000  0.4969590000000  0.4313360000000 1.0
C      1  0.4568210000000  0.5105880000000  0.5187570000000 1.0
C      1  0.4928690000000  0.5535030000000  0.4462070000000 1.0
C      1  0.5696350000000  0.4565620000000  0.4662700000000 1.0
C      1  0.4620850000000  0.5788850000000  0.4820680000000 1.0
C      1  0.5148630000000  0.5514010000000  0.5015740000000 1.0
C      1  0.5622800000000  0.4358370000000  0.5395040000000 1.0
C      1  0.4251710000000  0.4634490000000  0.4186960000000 1.0
C      1  0.5673950000000  0.4393000000000  0.5134560000000 1.0
C      1  0.4535140000000  0.4673340000000  0.5785350000000 1.0
C      1  0.4988410000000  0.4674760000000  0.5472120000000 1.0
C      1  0.4792720000000  0.5187580000000  0.5036150000000 1.0
C      1  0.4747990000000  0.5689260000000  0.4586670000000 1.0
C      1  0.5096180000000  0.4242900000000  0.4950950000000 1.0
C      1  0.5326270000000  0.4292050000000  0.4827550000000 1.0
C      1  0.4335750000000  0.4586630000000  0.4436910000000 1.0
C      1  0.4703380000000  0.5670080000000  0.5065380000000 1.0
C      1  0.5660030000000  0.5601540000000  0.5219580000000 1.0
C      1  0.4974400000000  0.4997670000000  0.4936590000000 1.0
C      1  0.5557430000000  0.5509420000000  0.5465750000000 1.0
C      1  0.4542080000000  0.4595960000000  0.4883150000000 1.0
C      1  0.5540780000000  0.5055380000000  0.5303020000000 1.0
C      1  0.4801860000000  0.5614740000000  0.5546990000000 1.0
C      1  0.5152430000000  0.5210410000000  0.5542410000000 1.0
C      1  0.4978280000000  0.5422110000000  0.5610860000000 1.0
C      1  0.4934160000000  0.4272850000000  0.5176310000000 1.0
C      1  0.4428130000000  0.5988840000000  0.4809690000000 1.0
C      1  0.4762010000000  0.4546520000000  0.5863420000000 1.0
C      1  0.5405760000000  0.5477280000000  0.4526480000000 1.0
C      1  0.5142490000000  0.5091050000000  0.4380400000000 1.0
C      1  0.5424670000000  0.5257560000000  0.5462550000000 1.0
C      1  0.5051180000000  0.4949110000000  0.5496090000000 1.0
C      1  0.4856700000000  0.4533660000000  0.5258490000000 1.0
C      1  0.4063260000000  0.6367150000000  0.4802700000000 1.0
C      1  0.4772870000000  0.5004510000000  0.4061850000000 1.0
C      1  0.4437500000000  0.4803170000000  0.5569570000000 1.0
C      1  0.5472090000000  0.4344400000000  0.5615650000000 1.0
C      1  0.5576920000000  0.4410750000000  0.4869920000000 1.0
C      1  0.4845720000000  0.4049210000000  0.5318020000000 1.0
C      1  0.4765080000000  0.3851430000000  0.5467330000000 1.0
C      1  0.4339150000000  0.4774970000000  0.3975640000000 1.0
C      1  0.5587860000000  0.5652850000000  0.5696010000000 1.0
C      1  0.4501700000000  0.4855740000000  0.5299410000000 1.0
C      1  0.5003880000000  0.4526940000000  0.5718690000000 1.0
END
