TITL C-2323482-8828-116 8.56567330152458e-06 125000 -361.042823543096 0 0 60 (C1) n - 1
REM
REM in /home/bkarasulu/CARBON/AIRSS/Generating-Clusters/LCBOP/Higher-Symm/Only-C60/SD-CG/FIRE-HFTN
REM
REM
REM
REM
REM
REM ./C.cell (50c204cfd26239f34c78669fe23a5462)
REM
REM compiler GCC version 9.2.1 20190827 (Red Hat 9.2.1-1)
REM options -cpp -mtune=generic -march=x86-64 -g -O0 -fpre-include=/usr/include/finclude/math-vector-fortran.h
REM seed -449781602 868229260 -1227982310 1792760526 -652635680 1296249792 1281221214 -2091717452 30953646 -467051160 1906398619 250508708 2065118116 -2053854651 -260718981 -2076850573 -1613103616 -1774666013 1138247950 1032292669 1342338273 2033597133 -1494356038 1678356284 -1656377342 1363363057 -2101131340 -1153825298 -120824575 2037909280 -2006140730 1999250864 -655659828
REM
CELL 1.54180   50.00000   50.00000   50.00000   90.00000   90.00000   90.00000
LATT -1
SFAC C  
C      1  0.4335210000000  0.4776720000000  0.5135820000000 1.0
C      1  0.4922200000000  0.4354630000000  0.4671770000000 1.0
C      1  0.4638840000000  0.4981220000000  0.4232640000000 1.0
C      1  0.5682940000000  0.5359340000000  0.5147740000000 1.0
C      1  0.5528110000000  0.4640790000000  0.5064700000000 1.0
C      1  0.4221550000000  0.5221380000000  0.5042660000000 1.0
C      1  0.4887830000000  0.5558640000000  0.4668260000000 1.0
C      1  0.4927480000000  0.4497970000000  0.5317400000000 1.0
C      1  0.4964020000000  0.5622150000000  0.5246370000000 1.0
C      1  0.5387010000000  0.5139940000000  0.4402690000000 1.0
C      1  0.5659570000000  0.4817540000000  0.5666390000000 1.0
C      1  0.4760600000000  0.5101560000000  0.5602190000000 1.0
C      1  0.4515040000000  0.4377520000000  0.4942330000000 1.0
C      1  0.4454630000000  0.4949600000000  0.4659420000000 1.0
C      1  0.5055230000000  0.4742370000000  0.4394000000000 1.0
C      1  0.5347660000000  0.5599500000000  0.4873900000000 1.0
C      1  0.4558090000000  0.5598150000000  0.5065810000000 1.0
C      1  0.5230460000000  0.4272310000000  0.5007770000000 1.0
C      1  0.5712560000000  0.5048570000000  0.4795710000000 1.0
C      1  0.4343890000000  0.4926760000000  0.5393020000000 1.0
C      1  0.5730840000000  0.5089000000000  0.5265060000000 1.0
C      1  0.4992690000000  0.5316510000000  0.4288980000000 1.0
C      1  0.5185100000000  0.5370790000000  0.5583910000000 1.0
C      1  0.5200420000000  0.4900270000000  0.5551080000000 1.0
C      1  0.5416120000000  0.4713020000000  0.5570280000000 1.0
C      1  0.4700870000000  0.5548890000000  0.5318690000000 1.0
C      1  0.4653890000000  0.5354970000000  0.5515800000000 1.0
C      1  0.5243790000000  0.5400400000000  0.4404380000000 1.0
C      1  0.5185480000000  0.4360980000000  0.5283280000000 1.0
C      1  0.5802210000000  0.5313500000000  0.4881510000000 1.0
C      1  0.4767840000000  0.4749250000000  0.4345310000000 1.0
C      1  0.4593880000000  0.4693760000000  0.4577290000000 1.0
C      1  0.4196320000000  0.5161290000000  0.5325850000000 1.0
C      1  0.5423360000000  0.4537600000000  0.5336550000000 1.0
C      1  0.5184270000000  0.5557980000000  0.4643840000000 1.0
C      1  0.4656580000000  0.4452680000000  0.4711510000000 1.0
C      1  0.4765210000000  0.5372130000000  0.4467990000000 1.0
C      1  0.4594250000000  0.4865980000000  0.5528910000000 1.0
C      1  0.4658790000000  0.4547330000000  0.5398680000000 1.0
C      1  0.5791030000000  0.5008130000000  0.5526870000000 1.0
C      1  0.5466630000000  0.5061440000000  0.4657580000000 1.0
C      1  0.4562870000000  0.5160990000000  0.4458050000000 1.0
C      1  0.5140880000000  0.4555960000000  0.4610190000000 1.0
C      1  0.5351160000000  0.4509900000000  0.4849500000000 1.0
C      1  0.4319700000000  0.5477480000000  0.4987150000000 1.0
C      1  0.4468790000000  0.4528340000000  0.5173660000000 1.0
C      1  0.5432380000000  0.5516530000000  0.5142040000000 1.0
C      1  0.5213580000000  0.5522880000000  0.5339440000000 1.0
C      1  0.5142420000000  0.4925540000000  0.5272590000000 1.0
C      1  0.5243850000000  0.5069810000000  0.4833350000000 1.0
C      1  0.5286660000000  0.5083570000000  0.5105090000000 1.0
C      1  0.4971450000000  0.5068080000000  0.4783160000000 1.0
C      1  0.4768670000000  0.5119640000000  0.4940440000000 1.0
C      1  0.4974520000000  0.4736940000000  0.5164600000000 1.0
C      1  0.4310290000000  0.4970390000000  0.4908460000000 1.0
C      1  0.5028250000000  0.4156130000000  0.4846520000000 1.0
C      1  0.5193480000000  0.4967420000000  0.4289860000000 1.0
C      1  0.5696600000000  0.4879540000000  0.5044170000000 1.0
C      1  0.4769100000000  0.5662400000000  0.4896150000000 1.0
C      1  0.5052180000000  0.5120140000000  0.5654750000000 1.0
END
