TITL C-2323477-5056-349 3.01171767055642 125000 -351.249480216168 0 0 60 (C1) n - 1
REM
REM in /home/bkarasulu/CARBON/AIRSS/Generating-Clusters/LCBOP/Higher-Symm/Only-C60/SD-CG/FIRE-HFTN
REM
REM
REM
REM
REM
REM ./C.cell (50c204cfd26239f34c78669fe23a5462)
REM
REM compiler GCC version 9.2.1 20190827 (Red Hat 9.2.1-1)
REM options -cpp -mtune=generic -march=x86-64 -g -O0 -fpre-include=/usr/include/finclude/math-vector-fortran.h
REM seed 798534535 205121815 -35288641 1387596962 1318957738 -376610851 -893291904 -1433362965 1554557006 1585220086 1837504776 1415269150 -1675959700 -727531636 -2141367004 2007698848 -523772803 2033003196 -426925123 -1275979808 262680499 41772782 -1822256456 438100893 1540730174 1090090161 1106066538 892627981 -403544769 1857297844 -317591881 -1573094752 537678099
REM
CELL 1.54180   50.00000   50.00000   50.00000   90.00000   90.00000   90.00000
LATT -1
SFAC C  
C      1  0.5541950000000  0.4852640000000  0.5283700000000 1.0
C      1  0.4887200000000  0.5521320000000  0.5294160000000 1.0
C      1  0.4628100000000  0.4626000000000  0.5289000000000 1.0
C      1  0.5527040000000  0.4815870000000  0.4756490000000 1.0
C      1  0.4866990000000  0.5525210000000  0.4770870000000 1.0
C      1  0.4640910000000  0.4598510000000  0.4756720000000 1.0
C      1  0.4877870000000  0.4418200000000  0.4659540000000 1.0
C      1  0.5518030000000  0.5146440000000  0.4608700000000 1.0
C      1  0.4612080000000  0.5395420000000  0.4658800000000 1.0
C      1  0.4870120000000  0.4486560000000  0.5429110000000 1.0
C      1  0.5560270000000  0.5139230000000  0.5390600000000 1.0
C      1  0.4637250000000  0.5398620000000  0.5417680000000 1.0
C      1  0.5152430000000  0.5470100000000  0.4760720000000 1.0
C      1  0.4534730000000  0.4883520000000  0.4728820000000 1.0
C      1  0.5354800000000  0.4577110000000  0.4778730000000 1.0
C      1  0.5173200000000  0.5456430000000  0.5286680000000 1.0
C      1  0.4521490000000  0.4898520000000  0.5270840000000 1.0
C      1  0.5350340000000  0.4630270000000  0.5306490000000 1.0
C      1  0.5778840000000  0.5260770000000  0.5241160000000 1.0
C      1  0.4410870000000  0.5536790000000  0.5301550000000 1.0
C      1  0.4852670000000  0.4214540000000  0.5316530000000 1.0
C      1  0.5754480000000  0.5253400000000  0.4732280000000 1.0
C      1  0.4394440000000  0.5533080000000  0.4793740000000 1.0
C      1  0.4849580000000  0.4168200000000  0.4807170000000 1.0
C      1  0.5201950000000  0.5500490000000  0.4081100000000 1.0
C      1  0.4535860000000  0.5109030000000  0.4048200000000 1.0
C      1  0.5226290000000  0.4608490000000  0.4104270000000 1.0
C      1  0.5298230000000  0.5365820000000  0.5976590000000 1.0
C      1  0.4321900000000  0.5025010000000  0.5963110000000 1.0
C      1  0.5254750000000  0.4627640000000  0.5993650000000 1.0
C      1  0.4683010000000  0.5118110000000  0.4276410000000 1.0
C      1  0.5150230000000  0.4668410000000  0.4356790000000 1.0
C      1  0.5157470000000  0.5330330000000  0.4288390000000 1.0
C      1  0.4451480000000  0.5064320000000  0.5740610000000 1.0
C      1  0.5164120000000  0.4732880000000  0.5759800000000 1.0
C      1  0.5243570000000  0.5233720000000  0.5745390000000 1.0
C      1  0.5150640000000  0.4496230000000  0.4581210000000 1.0
C      1  0.5299870000000  0.5339960000000  0.4539470000000 1.0
C      1  0.4571970000000  0.5126640000000  0.4541730000000 1.0
C      1  0.5141220000000  0.4583350000000  0.5514510000000 1.0
C      1  0.5343360000000  0.5311380000000  0.5487600000000 1.0
C      1  0.4608610000000  0.5100510000000  0.5495280000000 1.0
C      1  0.4475860000000  0.5643800000000  0.5044630000000 1.0
C      1  0.5816680000000  0.5137810000000  0.4985300000000 1.0
C      1  0.4724340000000  0.4207650000000  0.5060080000000 1.0
C      1  0.5240170000000  0.5108050000000  0.5008290000000 1.0
C      1  0.5023950000000  0.4731890000000  0.5020850000000 1.0
C      1  0.4806940000000  0.5106540000000  0.4989980000000 1.0
C      1  0.5244150000000  0.4571300000000  0.5044640000000 1.0
C      1  0.4555140000000  0.4999100000000  0.5000560000000 1.0
C      1  0.5245720000000  0.5378140000000  0.5016570000000 1.0
C      1  0.5675010000000  0.4876820000000  0.5007530000000 1.0
C      1  0.4586860000000  0.4472410000000  0.5034460000000 1.0
C      1  0.4776500000000  0.5636440000000  0.5035340000000 1.0
C      1  0.5006850000000  0.4987830000000  0.5250550000000 1.0
C      1  0.5029940000000  0.4959190000000  0.4743810000000 1.0
C      1  0.4966930000000  0.5119120000000  0.4288140000000 1.0
C      1  0.5078640000000  0.5002690000000  0.5725740000000 1.0
C      1  0.5055380000000  0.4913700000000  0.4458340000000 1.0
C      1  0.4898020000000  0.5024860000000  0.5511740000000 1.0
END
