TITL C-2323483-8886-437 9434.13059859332 125000 -348.897215380474 0 0 60 (Ci) n - 1
REM
REM in /home/bkarasulu/CARBON/AIRSS/Generating-Clusters/LCBOP/Higher-Symm/Only-C60/SD-CG/FIRE-HFTN
REM
REM
REM
REM
REM
REM ./C.cell (50c204cfd26239f34c78669fe23a5462)
REM
REM compiler GCC version 9.2.1 20190827 (Red Hat 9.2.1-1)
REM options -cpp -mtune=generic -march=x86-64 -g -O0 -fpre-include=/usr/include/finclude/math-vector-fortran.h
REM seed 2145416135 -1435594873 -833956172 -566567808 -570431912 1953222422 1990279508 1974623806 -332744281 1018178530 -321781495 1595665311 248334552 1655547870 -1870923829 -1271142533 1563375652 -57705220 -1254112913 732328731 -285889726 59112804 571229968 -107718132 -1826605696 1820489272 1902422778 628989727 -1605940933 892573224 -1863589046 1225779646 659217311
REM
CELL 1.54180   50.00000   50.00000   50.00000   90.00000   90.00000   90.00000
LATT -1
SFAC C  
C      1  0.4789540000000  0.4957160000000  0.5772570000000 1.0
C      1  0.4859160000000  0.5152950000000  0.4228700000000 1.0
C      1  0.5062040000000  0.5198530000000  0.5771360000000 1.0
C      1  0.5207950000000  0.5049100000000  0.4227820000000 1.0
C      1  0.5146620000000  0.4844380000000  0.5772120000000 1.0
C      1  0.4931870000000  0.4796120000000  0.4227450000000 1.0
C      1  0.5612350000000  0.5282490000000  0.4817280000000 1.0
C      1  0.5550770000000  0.4610940000000  0.5182360000000 1.0
C      1  0.4938330000000  0.4328780000000  0.4817230000000 1.0
C      1  0.4387820000000  0.4717850000000  0.5183110000000 1.0
C      1  0.4449870000000  0.5388920000000  0.4816340000000 1.0
C      1  0.5061660000000  0.5670910000000  0.5183680000000 1.0
C      1  0.4662500000000  0.5440230000000  0.5416110000000 1.0
C      1  0.5212860000000  0.5512660000000  0.4584050000000 1.0
C      1  0.5550320000000  0.5071900000000  0.5416190000000 1.0
C      1  0.5336840000000  0.4560100000000  0.4582940000000 1.0
C      1  0.4787630000000  0.4488320000000  0.5416960000000 1.0
C      1  0.4450160000000  0.4927760000000  0.4583740000000 1.0
C      1  0.4658180000000  0.4942700000000  0.5527720000000 1.0
C      1  0.4780350000000  0.5265230000000  0.4471600000000 1.0
C      1  0.5119820000000  0.5322870000000  0.5528420000000 1.0
C      1  0.5341170000000  0.5058670000000  0.4472110000000 1.0
C      1  0.5221500000000  0.4733760000000  0.5527830000000 1.0
C      1  0.4878730000000  0.4675160000000  0.4472300000000 1.0
C      1  0.4833020000000  0.5206150000000  0.5060450000000 1.0
C      1  0.5095180000000  0.5247680000000  0.4939550000000 1.0
C      1  0.5262220000000  0.5041490000000  0.5060470000000 1.0
C      1  0.5167000000000  0.4793850000000  0.4939250000000 1.0
C      1  0.4904990000000  0.4752480000000  0.5060830000000 1.0
C      1  0.4738020000000  0.4958460000000  0.4939450000000 1.0
C      1  0.4555850000000  0.4679060000000  0.5420100000000 1.0
C      1  0.4500150000000  0.5223700000000  0.4579410000000 1.0
C      1  0.4943740000000  0.5544830000000  0.5420620000000 1.0
C      1  0.5444580000000  0.5321910000000  0.4580460000000 1.0
C      1  0.5501100000000  0.4775800000000  0.5419380000000 1.0
C      1  0.5055830000000  0.4454690000000  0.4580040000000 1.0
C      1  0.4913800000000  0.4250750000000  0.5299980000000 1.0
C      1  0.4307300000000  0.4699790000000  0.4700560000000 1.0
C      1  0.4393770000000  0.5450040000000  0.5298990000000 1.0
C      1  0.5086610000000  0.5750040000000  0.4701090000000 1.0
C      1  0.5692770000000  0.5300160000000  0.5299770000000 1.0
C      1  0.5605750000000  0.4550630000000  0.4699620000000 1.0
C      1  0.4337050000000  0.5268050000000  0.5065230000000 1.0
C      1  0.4900700000000  0.5708080000000  0.4934690000000 1.0
C      1  0.5563650000000  0.5440240000000  0.5066180000000 1.0
C      1  0.5662900000000  0.4732150000000  0.4933490000000 1.0
C      1  0.5099500000000  0.4292120000000  0.5066000000000 1.0
C      1  0.4436420000000  0.4559750000000  0.4934410000000 1.0
C      1  0.5314980000000  0.4483640000000  0.5084650000000 1.0
C      1  0.4710130000000  0.4469010000000  0.4915420000000 1.0
C      1  0.4395210000000  0.4985600000000  0.5084780000000 1.0
C      1  0.4685340000000  0.5516390000000  0.4914820000000 1.0
C      1  0.5289910000000  0.5530800000000  0.5085490000000 1.0
C      1  0.5604770000000  0.5014570000000  0.4914840000000 1.0
C      1  0.4723960000000  0.4844590000000  0.4652110000000 1.0
C      1  0.4727390000000  0.5161520000000  0.5347880000000 1.0
C      1  0.5004070000000  0.5316660000000  0.4651770000000 1.0
C      1  0.5276190000000  0.5154740000000  0.5348310000000 1.0
C      1  0.5271650000000  0.4838910000000  0.4651100000000 1.0
C      1  0.4996480000000  0.4684180000000  0.5348840000000 1.0
END
