TITL C-2323479-8056-74 96308.9926610356 125000 -343.416617404978 0 0 60 (C1) n - 1
REM
REM in /home/bkarasulu/CARBON/AIRSS/Generating-Clusters/LCBOP/Higher-Symm/Only-C60/SD-CG/FIRE-HFTN
REM
REM
REM
REM
REM
REM ./C.cell (50c204cfd26239f34c78669fe23a5462)
REM
REM compiler GCC version 9.2.1 20190827 (Red Hat 9.2.1-1)
REM options -cpp -mtune=generic -march=x86-64 -g -O0 -fpre-include=/usr/include/finclude/math-vector-fortran.h
REM seed -1214972777 -1061605020 986127622 733898525 241618730 -2129423185 -572935633 680190197 1820398976 2088300163 506554010 -1533931283 -1405792737 -1117050488 -251730533 -1103520808 -140682392 -1209171622 1082477539 -985378711 1079584075 -2109047132 436801212 1790188893 2113371059 1195585139 1705550711 1963818343 350311645 284562480 -1017652256 -774817963 1710548732
REM
CELL 1.54180   50.00000   50.00000   50.00000   90.00000   90.00000   90.00000
LATT -1
SFAC C  
C      1  0.5221040000000  0.3896930000000  0.5325130000000 1.0
C      1  0.5549110000000  0.3989330000000  0.4796700000000 1.0
C      1  0.5426710000000  0.3491020000000  0.4898020000000 1.0
C      1  0.5298790000000  0.3449950000000  0.5130760000000 1.0
C      1  0.5282920000000  0.5100950000000  0.5298560000000 1.0
C      1  0.5220450000000  0.5063480000000  0.4688880000000 1.0
C      1  0.5108320000000  0.4286360000000  0.4239280000000 1.0
C      1  0.5392350000000  0.4456260000000  0.5851440000000 1.0
C      1  0.4651880000000  0.5808800000000  0.4329730000000 1.0
C      1  0.4764960000000  0.5864660000000  0.5586820000000 1.0
C      1  0.5782610000000  0.4109770000000  0.4701890000000 1.0
C      1  0.5994430000000  0.4231990000000  0.4611840000000 1.0
C      1  0.4458190000000  0.5018700000000  0.4075160000000 1.0
C      1  0.4632080000000  0.5143270000000  0.6019030000000 1.0
C      1  0.4221140000000  0.5706250000000  0.5184720000000 1.0
C      1  0.4210600000000  0.5705880000000  0.4915880000000 1.0
C      1  0.4632760000000  0.5459540000000  0.5202690000000 1.0
C      1  0.4607600000000  0.5439420000000  0.4850370000000 1.0
C      1  0.4405840000000  0.5561450000000  0.5370860000000 1.0
C      1  0.4367530000000  0.5549360000000  0.4714600000000 1.0
C      1  0.4769980000000  0.5211560000000  0.4755300000000 1.0
C      1  0.4832740000000  0.5263610000000  0.5279630000000 1.0
C      1  0.4814600000000  0.4965900000000  0.5188150000000 1.0
C      1  0.4786490000000  0.4939920000000  0.4901460000000 1.0
C      1  0.4917500000000  0.5781120000000  0.4298800000000 1.0
C      1  0.4958640000000  0.5825470000000  0.5385210000000 1.0
C      1  0.5160120000000  0.4606190000000  0.5184140000000 1.0
C      1  0.5137190000000  0.4586380000000  0.4897850000000 1.0
C      1  0.5105980000000  0.5618720000000  0.4431440000000 1.0
C      1  0.5217100000000  0.5704860000000  0.5427880000000 1.0
C      1  0.4868280000000  0.5716990000000  0.4870240000000 1.0
C      1  0.4843630000000  0.5762130000000  0.5133580000000 1.0
C      1  0.5155870000000  0.4310170000000  0.4494390000000 1.0
C      1  0.5327480000000  0.4414870000000  0.5602460000000 1.0
C      1  0.5033760000000  0.4822690000000  0.4779940000000 1.0
C      1  0.5078860000000  0.4859830000000  0.5282930000000 1.0
C      1  0.5282480000000  0.4138650000000  0.5198030000000 1.0
C      1  0.5347380000000  0.4149660000000  0.4918500000000 1.0
C      1  0.5300440000000  0.5512400000000  0.5628570000000 1.0
C      1  0.5208260000000  0.5382840000000  0.4305870000000 1.0
C      1  0.5074490000000  0.5306810000000  0.4831520000000 1.0
C      1  0.5121590000000  0.5321100000000  0.5126050000000 1.0
C      1  0.4258010000000  0.5334500000000  0.5505360000000 1.0
C      1  0.4191670000000  0.5323510000000  0.4610890000000 1.0
C      1  0.5114620000000  0.5131800000000  0.4406590000000 1.0
C      1  0.5219770000000  0.5238430000000  0.5578140000000 1.0
C      1  0.5285670000000  0.5570510000000  0.5182520000000 1.0
C      1  0.5065050000000  0.5591140000000  0.4714360000000 1.0
C      1  0.4519040000000  0.5750310000000  0.5577530000000 1.0
C      1  0.4451000000000  0.5723230000000  0.4484480000000 1.0
C      1  0.5215290000000  0.3629970000000  0.5311850000000 1.0
C      1  0.5515980000000  0.3711450000000  0.4775380000000 1.0
C      1  0.5513120000000  0.5050340000000  0.5110340000000 1.0
C      1  0.5482310000000  0.5042070000000  0.4834940000000 1.0
C      1  0.4761010000000  0.5186990000000  0.5796780000000 1.0
C      1  0.4624800000000  0.5076060000000  0.4267190000000 1.0
C      1  0.4922170000000  0.5230900000000  0.5575730000000 1.0
C      1  0.4819440000000  0.5136290000000  0.4454730000000 1.0
C      1  0.5212970000000  0.4349610000000  0.4764280000000 1.0
C      1  0.5255910000000  0.4387640000000  0.5334620000000 1.0
END
