TITL C-2323483-8886-115 0.000195741901172093 125000 -371.047810067909 0 0 60 (C1) n - 1
REM
REM in /home/bkarasulu/CARBON/AIRSS/Generating-Clusters/LCBOP/Higher-Symm/Only-C60/SD-CG/FIRE-HFTN
REM
REM
REM
REM
REM
REM ./C.cell (50c204cfd26239f34c78669fe23a5462)
REM
REM compiler GCC version 9.2.1 20190827 (Red Hat 9.2.1-1)
REM options -cpp -mtune=generic -march=x86-64 -g -O0 -fpre-include=/usr/include/finclude/math-vector-fortran.h
REM seed 1226595548 -903701993 -2052368056 1741349114 345394235 -217163912 1506639508 1917969467 -435638417 -1753314260 -396241727 -1745513681 -1954781774 1076977705 -1656462899 -620749069 -997206883 1253660851 -1251186266 2042669618 1996003844 1470894147 -593925538 642073295 -116281389 1159015120 30953592 525200057 1652425734 642615253 -1246804749 1883549036 -1926486445
REM
CELL 1.54180   50.00000   50.00000   50.00000   90.00000   90.00000   90.00000
LATT -1
SFAC C  
C      1  0.6080580000000  0.4719740000000  0.5208980000000 1.0
C      1  0.4154530000000  0.5473070000000  0.5338460000000 1.0
C      1  0.4936630000000  0.4990900000000  0.5443800000000 1.0
C      1  0.5080010000000  0.4326180000000  0.4805740000000 1.0
C      1  0.5139450000000  0.4751510000000  0.5024930000000 1.0
C      1  0.4522080000000  0.4841510000000  0.4081160000000 1.0
C      1  0.5324250000000  0.4378880000000  0.5255810000000 1.0
C      1  0.4475510000000  0.4780520000000  0.4693370000000 1.0
C      1  0.4252710000000  0.5281740000000  0.5498190000000 1.0
C      1  0.4306080000000  0.5006100000000  0.4650070000000 1.0
C      1  0.4973980000000  0.4863620000000  0.4602120000000 1.0
C      1  0.5103230000000  0.4868950000000  0.5630850000000 1.0
C      1  0.4475340000000  0.5557850000000  0.4438330000000 1.0
C      1  0.4951450000000  0.4913200000000  0.5172620000000 1.0
C      1  0.4388700000000  0.4849850000000  0.5721410000000 1.0
C      1  0.4127430000000  0.5623450000000  0.5117900000000 1.0
C      1  0.4726560000000  0.4466770000000  0.5819040000000 1.0
C      1  0.5442930000000  0.5011830000000  0.4763050000000 1.0
C      1  0.4443030000000  0.4504450000000  0.4655790000000 1.0
C      1  0.5545230000000  0.5158290000000  0.5705830000000 1.0
C      1  0.4761650000000  0.5482530000000  0.5057160000000 1.0
C      1  0.5629230000000  0.4706390000000  0.5458920000000 1.0
C      1  0.4614990000000  0.5255400000000  0.4976580000000 1.0
C      1  0.4735480000000  0.4865000000000  0.4757920000000 1.0
C      1  0.5402730000000  0.4529290000000  0.5484500000000 1.0
C      1  0.5429420000000  0.5397620000000  0.5627690000000 1.0
C      1  0.6190520000000  0.4918710000000  0.5069680000000 1.0
C      1  0.5877730000000  0.4625630000000  0.5355390000000 1.0
C      1  0.4713690000000  0.5136010000000  0.5533030000000 1.0
C      1  0.5935430000000  0.5601560000000  0.4858540000000 1.0
C      1  0.5000030000000  0.5586950000000  0.5120580000000 1.0
C      1  0.4987660000000  0.4479780000000  0.4330950000000 1.0
C      1  0.4912340000000  0.4338430000000  0.4574280000000 1.0
C      1  0.5177320000000  0.4467980000000  0.5032820000000 1.0
C      1  0.5454980000000  0.5730730000000  0.4995070000000 1.0
C      1  0.6108730000000  0.5401120000000  0.4885980000000 1.0
C      1  0.5593130000000  0.4987320000000  0.5476770000000 1.0
C      1  0.4631820000000  0.4315620000000  0.4614510000000 1.0
C      1  0.5278290000000  0.5589000000000  0.5162110000000 1.0
C      1  0.4991160000000  0.4437170000000  0.5776530000000 1.0
C      1  0.5189120000000  0.4602120000000  0.5661400000000 1.0
C      1  0.4508450000000  0.4621660000000  0.5797670000000 1.0
C      1  0.4751250000000  0.5010770000000  0.4998490000000 1.0
C      1  0.4659280000000  0.5435690000000  0.4283070000000 1.0
C      1  0.4789470000000  0.5215580000000  0.4198390000000 1.0
C      1  0.4272620000000  0.4901180000000  0.4166930000000 1.0
C      1  0.4186050000000  0.5662610000000  0.4857180000000 1.0
C      1  0.5094950000000  0.4352750000000  0.4114640000000 1.0
C      1  0.4441210000000  0.5096320000000  0.5593660000000 1.0
C      1  0.4395050000000  0.5248470000000  0.4785490000000 1.0
C      1  0.5701130000000  0.5724390000000  0.4891510000000 1.0
C      1  0.5401450000000  0.5408870000000  0.5340800000000 1.0
C      1  0.4775760000000  0.4931370000000  0.4171920000000 1.0
C      1  0.6197680000000  0.5161080000000  0.4959420000000 1.0
C      1  0.5574250000000  0.5108940000000  0.4975700000000 1.0
C      1  0.4940670000000  0.4763860000000  0.4339380000000 1.0
C      1  0.4331850000000  0.5504280000000  0.4675450000000 1.0
C      1  0.5535230000000  0.5162970000000  0.5246470000000 1.0
C      1  0.5204110000000  0.4868230000000  0.4766140000000 1.0
C      1  0.4174360000000  0.4998190000000  0.4399850000000 1.0
END
