TITL C-2323489-8765-344 5.2552201109331e-07 125000 -377.273712286691 0 0 60 (D3) n - 1
REM
REM in /home/bkarasulu/CARBON/AIRSS/Generating-Clusters/LCBOP/Higher-Symm/Only-C60/SD-CG/FIRE-HFTN
REM
REM
REM
REM
REM
REM ./C.cell (50c204cfd26239f34c78669fe23a5462)
REM
REM compiler GCC version 9.2.1 20190827 (Red Hat 9.2.1-1)
REM options -cpp -mtune=generic -march=x86-64 -g -O0 -fpre-include=/usr/include/finclude/math-vector-fortran.h
REM seed 770872744 1651279571 1824146232 -276838187 -1299556043 1874704761 1699993750 -1919542940 120943467 -1550695286 1301435508 -1536168950 -2020217386 -2030430148 2014184086 474303639 1166632231 504175191 2057392792 -1235370205 2073873448 -1665644523 116554065 1769129070 -2023982962 -17503197 1190432471 378712890 -1485687201 -1944096911 -739088435 422820654 -781729455
REM
CELL 1.54180   50.00000   50.00000   50.00000   90.00000   90.00000   90.00000
LATT -1
SFAC C  
C      1  0.5563210000000  0.5020690000000  0.5765600000000 1.0
C      1  0.4736400000000  0.4501960000000  0.5765670000000 1.0
C      1  0.4700570000000  0.5477360000000  0.5765670000000 1.0
C      1  0.5563090000000  0.4979300000000  0.4234310000000 1.0
C      1  0.4736290000000  0.5498050000000  0.4234370000000 1.0
C      1  0.4700440000000  0.4522640000000  0.4234380000000 1.0
C      1  0.4592910000000  0.4395760000000  0.4445150000000 1.0
C      1  0.4680190000000  0.5654630000000  0.4445130000000 1.0
C      1  0.5726770000000  0.4949610000000  0.4445060000000 1.0
C      1  0.4593010000000  0.5604250000000  0.5554920000000 1.0
C      1  0.4680260000000  0.4345380000000  0.5554920000000 1.0
C      1  0.5726850000000  0.5050380000000  0.5554830000000 1.0
C      1  0.4609250000000  0.4913480000000  0.4886150000000 1.0
C      1  0.5120440000000  0.5381650000000  0.4886110000000 1.0
C      1  0.5270290000000  0.4704870000000  0.4886100000000 1.0
C      1  0.4609270000000  0.5086520000000  0.5113910000000 1.0
C      1  0.5120450000000  0.4618350000000  0.5113870000000 1.0
C      1  0.5270310000000  0.5295130000000  0.5113860000000 1.0
C      1  0.5285540000000  0.4466000000000  0.5297460000000 1.0
C      1  0.4394800000000  0.5019730000000  0.5297530000000 1.0
C      1  0.5319720000000  0.5514270000000  0.5297450000000 1.0
C      1  0.5285510000000  0.5533990000000  0.4702500000000 1.0
C      1  0.4394760000000  0.4980280000000  0.4702570000000 1.0
C      1  0.5319660000000  0.4485720000000  0.4702500000000 1.0
C      1  0.5420380000000  0.4267050000000  0.4861180000000 1.0
C      1  0.4155040000000  0.5002400000000  0.4861280000000 1.0
C      1  0.5424550000000  0.5730550000000  0.4861180000000 1.0
C      1  0.5420420000000  0.5732940000000  0.5138750000000 1.0
C      1  0.4155060000000  0.4997620000000  0.5138850000000 1.0
C      1  0.5424550000000  0.4269440000000  0.5138760000000 1.0
C      1  0.4685970000000  0.4641450000000  0.4894940000000 1.0
C      1  0.4846490000000  0.5451230000000  0.4894920000000 1.0
C      1  0.5467520000000  0.4907320000000  0.4894870000000 1.0
C      1  0.4685990000000  0.5358560000000  0.5105110000000 1.0
C      1  0.4846500000000  0.4548780000000  0.5105100000000 1.0
C      1  0.5467540000000  0.5092670000000  0.5105050000000 1.0
C      1  0.5674400000000  0.4918890000000  0.4705380000000 1.0
C      1  0.4592530000000  0.4456480000000  0.4705470000000 1.0
C      1  0.4733000000000  0.5624620000000  0.4705460000000 1.0
C      1  0.5674450000000  0.5081090000000  0.5294510000000 1.0
C      1  0.4592580000000  0.5543530000000  0.5294590000000 1.0
C      1  0.4733030000000  0.4375380000000  0.5294590000000 1.0
C      1  0.4716100000000  0.5010150000000  0.4277400000000 1.0
C      1  0.5150660000000  0.5240740000000  0.4277370000000 1.0
C      1  0.5133080000000  0.4749100000000  0.4277370000000 1.0
C      1  0.4716210000000  0.4989860000000  0.5722640000000 1.0
C      1  0.5150760000000  0.4759260000000  0.5722610000000 1.0
C      1  0.5133190000000  0.5250890000000  0.5722610000000 1.0
C      1  0.4479440000000  0.5016780000000  0.4436690000000 1.0
C      1  0.5274750000000  0.5442380000000  0.4436620000000 1.0
C      1  0.5245680000000  0.4540830000000  0.4436630000000 1.0
C      1  0.4479530000000  0.4983230000000  0.5563390000000 1.0
C      1  0.5274830000000  0.4557610000000  0.5563330000000 1.0
C      1  0.5245780000000  0.5459170000000  0.5563330000000 1.0
C      1  0.4866970000000  0.5249300000000  0.4231220000000 1.0
C      1  0.5282330000000  0.4990500000000  0.4231180000000 1.0
C      1  0.4850520000000  0.4760190000000  0.4231220000000 1.0
C      1  0.4867080000000  0.4750700000000  0.5768810000000 1.0
C      1  0.5282450000000  0.5009490000000  0.5768770000000 1.0
C      1  0.4850650000000  0.5239820000000  0.5768810000000 1.0
END
