TITL C-2323486-8761-311 0.00205028638646741 125000 -371.050525175942 0 0 60 (S4) n - 1
REM
REM in /home/bkarasulu/CARBON/AIRSS/Generating-Clusters/LCBOP/Higher-Symm/Only-C60/SD-CG/FIRE-HFTN
REM
REM
REM
REM
REM
REM ./C.cell (50c204cfd26239f34c78669fe23a5462)
REM
REM compiler GCC version 9.2.1 20190827 (Red Hat 9.2.1-1)
REM options -cpp -mtune=generic -march=x86-64 -g -O0 -fpre-include=/usr/include/finclude/math-vector-fortran.h
REM seed 507617086 -1272289291 -1752883964 777092454 346396741 -849519252 1481662489 1368202709 1941309578 -2019762486 1839923659 1474616147 -707172055 695627666 -1150571704 549012909 2019840820 131259435 -168304964 -1171673985 1011649670 385648833 -479128789 2137056618 -1853808848 -1671684108 -816570627 1309895394 1584314642 695018854 1595685125 -164563723 -131075056
REM
CELL 1.54180   50.00000   50.00000   50.00000   90.00000   90.00000   90.00000
LATT -1
SFAC C  
C      1  0.5787010000000  0.4833490000000  0.5147280000000 1.0
C      1  0.4833480000000  0.4213010000000  0.4852610000000 1.0
C      1  0.4213020000000  0.5166500000000  0.5147420000000 1.0
C      1  0.5166490000000  0.5787000000000  0.4852680000000 1.0
C      1  0.4366140000000  0.5458060000000  0.4476310000000 1.0
C      1  0.5458070000000  0.5633790000000  0.5523770000000 1.0
C      1  0.5633780000000  0.4542000000000  0.4476150000000 1.0
C      1  0.4542010000000  0.4366150000000  0.5523770000000 1.0
C      1  0.4512560000000  0.4466780000000  0.5999320000000 1.0
C      1  0.4466760000000  0.5487580000000  0.4000750000000 1.0
C      1  0.5487590000000  0.5533100000000  0.5999310000000 1.0
C      1  0.5533090000000  0.4512540000000  0.4000610000000 1.0
C      1  0.4955360000000  0.4100190000000  0.4645760000000 1.0
C      1  0.4100200000000  0.5044590000000  0.5354260000000 1.0
C      1  0.5044590000000  0.5899850000000  0.4645860000000 1.0
C      1  0.5899860000000  0.4955370000000  0.5354110000000 1.0
C      1  0.5457840000000  0.4634020000000  0.3777100000000 1.0
C      1  0.4634050000000  0.4542000000000  0.6222840000000 1.0
C      1  0.4541980000000  0.5366120000000  0.3777220000000 1.0
C      1  0.5366140000000  0.5457860000000  0.6222840000000 1.0
C      1  0.4872160000000  0.5237590000000  0.5150460000000 1.0
C      1  0.5237580000000  0.5127860000000  0.4849560000000 1.0
C      1  0.5127860000000  0.4762400000000  0.5150410000000 1.0
C      1  0.4762390000000  0.4872160000000  0.4849580000000 1.0
C      1  0.4923300000000  0.4891740000000  0.6481700000000 1.0
C      1  0.4891710000000  0.5076900000000  0.3518310000000 1.0
C      1  0.5076930000000  0.5108080000000  0.6481710000000 1.0
C      1  0.5108060000000  0.4923270000000  0.3518280000000 1.0
C      1  0.5117070000000  0.5070320000000  0.4597010000000 1.0
C      1  0.5070330000000  0.4882880000000  0.5402980000000 1.0
C      1  0.4882870000000  0.4929720000000  0.4597020000000 1.0
C      1  0.4929730000000  0.5117070000000  0.5403000000000 1.0
C      1  0.4412550000000  0.4488360000000  0.5739660000000 1.0
C      1  0.4488350000000  0.5587560000000  0.4260430000000 1.0
C      1  0.5587570000000  0.5511550000000  0.5739630000000 1.0
C      1  0.5511540000000  0.4412530000000  0.4260280000000 1.0
C      1  0.4657030000000  0.4345790000000  0.5285590000000 1.0
C      1  0.4345790000000  0.5343010000000  0.4714470000000 1.0
C      1  0.5343010000000  0.5654170000000  0.5285610000000 1.0
C      1  0.5654170000000  0.4657020000000  0.4714330000000 1.0
C      1  0.5226940000000  0.5307450000000  0.6391390000000 1.0
C      1  0.5307430000000  0.4773250000000  0.3608580000000 1.0
C      1  0.4773280000000  0.4692380000000  0.6391390000000 1.0
C      1  0.4692360000000  0.5226910000000  0.3608650000000 1.0
C      1  0.5337010000000  0.4200640000000  0.4314820000000 1.0
C      1  0.4200650000000  0.4662900000000  0.5685150000000 1.0
C      1  0.4662890000000  0.5799440000000  0.4314970000000 1.0
C      1  0.5799450000000  0.5337020000000  0.5685070000000 1.0
C      1  0.5907090000000  0.5137110000000  0.5547480000000 1.0
C      1  0.5137100000000  0.4092980000000  0.4452390000000 1.0
C      1  0.4092990000000  0.4862820000000  0.5547600000000 1.0
C      1  0.4862810000000  0.5907090000000  0.4452520000000 1.0
C      1  0.5331450000000  0.4892510000000  0.4991230000000 1.0
C      1  0.4892510000000  0.4668550000000  0.5008730000000 1.0
C      1  0.4668550000000  0.5107490000000  0.4991290000000 1.0
C      1  0.5107490000000  0.5331450000000  0.5008750000000 1.0
C      1  0.4407980000000  0.5209990000000  0.4952350000000 1.0
C      1  0.5209990000000  0.5592010000000  0.5047730000000 1.0
C      1  0.5592010000000  0.4790010000000  0.4952230000000 1.0
C      1  0.4790020000000  0.4407980000000  0.5047690000000 1.0
END
