TITL C-2323484-8600-510 -5.36279923444517e-05 125000 -365.052761621185 0 0 60 (C1) n - 1
REM
REM in /home/bkarasulu/CARBON/AIRSS/Generating-Clusters/LCBOP/Higher-Symm/Only-C60/SD-CG/FIRE-HFTN
REM
REM
REM
REM
REM
REM ./C.cell (50c204cfd26239f34c78669fe23a5462)
REM
REM compiler GCC version 9.2.1 20190827 (Red Hat 9.2.1-1)
REM options -cpp -mtune=generic -march=x86-64 -g -O0 -fpre-include=/usr/include/finclude/math-vector-fortran.h
REM seed -842977832 2027186931 -310104721 365461587 -160758661 -248883865 643023175 -2063184178 1828370304 -222122415 640130983 615320986 308806448 589772819 -1256483014 -51209324 -1494253210 -1810203304 2012514711 1039713819 651841050 -1541504258 -888885599 -525708171 -690585207 1905354399 -466972958 -160827700 1037345890 -817620139 -126939215 275113495 1909240281
REM
CELL 1.54180   50.00000   50.00000   50.00000   90.00000   90.00000   90.00000
LATT -1
SFAC C  
C      1  0.4480940000000  0.4710110000000  0.5438740000000 1.0
C      1  0.5419140000000  0.5808570000000  0.4514860000000 1.0
C      1  0.4776730000000  0.4327810000000  0.5594010000000 1.0
C      1  0.4929200000000  0.5776310000000  0.4497430000000 1.0
C      1  0.4739240000000  0.5056930000000  0.4867140000000 1.0
C      1  0.5468360000000  0.4963810000000  0.5037410000000 1.0
C      1  0.4953660000000  0.5665210000000  0.5261430000000 1.0
C      1  0.4934290000000  0.4230860000000  0.4754170000000 1.0
C      1  0.4476780000000  0.5785750000000  0.4799110000000 1.0
C      1  0.5251670000000  0.4139620000000  0.5420940000000 1.0
C      1  0.5321660000000  0.4857720000000  0.4313840000000 1.0
C      1  0.4987190000000  0.5129250000000  0.5589320000000 1.0
C      1  0.3953300000000  0.5299710000000  0.4437180000000 1.0
C      1  0.6087140000000  0.4508500000000  0.5449900000000 1.0
C      1  0.4134360000000  0.5103090000000  0.4435210000000 1.0
C      1  0.6065420000000  0.4749610000000  0.5339850000000 1.0
C      1  0.4890080000000  0.5060820000000  0.4385240000000 1.0
C      1  0.5349020000000  0.4828640000000  0.5490660000000 1.0
C      1  0.4628290000000  0.4268830000000  0.5815460000000 1.0
C      1  0.4904740000000  0.5819640000000  0.4228000000000 1.0
C      1  0.5127010000000  0.5587580000000  0.5073520000000 1.0
C      1  0.4818810000000  0.4361740000000  0.4955740000000 1.0
C      1  0.5185750000000  0.5499520000000  0.4812680000000 1.0
C      1  0.4854590000000  0.4540530000000  0.5167220000000 1.0
C      1  0.5737170000000  0.4146280000000  0.5430610000000 1.0
C      1  0.4011720000000  0.5656080000000  0.4783160000000 1.0
C      1  0.4461520000000  0.4998580000000  0.4830060000000 1.0
C      1  0.5706940000000  0.5089770000000  0.5128680000000 1.0
C      1  0.4248910000000  0.5684290000000  0.4929390000000 1.0
C      1  0.5497260000000  0.4158810000000  0.5286390000000 1.0
C      1  0.5180770000000  0.5695740000000  0.4605950000000 1.0
C      1  0.4692040000000  0.4522330000000  0.5403950000000 1.0
C      1  0.5723680000000  0.5363120000000  0.5135470000000 1.0
C      1  0.4305320000000  0.4950610000000  0.5061560000000 1.0
C      1  0.4533760000000  0.5196700000000  0.5398220000000 1.0
C      1  0.5510360000000  0.4563210000000  0.4653020000000 1.0
C      1  0.4333240000000  0.5002730000000  0.4581770000000 1.0
C      1  0.5924060000000  0.4936510000000  0.5215470000000 1.0
C      1  0.5022840000000  0.4769110000000  0.5142380000000 1.0
C      1  0.5173950000000  0.5223940000000  0.4740650000000 1.0
C      1  0.4279300000000  0.5569890000000  0.5184710000000 1.0
C      1  0.5512020000000  0.4224690000000  0.5013330000000 1.0
C      1  0.5961520000000  0.4277040000000  0.5489660000000 1.0
C      1  0.3900290000000  0.5516490000000  0.4584590000000 1.0
C      1  0.5299030000000  0.4811560000000  0.5211930000000 1.0
C      1  0.4913370000000  0.5131020000000  0.4656700000000 1.0
C      1  0.5645540000000  0.5907370000000  0.4431860000000 1.0
C      1  0.4383840000000  0.4958220000000  0.5333080000000 1.0
C      1  0.5207130000000  0.4988980000000  0.5655760000000 1.0
C      1  0.5080780000000  0.4946820000000  0.4232030000000 1.0
C      1  0.5185930000000  0.4208240000000  0.4665180000000 1.0
C      1  0.4711830000000  0.5640470000000  0.5374690000000 1.0
C      1  0.5021780000000  0.4197580000000  0.5542670000000 1.0
C      1  0.4704860000000  0.5805430000000  0.4663930000000 1.0
C      1  0.4870160000000  0.5009460000000  0.5119760000000 1.0
C      1  0.5374540000000  0.5019640000000  0.4773770000000 1.0
C      1  0.4481660000000  0.5473990000000  0.5353750000000 1.0
C      1  0.5425680000000  0.4319200000000  0.4763780000000 1.0
C      1  0.4811340000000  0.5135330000000  0.5370610000000 1.0
C      1  0.5428500000000  0.4820630000000  0.4572410000000 1.0
END
