TITL C-2323491-8878-11 -3.98437648359317e-05 125000 -348.744710370312 0 0 60 (C5) n - 1
REM
REM in /home/bkarasulu/CARBON/AIRSS/Generating-Clusters/LCBOP/Higher-Symm/Only-C60/SD-CG/FIRE-HFTN
REM
REM
REM
REM
REM
REM ./C.cell (50c204cfd26239f34c78669fe23a5462)
REM
REM compiler GCC version 9.2.1 20190827 (Red Hat 9.2.1-1)
REM options -cpp -mtune=generic -march=x86-64 -g -O0 -fpre-include=/usr/include/finclude/math-vector-fortran.h
REM seed -1345662376 -1975516078 1621544170 1753629659 -737038588 1178283007 551895448 -1051698321 1916034226 305350653 1327166012 -531483020 1810610686 383992423 626367340 1005068638 14352741 -691824338 -257313702 -650482007 -40871111 719864110 1392746519 2131349346 488131904 -1687057883 1485814097 -520481064 1847953937 -370744293 1586638783 -1635588885 -1419666235
REM
CELL 1.54180   50.00000   50.00000   50.00000   90.00000   90.00000   90.00000
LATT -1
SFAC C  
C      1  0.5235310000000  0.5080360000000  0.5129410000000 1.0
C      1  0.5149140000000  0.4801040000000  0.5129410000000 1.0
C      1  0.4856860000000  0.4796680000000  0.5129410000000 1.0
C      1  0.4762390000000  0.5073300000000  0.5129410000000 1.0
C      1  0.4996290000000  0.5248630000000  0.5129410000000 1.0
C      1  0.4761530000000  0.5070030000000  0.5711100000000 1.0
C      1  0.4992910000000  0.5248440000000  0.5711100000000 1.0
C      1  0.5234080000000  0.5083520000000  0.5711100000000 1.0
C      1  0.5151760000000  0.4803190000000  0.5711100000000 1.0
C      1  0.4859710000000  0.4794850000000  0.5711100000000 1.0
C      1  0.5720190000000  0.5276800000000  0.4642690000000 1.0
C      1  0.5485810000000  0.4400590000000  0.4642700000000 1.0
C      1  0.4580050000000  0.4352740000000  0.4642690000000 1.0
C      1  0.4254650000000  0.5199380000000  0.4642690000000 1.0
C      1  0.4959300000000  0.5770480000000  0.4642690000000 1.0
C      1  0.4986730000000  0.5478600000000  0.5548170000000 1.0
C      1  0.5451070000000  0.5160510000000  0.5548170000000 1.0
C      1  0.5292040000000  0.4620610000000  0.5548180000000 1.0
C      1  0.4729420000000  0.4605020000000  0.5548180000000 1.0
C      1  0.4540730000000  0.5135280000000  0.5548170000000 1.0
C      1  0.5842680000000  0.4567530000000  0.4924390000000 1.0
C      1  0.4849100000000  0.4064920000000  0.4924390000000 1.0
C      1  0.4064060000000  0.4854560000000  0.4924390000000 1.0
C      1  0.4572460000000  0.5845190000000  0.4924380000000 1.0
C      1  0.5671710000000  0.5667800000000  0.4924380000000 1.0
C      1  0.5962870000000  0.5255530000000  0.4518400000000 1.0
C      1  0.5540580000000  0.4163220000000  0.4518410000000 1.0
C      1  0.4371220000000  0.4227300000000  0.4518400000000 1.0
C      1  0.4070820000000  0.5359220000000  0.4518400000000 1.0
C      1  0.5054510000000  0.5994710000000  0.4518390000000 1.0
C      1  0.5699890000000  0.5396690000000  0.4899910000000 1.0
C      1  0.5593550000000  0.4456950000000  0.4899920000000 1.0
C      1  0.4666940000000  0.4267690000000  0.4899920000000 1.0
C      1  0.4200610000000  0.5090460000000  0.4899910000000 1.0
C      1  0.4839010000000  0.5788220000000  0.4899910000000 1.0
C      1  0.5710780000000  0.5230970000000  0.5130850000000 1.0
C      1  0.5439310000000  0.4395390000000  0.5130850000000 1.0
C      1  0.4560730000000  0.4395350000000  0.5130850000000 1.0
C      1  0.4289210000000  0.5230920000000  0.5130850000000 1.0
C      1  0.4999970000000  0.5747370000000  0.5130840000000 1.0
C      1  0.5299320000000  0.4600970000000  0.5264910000000 1.0
C      1  0.4712990000000  0.4592020000000  0.5264910000000 1.0
C      1  0.4523300000000  0.5146890000000  0.5264900000000 1.0
C      1  0.4992390000000  0.5498760000000  0.5264900000000 1.0
C      1  0.5472000000000  0.5161360000000  0.5264910000000 1.0
C      1  0.4979150000000  0.5519790000000  0.4520950000000 1.0
C      1  0.5487910000000  0.5180460000000  0.4520950000000 1.0
C      1  0.5322400000000  0.4591730000000  0.4520950000000 1.0
C      1  0.4711340000000  0.4567210000000  0.4520950000000 1.0
C      1  0.4499200000000  0.5140790000000  0.4520950000000 1.0
C      1  0.4990310000000  0.5245710000000  0.4486760000000 1.0
C      1  0.5230690000000  0.5085140000000  0.4486760000000 1.0
C      1  0.5152260000000  0.4806910000000  0.4486760000000 1.0
C      1  0.4863410000000  0.4795520000000  0.4486760000000 1.0
C      1  0.4763320000000  0.5066710000000  0.4486760000000 1.0
C      1  0.5428270000000  0.4137510000000  0.5222480000000 1.0
C      1  0.4312070000000  0.4326170000000  0.5222470000000 1.0
C      1  0.4146560000000  0.5446040000000  0.5222460000000 1.0
C      1  0.5160480000000  0.5949500000000  0.5222460000000 1.0
C      1  0.5952620000000  0.5140790000000  0.5222470000000 1.0
END
