TITL C-2323486-8761-262 3259.450429485 125000 -357.895393847044 0 0 60 (C1) n - 1
REM
REM in /home/bkarasulu/CARBON/AIRSS/Generating-Clusters/LCBOP/Higher-Symm/Only-C60/SD-CG/FIRE-HFTN
REM
REM
REM
REM
REM
REM ./C.cell (50c204cfd26239f34c78669fe23a5462)
REM
REM compiler GCC version 9.2.1 20190827 (Red Hat 9.2.1-1)
REM options -cpp -mtune=generic -march=x86-64 -g -O0 -fpre-include=/usr/include/finclude/math-vector-fortran.h
REM seed 1017804444 -2119785214 583396180 2009235546 -1655063536 -1112886939 1887521038 1818667799 -1597856956 -1485393377 -1449663425 755834430 963475783 194225688 -293443845 1076092893 945024421 1072820500 -2122148537 1821321587 -1821033882 1243127276 705949353 1839708357 2036972994 -919643375 1550635327 -1009859142 -326530009 611934487 -1511726715 1682618522 -1048588048
REM
CELL 1.54180   50.00000   50.00000   50.00000   90.00000   90.00000   90.00000
LATT -1
SFAC C  
C      1  0.4842970000000  0.5691210000000  0.5259140000000 1.0
C      1  0.4856890000000  0.5690430000000  0.4734800000000 1.0
C      1  0.5303930000000  0.5691650000000  0.5010320000000 1.0
C      1  0.4840190000000  0.4307520000000  0.5257850000000 1.0
C      1  0.4854100000000  0.4307550000000  0.4732660000000 1.0
C      1  0.5301900000000  0.4308400000000  0.5005660000000 1.0
C      1  0.4654780000000  0.5305500000000  0.4423530000000 1.0
C      1  0.5685430000000  0.5316100000000  0.4988510000000 1.0
C      1  0.4668760000000  0.5316690000000  0.5599590000000 1.0
C      1  0.4645770000000  0.4682980000000  0.4412570000000 1.0
C      1  0.5672460000000  0.4693550000000  0.4986550000000 1.0
C      1  0.4673290000000  0.4693980000000  0.5588700000000 1.0
C      1  0.6042330000000  0.4859220000000  0.5620750000000 1.0
C      1  0.3940090000000  0.4863980000000  0.5593200000000 1.0
C      1  0.5028000000000  0.4864220000000  0.3789710000000 1.0
C      1  0.6034680000000  0.5131100000000  0.5629390000000 1.0
C      1  0.3938100000000  0.5135870000000  0.5582050000000 1.0
C      1  0.5017900000000  0.5136130000000  0.3786400000000 1.0
C      1  0.4596340000000  0.4861390000000  0.4917750000000 1.0
C      1  0.5289580000000  0.4857590000000  0.4707850000000 1.0
C      1  0.5106250000000  0.4855950000000  0.5395950000000 1.0
C      1  0.4604590000000  0.5141740000000  0.4894720000000 1.0
C      1  0.5272650000000  0.5138190000000  0.4692880000000 1.0
C      1  0.5129920000000  0.5136400000000  0.5389040000000 1.0
C      1  0.4734820000000  0.5571200000000  0.4502000000000 1.0
C      1  0.5567460000000  0.5576270000000  0.5020470000000 1.0
C      1  0.4701480000000  0.5576870000000  0.5482080000000 1.0
C      1  0.4730810000000  0.4422590000000  0.4499490000000 1.0
C      1  0.5564510000000  0.4427720000000  0.5015560000000 1.0
C      1  0.4700840000000  0.4427990000000  0.5480330000000 1.0
C      1  0.4433290000000  0.5153050000000  0.5590550000000 1.0
C      1  0.4767120000000  0.5145340000000  0.4213800000000 1.0
C      1  0.5794900000000  0.5151260000000  0.5196200000000 1.0
C      1  0.4435620000000  0.4854390000000  0.5595940000000 1.0
C      1  0.4772250000000  0.4846690000000  0.4213800000000 1.0
C      1  0.5797460000000  0.4852670000000  0.5189850000000 1.0
C      1  0.5114610000000  0.5329720000000  0.5207340000000 1.0
C      1  0.4770020000000  0.5328390000000  0.4997950000000 1.0
C      1  0.5124610000000  0.5332440000000  0.4796380000000 1.0
C      1  0.5112050000000  0.4668400000000  0.5202310000000 1.0
C      1  0.4757420000000  0.4665670000000  0.4995540000000 1.0
C      1  0.5118470000000  0.4670800000000  0.4801010000000 1.0
C      1  0.4738130000000  0.5612590000000  0.4995270000000 1.0
C      1  0.5138760000000  0.5614800000000  0.4776970000000 1.0
C      1  0.5128070000000  0.5613050000000  0.5232730000000 1.0
C      1  0.4735040000000  0.4383360000000  0.4993100000000 1.0
C      1  0.5134270000000  0.4386720000000  0.4772860000000 1.0
C      1  0.5125330000000  0.4384120000000  0.5229710000000 1.0
C      1  0.5579670000000  0.4840200000000  0.4765680000000 1.0
C      1  0.4911550000000  0.4839720000000  0.5618470000000 1.0
C      1  0.4471180000000  0.4819880000000  0.4578290000000 1.0
C      1  0.5629000000000  0.5180340000000  0.4753810000000 1.0
C      1  0.4899790000000  0.5179870000000  0.5667350000000 1.0
C      1  0.4509730000000  0.5159790000000  0.4614760000000 1.0
C      1  0.4892150000000  0.5267740000000  0.3988370000000 1.0
C      1  0.5915940000000  0.5267990000000  0.5426690000000 1.0
C      1  0.4173840000000  0.5271330000000  0.5580220000000 1.0
C      1  0.4911080000000  0.4728570000000  0.3994300000000 1.0
C      1  0.5930080000000  0.4728910000000  0.5410160000000 1.0
C      1  0.4177790000000  0.4732210000000  0.5601100000000 1.0
END
