TITL C-2323487-9546-253 -5.03751694290677e-07 125000 -381.079652403073 0 0 60 (C5) n - 1
REM
REM in /home/bkarasulu/CARBON/AIRSS/Generating-Clusters/LCBOP/Higher-Symm/Only-C60/SD-CG/FIRE-HFTN
REM
REM
REM
REM
REM
REM ./C.cell (50c204cfd26239f34c78669fe23a5462)
REM
REM compiler GCC version 9.2.1 20190827 (Red Hat 9.2.1-1)
REM options -cpp -mtune=generic -march=x86-64 -g -O0 -fpre-include=/usr/include/finclude/math-vector-fortran.h
REM seed 1172009341 -1689867098 1864753280 -854087841 1087266960 -1221346993 37659055 331048739 -321337704 879337327 496438552 269139497 795761682 -1106812860 192803097 -512428021 -1069074350 -1670226507 -2120862504 -659143544 687770962 -2137459604 2094884423 -1039684421 -2022688234 -1783395804 765310632 -1683619717 -755983751 1600952702 -485286657 6429694 -896672597
REM
CELL 1.54180   50.00000   50.00000   50.00000   90.00000   90.00000   90.00000
LATT -1
SFAC C  
C      1  0.4858410000000  0.4547770000000  0.5106940000000 1.0
C      1  0.4858400000000  0.4961960000000  0.5463140000000 1.0
C      1  0.4858400000000  0.5428720000000  0.5179290000000 1.0
C      1  0.4858400000000  0.5303000000000  0.4647670000000 1.0
C      1  0.4858410000000  0.4758540000000  0.4602950000000 1.0
C      1  0.5141600000000  0.4547770000000  0.5106940000000 1.0
C      1  0.5141590000000  0.4961960000000  0.5463140000000 1.0
C      1  0.5141590000000  0.5428720000000  0.5179300000000 1.0
C      1  0.5141600000000  0.5303000000000  0.4647670000000 1.0
C      1  0.5141600000000  0.4758550000000  0.4602950000000 1.0
C      1  0.5150050000000  0.5853160000000  0.5019300000000 1.0
C      1  0.5150060000000  0.5282000000000  0.4194560000000 1.0
C      1  0.5150070000000  0.4321120000000  0.4482910000000 1.0
C      1  0.5150060000000  0.4298430000000  0.5485860000000 1.0
C      1  0.5150050000000  0.5245290000000  0.5817370000000 1.0
C      1  0.4849940000000  0.5853160000000  0.5019300000000 1.0
C      1  0.4849950000000  0.5282000000000  0.4194560000000 1.0
C      1  0.4849950000000  0.4321120000000  0.4482910000000 1.0
C      1  0.4849950000000  0.4298430000000  0.5485860000000 1.0
C      1  0.4849940000000  0.5245280000000  0.5817370000000 1.0
C      1  0.5252600000000  0.5687540000000  0.5245380000000 1.0
C      1  0.5252600000000  0.5445830000000  0.4421940000000 1.0
C      1  0.5252610000000  0.4588000000000  0.4397360000000 1.0
C      1  0.5252610000000  0.4299540000000  0.5205610000000 1.0
C      1  0.5252600000000  0.4979090000000  0.5729710000000 1.0
C      1  0.4747390000000  0.5687540000000  0.5245380000000 1.0
C      1  0.4747400000000  0.5445830000000  0.4421940000000 1.0
C      1  0.4747400000000  0.4588000000000  0.4397360000000 1.0
C      1  0.4747400000000  0.4299540000000  0.5205610000000 1.0
C      1  0.4747390000000  0.4979090000000  0.5729710000000 1.0
C      1  0.5278990000000  0.4180490000000  0.4701320000000 1.0
C      1  0.5278980000000  0.4462700000000  0.5687110000000 1.0
C      1  0.5278980000000  0.5487440000000  0.5723340000000 1.0
C      1  0.5278980000000  0.5838560000000  0.4759940000000 1.0
C      1  0.5278990000000  0.5030820000000  0.4128300000000 1.0
C      1  0.4721030000000  0.4180480000000  0.4701320000000 1.0
C      1  0.4721020000000  0.4462690000000  0.5687110000000 1.0
C      1  0.4721010000000  0.5487440000000  0.5723330000000 1.0
C      1  0.4721010000000  0.5838560000000  0.4759940000000 1.0
C      1  0.4721020000000  0.5030820000000  0.4128300000000 1.0
C      1  0.5319570000000  0.4763860000000  0.4180150000000 1.0
C      1  0.5319570000000  0.4147310000000  0.4971250000000 1.0
C      1  0.5319560000000  0.4709160000000  0.5802080000000 1.0
C      1  0.5319550000000  0.5672950000000  0.5524470000000 1.0
C      1  0.5319560000000  0.5706750000000  0.4522070000000 1.0
C      1  0.4680440000000  0.4763850000000  0.4180150000000 1.0
C      1  0.4680440000000  0.4147300000000  0.4971240000000 1.0
C      1  0.4680430000000  0.4709150000000  0.5802070000000 1.0
C      1  0.4680430000000  0.5672940000000  0.5524460000000 1.0
C      1  0.4680430000000  0.5706750000000  0.4522060000000 1.0
C      1  0.4695320000000  0.4875390000000  0.4792170000000 1.0
C      1  0.4695320000000  0.4763840000000  0.5054280000000 1.0
C      1  0.4695310000000  0.4978640000000  0.5241370000000 1.0
C      1  0.4695310000000  0.5222960000000  0.5094900000000 1.0
C      1  0.4695310000000  0.5159150000000  0.4817270000000 1.0
C      1  0.5304690000000  0.4875400000000  0.4792170000000 1.0
C      1  0.5304690000000  0.4763840000000  0.5054280000000 1.0
C      1  0.5304680000000  0.4978650000000  0.5241380000000 1.0
C      1  0.5304680000000  0.5222970000000  0.5094900000000 1.0
C      1  0.5304680000000  0.5159160000000  0.4817270000000 1.0
END
