TITL C-2323478-8180-377 40.4247419819681 125000 -359.728716784313 0 0 60 (C1) n - 1
REM
REM in /home/bkarasulu/CARBON/AIRSS/Generating-Clusters/LCBOP/Higher-Symm/Only-C60/SD-CG/FIRE-HFTN
REM
REM
REM
REM
REM
REM ./C.cell (50c204cfd26239f34c78669fe23a5462)
REM
REM compiler GCC version 9.2.1 20190827 (Red Hat 9.2.1-1)
REM options -cpp -mtune=generic -march=x86-64 -g -O0 -fpre-include=/usr/include/finclude/math-vector-fortran.h
REM seed -858386696 -1781832788 1433802410 -1180609699 -1824914455 2016831571 -1492070591 -1864038714 884882256 -1806033419 1918120937 -2123068913 -355111811 2103289384 -2025994692 468143566 1455822057 -1118835137 -1146296659 100619196 1730844260 -1329995099 -729973697 1411662456 1392214380 1353120299 -986163296 -922426071 562367717 -921864364 -294892125 589136659 -1669464723
REM
CELL 1.54180   50.00000   50.00000   50.00000   90.00000   90.00000   90.00000
LATT -1
SFAC C  
C      1  0.5387470000000  0.5393300000000  0.5135580000000 1.0
C      1  0.5031750000000  0.5478520000000  0.5581770000000 1.0
C      1  0.5500870000000  0.5273710000000  0.5967940000000 1.0
C      1  0.5973850000000  0.4624690000000  0.4636070000000 1.0
C      1  0.4084720000000  0.4646950000000  0.5340690000000 1.0
C      1  0.4306460000000  0.5447430000000  0.4671650000000 1.0
C      1  0.5330650000000  0.4059960000000  0.4652530000000 1.0
C      1  0.4691400000000  0.4153850000000  0.5389540000000 1.0
C      1  0.4781380000000  0.5925370000000  0.4620360000000 1.0
C      1  0.5319200000000  0.4635940000000  0.4062900000000 1.0
C      1  0.4393730000000  0.5135600000000  0.5529880000000 1.0
C      1  0.4683390000000  0.5361280000000  0.4164730000000 1.0
C      1  0.4382330000000  0.5579430000000  0.4982720000000 1.0
C      1  0.4619790000000  0.5886120000000  0.5484390000000 1.0
C      1  0.4586070000000  0.5126920000000  0.5713060000000 1.0
C      1  0.4512090000000  0.4505430000000  0.4925340000000 1.0
C      1  0.5538510000000  0.4495820000000  0.5047750000000 1.0
C      1  0.5881970000000  0.5492670000000  0.4773830000000 1.0
C      1  0.4898190000000  0.4471490000000  0.4493000000000 1.0
C      1  0.5189100000000  0.4477970000000  0.5511110000000 1.0
C      1  0.5118170000000  0.5420230000000  0.4615760000000 1.0
C      1  0.4481710000000  0.4872660000000  0.4485050000000 1.0
C      1  0.5574010000000  0.4914480000000  0.5452430000000 1.0
C      1  0.5549280000000  0.5060150000000  0.4425170000000 1.0
C      1  0.5386070000000  0.4909410000000  0.5658370000000 1.0
C      1  0.5740210000000  0.5265580000000  0.4823760000000 1.0
C      1  0.4733640000000  0.5732240000000  0.5289980000000 1.0
C      1  0.5282600000000  0.5033890000000  0.4347230000000 1.0
C      1  0.4850330000000  0.5065250000000  0.5775560000000 1.0
C      1  0.4727960000000  0.4912570000000  0.4359250000000 1.0
C      1  0.5669640000000  0.4738710000000  0.5004240000000 1.0
C      1  0.4349920000000  0.4733030000000  0.4938990000000 1.0
C      1  0.4294270000000  0.5273800000000  0.5070510000000 1.0
C      1  0.4938150000000  0.4341600000000  0.4736800000000 1.0
C      1  0.5120630000000  0.4356070000000  0.5269220000000 1.0
C      1  0.5037220000000  0.5568160000000  0.4839330000000 1.0
C      1  0.4939540000000  0.4796450000000  0.5783650000000 1.0
C      1  0.4257150000000  0.5181370000000  0.4781100000000 1.0
C      1  0.4976760000000  0.5587250000000  0.5330200000000 1.0
C      1  0.4823300000000  0.5177560000000  0.4309720000000 1.0
C      1  0.5325790000000  0.5152700000000  0.5797600000000 1.0
C      1  0.5182560000000  0.4785430000000  0.4245830000000 1.0
C      1  0.4240290000000  0.4814280000000  0.5190890000000 1.0
C      1  0.5796690000000  0.4794570000000  0.4754560000000 1.0
C      1  0.5595110000000  0.5219740000000  0.5065520000000 1.0
C      1  0.5197210000000  0.4242420000000  0.4805020000000 1.0
C      1  0.4848390000000  0.4288790000000  0.5211430000000 1.0
C      1  0.4810530000000  0.5740650000000  0.4818730000000 1.0
C      1  0.5183580000000  0.4706360000000  0.5670880000000 1.0
C      1  0.5724900000000  0.5046730000000  0.4641800000000 1.0
C      1  0.4621120000000  0.5708720000000  0.5029780000000 1.0
C      1  0.5624770000000  0.4959390000000  0.5181830000000 1.0
C      1  0.4338110000000  0.4918880000000  0.4720870000000 1.0
C      1  0.4297360000000  0.5082570000000  0.5273860000000 1.0
C      1  0.5302570000000  0.4346710000000  0.5049040000000 1.0
C      1  0.5084790000000  0.5229510000000  0.4413990000000 1.0
C      1  0.4926150000000  0.4707200000000  0.4345950000000 1.0
C      1  0.4752630000000  0.4366150000000  0.4952990000000 1.0
C      1  0.5140500000000  0.5521550000000  0.5103210000000 1.0
C      1  0.5063480000000  0.5254690000000  0.5745030000000 1.0
END
