TITL C-2323481-8605-336 11.4212469938676 125000 -353.293714229453 0 0 60 (C1) n - 1
REM
REM in /home/bkarasulu/CARBON/AIRSS/Generating-Clusters/LCBOP/Higher-Symm/Only-C60/SD-CG/FIRE-HFTN
REM
REM
REM
REM
REM
REM ./C.cell (50c204cfd26239f34c78669fe23a5462)
REM
REM compiler GCC version 9.2.1 20190827 (Red Hat 9.2.1-1)
REM options -cpp -mtune=generic -march=x86-64 -g -O0 -fpre-include=/usr/include/finclude/math-vector-fortran.h
REM seed -273865973 -1793056370 -45825577 -15139843 -48162419 -1090573450 -569957229 1990755332 562541614 -1613383231 2050518463 -291693664 1350984087 1513243136 1349863788 -293042152 -55512518 -193250011 -794528800 -1310341925 -1182420105 -2085143198 936878532 -1781240848 304647330 -331141020 1050718339 -1991622821 -211387710 397941986 399230099 -1413501903 334297133
REM
CELL 1.54180   50.00000   50.00000   50.00000   90.00000   90.00000   90.00000
LATT -1
SFAC C  
C      1  0.5409610000000  0.4578450000000  0.3950650000000 1.0
C      1  0.4794230000000  0.5003900000000  0.5804570000000 1.0
C      1  0.4764040000000  0.4671100000000  0.4733470000000 1.0
C      1  0.5537250000000  0.4987930000000  0.5824220000000 1.0
C      1  0.4365890000000  0.5174540000000  0.4382110000000 1.0
C      1  0.5231590000000  0.5023110000000  0.4041410000000 1.0
C      1  0.4478230000000  0.5111070000000  0.4624300000000 1.0
C      1  0.5291230000000  0.4811830000000  0.3888570000000 1.0
C      1  0.5452870000000  0.5871870000000  0.5364130000000 1.0
C      1  0.5347870000000  0.4775330000000  0.4631660000000 1.0
C      1  0.4752630000000  0.5465690000000  0.5665990000000 1.0
C      1  0.4869110000000  0.6246570000000  0.5684450000000 1.0
C      1  0.5514090000000  0.5114320000000  0.5582480000000 1.0
C      1  0.5052590000000  0.4123970000000  0.4647090000000 1.0
C      1  0.4667030000000  0.4156870000000  0.4899940000000 1.0
C      1  0.5637710000000  0.5360640000000  0.4953030000000 1.0
C      1  0.5487230000000  0.4498900000000  0.4195290000000 1.0
C      1  0.4804050000000  0.4767250000000  0.5923650000000 1.0
C      1  0.3966280000000  0.4721040000000  0.4621250000000 1.0
C      1  0.5030430000000  0.5158560000000  0.4713960000000 1.0
C      1  0.5258740000000  0.5150510000000  0.4289210000000 1.0
C      1  0.5450020000000  0.4836660000000  0.5117330000000 1.0
C      1  0.4871800000000  0.5126120000000  0.5338790000000 1.0
C      1  0.4899370000000  0.4123150000000  0.5074640000000 1.0
C      1  0.5145670000000  0.5310310000000  0.4926740000000 1.0
C      1  0.4187420000000  0.4737220000000  0.4792390000000 1.0
C      1  0.5304850000000  0.4404770000000  0.4955740000000 1.0
C      1  0.5313400000000  0.5427260000000  0.4295380000000 1.0
C      1  0.4423030000000  0.4282350000000  0.4962700000000 1.0
C      1  0.5370540000000  0.5691780000000  0.4721190000000 1.0
C      1  0.5496530000000  0.4962340000000  0.5347010000000 1.0
C      1  0.4824930000000  0.4502870000000  0.5933420000000 1.0
C      1  0.4259050000000  0.5136830000000  0.5055550000000 1.0
C      1  0.5483510000000  0.5653220000000  0.5513250000000 1.0
C      1  0.4942480000000  0.6496100000000  0.5666730000000 1.0
C      1  0.4752360000000  0.5166950000000  0.4666230000000 1.0
C      1  0.5385200000000  0.5453180000000  0.4878720000000 1.0
C      1  0.4775620000000  0.4205270000000  0.4626210000000 1.0
C      1  0.5384900000000  0.5930900000000  0.4865920000000 1.0
C      1  0.5505700000000  0.5394760000000  0.5572030000000 1.0
C      1  0.5891430000000  0.5310990000000  0.4986600000000 1.0
C      1  0.5345600000000  0.5646430000000  0.4446070000000 1.0
C      1  0.5417000000000  0.5987590000000  0.5126080000000 1.0
C      1  0.4802170000000  0.5990410000000  0.5697050000000 1.0
C      1  0.4802840000000  0.5197890000000  0.5603930000000 1.0
C      1  0.3764320000000  0.4710430000000  0.4456900000000 1.0
C      1  0.4273640000000  0.4501680000000  0.4922640000000 1.0
C      1  0.5211970000000  0.5016570000000  0.4542030000000 1.0
C      1  0.4737580000000  0.4474830000000  0.4550340000000 1.0
C      1  0.4313140000000  0.4993130000000  0.4827800000000 1.0
C      1  0.4781870000000  0.4744540000000  0.4990450000000 1.0
C      1  0.4796320000000  0.4884830000000  0.5216590000000 1.0
C      1  0.4851000000000  0.4264690000000  0.5819070000000 1.0
C      1  0.4892230000000  0.4063030000000  0.5344830000000 1.0
C      1  0.4758470000000  0.5729060000000  0.5693990000000 1.0
C      1  0.5024340000000  0.5298200000000  0.5177940000000 1.0
C      1  0.5364590000000  0.4677560000000  0.4903240000000 1.0
C      1  0.5142880000000  0.4178970000000  0.4918250000000 1.0
C      1  0.4875310000000  0.4109050000000  0.5605430000000 1.0
C      1  0.5464200000000  0.4604650000000  0.4439410000000 1.0
END
