TITL C-2323492-8884-383 -132.076044485614 125000 -359.336248722934 0 0 60 (D2) n - 1
REM
REM in /home/bkarasulu/CARBON/AIRSS/Generating-Clusters/LCBOP/Higher-Symm/Only-C60/SD-CG/FIRE-HFTN
REM
REM
REM
REM
REM
REM ./C.cell (50c204cfd26239f34c78669fe23a5462)
REM
REM compiler GCC version 9.2.1 20190827 (Red Hat 9.2.1-1)
REM options -cpp -mtune=generic -march=x86-64 -g -O0 -fpre-include=/usr/include/finclude/math-vector-fortran.h
REM seed -736999224 -1602345366 2061914683 2126035548 -922928264 1993471750 -274298630 1458020492 565485639 -1092869602 820348421 -1380453552 -719890491 -1517629104 -232410076 -827739802 -1425447555 -1361113416 -388561850 -1138098741 338606788 689278362 -1547916296 -1868980879 2123914724 602056558 -1775387983 1010655311 1619540019 -972096688 520081548 1871773060 -87347053
REM
CELL 1.54180   50.00000   50.00000   50.00000   90.00000   90.00000   90.00000
LATT -1
SFAC C  
C      1  0.5573910000000  0.4650860000000  0.4757620000000 1.0
C      1  0.5573890000000  0.5349150000000  0.5242390000000 1.0
C      1  0.4426100000000  0.5349160000000  0.4757640000000 1.0
C      1  0.4426100000000  0.4650830000000  0.5242350000000 1.0
C      1  0.4716160000000  0.5121330000000  0.5082930000000 1.0
C      1  0.4716170000000  0.4878660000000  0.4917060000000 1.0
C      1  0.5283840000000  0.4878660000000  0.5082930000000 1.0
C      1  0.5283830000000  0.5121350000000  0.4917080000000 1.0
C      1  0.5572210000000  0.5053320000000  0.5614860000000 1.0
C      1  0.5572220000000  0.4946700000000  0.4385150000000 1.0
C      1  0.4427780000000  0.4946640000000  0.5614850000000 1.0
C      1  0.4427790000000  0.5053350000000  0.4385150000000 1.0
C      1  0.5040830000000  0.4344580000000  0.5464980000000 1.0
C      1  0.5040820000000  0.5655420000000  0.4535020000000 1.0
C      1  0.4959160000000  0.5655390000000  0.5465020000000 1.0
C      1  0.4959190000000  0.4344610000000  0.4534980000000 1.0
C      1  0.5493060000000  0.4399510000000  0.4865070000000 1.0
C      1  0.5493050000000  0.5600510000000  0.5134940000000 1.0
C      1  0.4506940000000  0.5600500000000  0.4865100000000 1.0
C      1  0.4506950000000  0.4399480000000  0.5134890000000 1.0
C      1  0.4643920000000  0.5359810000000  0.5644550000000 1.0
C      1  0.4643940000000  0.4640180000000  0.4355440000000 1.0
C      1  0.5356070000000  0.4640140000000  0.5644530000000 1.0
C      1  0.5356070000000  0.5359870000000  0.4355480000000 1.0
C      1  0.4453010000000  0.5206310000000  0.5508020000000 1.0
C      1  0.4453030000000  0.4793680000000  0.4491970000000 1.0
C      1  0.5546980000000  0.4793660000000  0.5508010000000 1.0
C      1  0.5546980000000  0.5206360000000  0.4492000000000 1.0
C      1  0.5084370000000  0.5395670000000  0.4425860000000 1.0
C      1  0.5084370000000  0.4604330000000  0.5574140000000 1.0
C      1  0.4915640000000  0.4604370000000  0.4425830000000 1.0
C      1  0.4915620000000  0.5395630000000  0.5574170000000 1.0
C      1  0.4922110000000  0.5161680000000  0.4481490000000 1.0
C      1  0.4922110000000  0.4838310000000  0.5518510000000 1.0
C      1  0.5077900000000  0.4838350000000  0.4481480000000 1.0
C      1  0.5077890000000  0.5161650000000  0.5518520000000 1.0
C      1  0.4729110000000  0.5603950000000  0.5039210000000 1.0
C      1  0.4729120000000  0.4396040000000  0.4960780000000 1.0
C      1  0.5270890000000  0.4396040000000  0.5039170000000 1.0
C      1  0.5270880000000  0.5603960000000  0.4960830000000 1.0
C      1  0.4866550000000  0.5350580000000  0.5027880000000 1.0
C      1  0.4866560000000  0.4649420000000  0.4972120000000 1.0
C      1  0.5133450000000  0.4649420000000  0.5027860000000 1.0
C      1  0.5133440000000  0.5350590000000  0.4972140000000 1.0
C      1  0.4277830000000  0.4852540000000  0.4989880000000 1.0
C      1  0.4277820000000  0.5147440000000  0.5010110000000 1.0
C      1  0.5722170000000  0.5147460000000  0.4989900000000 1.0
C      1  0.5722180000000  0.4852560000000  0.5010110000000 1.0
C      1  0.4583110000000  0.5236240000000  0.4533470000000 1.0
C      1  0.4583110000000  0.4763750000000  0.5466520000000 1.0
C      1  0.5416900000000  0.4763790000000  0.4533460000000 1.0
C      1  0.5416890000000  0.5236220000000  0.5466550000000 1.0
C      1  0.5534630000000  0.4805130000000  0.5222880000000 1.0
C      1  0.5534630000000  0.5194880000000  0.4777130000000 1.0
C      1  0.4465360000000  0.5194850000000  0.5222880000000 1.0
C      1  0.4465370000000  0.4805130000000  0.4777110000000 1.0
C      1  0.5177000000000  0.4238130000000  0.5253460000000 1.0
C      1  0.5176990000000  0.5761880000000  0.4746540000000 1.0
C      1  0.4822990000000  0.5761850000000  0.5253520000000 1.0
C      1  0.4823020000000  0.4238140000000  0.4746480000000 1.0
END
