TITL C-2323484-8600-485 20.617679761313 125000 -352.107494535126 0 0 60 (D5) n - 1
REM
REM in /home/bkarasulu/CARBON/AIRSS/Generating-Clusters/LCBOP/Higher-Symm/Only-C60/SD-CG/FIRE-HFTN
REM
REM
REM
REM
REM
REM ./C.cell (50c204cfd26239f34c78669fe23a5462)
REM
REM compiler GCC version 9.2.1 20190827 (Red Hat 9.2.1-1)
REM options -cpp -mtune=generic -march=x86-64 -g -O0 -fpre-include=/usr/include/finclude/math-vector-fortran.h
REM seed -435861668 -284599353 1725447491 1231037970 -263511141 2054755781 -1465505441 46602107 -297397324 627964895 -459361381 307960114 -1218295007 -643102722 1018433756 1723711532 -1706183236 1651800579 1000672635 241494864 953612409 1805789607 -225501276 -108588052 -1563785584 -509153138 56924708 983189646 -935632825 -1587511494 1264524012 -1980749604 952889616
REM
CELL 1.54180   50.00000   50.00000   50.00000   90.00000   90.00000   90.00000
LATT -1
SFAC C  
C      1  0.5490210000000  0.4590250000000  0.4857430000000 1.0
C      1  0.5490210000000  0.4737790000000  0.5345640000000 1.0
C      1  0.5490210000000  0.5247690000000  0.5356180000000 1.0
C      1  0.5490210000000  0.5415290000000  0.4874500000000 1.0
C      1  0.5490210000000  0.5008970000000  0.4566250000000 1.0
C      1  0.4509790000000  0.4590250000000  0.5142570000000 1.0
C      1  0.4509790000000  0.4737790000000  0.4654360000000 1.0
C      1  0.4509790000000  0.5247690000000  0.4643820000000 1.0
C      1  0.4509790000000  0.5415290000000  0.5125500000000 1.0
C      1  0.4509790000000  0.5008970000000  0.5433750000000 1.0
C      1  0.4672240000000  0.4562820000000  0.4496910000000 1.0
C      1  0.4672240000000  0.4386440000000  0.5260310000000 1.0
C      1  0.4672240000000  0.5057970000000  0.5663970000000 1.0
C      1  0.4672240000000  0.5649390000000  0.5150040000000 1.0
C      1  0.4672240000000  0.5343370000000  0.4428760000000 1.0
C      1  0.5327760000000  0.4562830000000  0.5503090000000 1.0
C      1  0.5327760000000  0.4386440000000  0.4739680000000 1.0
C      1  0.5327760000000  0.5057970000000  0.4336030000000 1.0
C      1  0.5327760000000  0.5649390000000  0.4849960000000 1.0
C      1  0.5327760000000  0.5343370000000  0.5571240000000 1.0
C      1  0.4725620000000  0.5138790000000  0.4808390000000 1.0
C      1  0.4725620000000  0.4860660000000  0.4808790000000 1.0
C      1  0.4725620000000  0.4775090000000  0.5073430000000 1.0
C      1  0.4725620000000  0.5000340000000  0.5236600000000 1.0
C      1  0.4725620000000  0.5225120000000  0.5072790000000 1.0
C      1  0.5274380000000  0.5138800000000  0.5191610000000 1.0
C      1  0.5274380000000  0.4860660000000  0.5191210000000 1.0
C      1  0.5274380000000  0.4775090000000  0.4926560000000 1.0
C      1  0.5274380000000  0.5000340000000  0.4763400000000 1.0
C      1  0.5274380000000  0.5225120000000  0.4927210000000 1.0
C      1  0.5726680000000  0.5147300000000  0.5211790000000 1.0
C      1  0.5726680000000  0.5246940000000  0.4925360000000 1.0
C      1  0.5726680000000  0.5005320000000  0.4742080000000 1.0
C      1  0.5726680000000  0.4756350000000  0.4915240000000 1.0
C      1  0.5726680000000  0.4844090000000  0.5205540000000 1.0
C      1  0.4273320000000  0.5147300000000  0.4788210000000 1.0
C      1  0.4273320000000  0.5246940000000  0.5074640000000 1.0
C      1  0.4273320000000  0.5005320000000  0.5257920000000 1.0
C      1  0.4273320000000  0.4756340000000  0.5084760000000 1.0
C      1  0.4273320000000  0.4844090000000  0.4794460000000 1.0
C      1  0.4857820000000  0.4298580000000  0.4978130000000 1.0
C      1  0.4857820000000  0.4762460000000  0.5660330000000 1.0
C      1  0.4857820000000  0.5554600000000  0.5429970000000 1.0
C      1  0.4857820000000  0.5580310000000  0.4605410000000 1.0
C      1  0.4857820000000  0.4804050000000  0.4326160000000 1.0
C      1  0.5142180000000  0.4298580000000  0.5021860000000 1.0
C      1  0.5142180000000  0.4762460000000  0.4339670000000 1.0
C      1  0.5142180000000  0.5554610000000  0.4570030000000 1.0
C      1  0.5142180000000  0.5580310000000  0.5394590000000 1.0
C      1  0.5142180000000  0.4804040000000  0.5673840000000 1.0
C      1  0.5233110000000  0.4355480000000  0.5304700000000 1.0
C      1  0.5233110000000  0.5090620000000  0.5707130000000 1.0
C      1  0.5233110000000  0.5700530000000  0.5132330000000 1.0
C      1  0.5233110000000  0.5342330000000  0.4374650000000 1.0
C      1  0.5233110000000  0.4511040000000  0.4481190000000 1.0
C      1  0.4766890000000  0.4355480000000  0.4695290000000 1.0
C      1  0.4766890000000  0.5090620000000  0.4292870000000 1.0
C      1  0.4766890000000  0.5700530000000  0.4867670000000 1.0
C      1  0.4766890000000  0.5342320000000  0.5625350000000 1.0
C      1  0.4766890000000  0.4511040000000  0.5518810000000 1.0
END
