TITL C-2323478-8180-386 0.0617655070886982 125000 -349.179329446972 0 0 60 (C3i) n - 1
REM
REM in /home/bkarasulu/CARBON/AIRSS/Generating-Clusters/LCBOP/Higher-Symm/Only-C60/SD-CG/FIRE-HFTN
REM
REM
REM
REM
REM
REM ./C.cell (50c204cfd26239f34c78669fe23a5462)
REM
REM compiler GCC version 9.2.1 20190827 (Red Hat 9.2.1-1)
REM options -cpp -mtune=generic -march=x86-64 -g -O0 -fpre-include=/usr/include/finclude/math-vector-fortran.h
REM seed -637585341 -1290819800 1111933275 -1175666229 -1324062686 -136515767 684597942 -1587342298 -1625962876 -1644427167 -1676680594 -1192190844 -755540560 -331417265 1817890888 -2078691723 -788815169 915880996 1030021875 1120413292 -1523087221 656926673 -779312688 -752200074 1776231729 -2000823699 1474392099 47395008 -277699934 2111003609 -672361266 -1109108076 -2117569472
REM
CELL 1.54180   50.00000   50.00000   50.00000   90.00000   90.00000   90.00000
LATT -1
SFAC C  
C      1  0.5221470000000  0.4284150000000  0.5076290000000 1.0
C      1  0.4490790000000  0.4450280000000  0.4923710000000 1.0
C      1  0.4269320000000  0.5166120000000  0.5076290000000 1.0
C      1  0.4778530000000  0.5715850000000  0.4923710000000 1.0
C      1  0.5509210000000  0.5549720000000  0.5076290000000 1.0
C      1  0.5730680000000  0.4833880000000  0.4923710000000 1.0
C      1  0.5592200000000  0.3954840000000  0.6010250000000 1.0
C      1  0.4390970000000  0.3964560000000  0.3989750000000 1.0
C      1  0.3798760000000  0.5009710000000  0.6010240000000 1.0
C      1  0.4407800000000  0.6045160000000  0.3989750000000 1.0
C      1  0.5609030000000  0.6035440000000  0.6010250000000 1.0
C      1  0.6201240000000  0.4990290000000  0.3989760000000 1.0
C      1  0.5629400000000  0.4589500000000  0.4989080000000 1.0
C      1  0.4959190000000  0.4249670000000  0.5010920000000 1.0
C      1  0.4329790000000  0.4660170000000  0.4989080000000 1.0
C      1  0.4370600000000  0.5410500000000  0.5010920000000 1.0
C      1  0.5040810000000  0.5750330000000  0.4989080000000 1.0
C      1  0.5670210000000  0.5339830000000  0.5010920000000 1.0
C      1  0.5720970000000  0.5109730000000  0.4844030000000 1.0
C      1  0.5455520000000  0.4430490000000  0.5155980000000 1.0
C      1  0.4734550000000  0.4320760000000  0.4844020000000 1.0
C      1  0.4279030000000  0.4890270000000  0.5155970000000 1.0
C      1  0.4544480000000  0.5569510000000  0.4844020000000 1.0
C      1  0.5265450000000  0.5679240000000  0.5155980000000 1.0
C      1  0.5472340000000  0.5913480000000  0.5824760000000 1.0
C      1  0.6027280000000  0.5047680000000  0.4175250000000 1.0
C      1  0.5554920000000  0.4134190000000  0.5824750000000 1.0
C      1  0.4527660000000  0.4086520000000  0.4175240000000 1.0
C      1  0.3972720000000  0.4952320000000  0.5824750000000 1.0
C      1  0.4445080000000  0.5865810000000  0.4175250000000 1.0
C      1  0.5030640000000  0.4505020000000  0.4519380000000 1.0
C      1  0.4586650000000  0.4725980000000  0.5480620000000 1.0
C      1  0.4556020000000  0.5220960000000  0.4519380000000 1.0
C      1  0.4969360000000  0.5494980000000  0.5480620000000 1.0
C      1  0.5413350000000  0.5274020000000  0.4519380000000 1.0
C      1  0.5443980000000  0.4779040000000  0.5480620000000 1.0
C      1  0.4526670000000  0.5497940000000  0.4565360000000 1.0
C      1  0.5194560000000  0.5658890000000  0.5434640000000 1.0
C      1  0.5667890000000  0.5160950000000  0.4565360000000 1.0
C      1  0.5473330000000  0.4502060000000  0.5434640000000 1.0
C      1  0.4805440000000  0.4341110000000  0.4565360000000 1.0
C      1  0.4332110000000  0.4839050000000  0.5434640000000 1.0
C      1  0.5169160000000  0.4660920000000  0.4689120000000 1.0
C      1  0.4790930000000  0.4683960000000  0.5310880000000 1.0
C      1  0.4621770000000  0.5023040000000  0.4689120000000 1.0
C      1  0.4830840000000  0.5339080000000  0.5310880000000 1.0
C      1  0.5209070000000  0.5316040000000  0.4689120000000 1.0
C      1  0.5378230000000  0.4976960000000  0.5310880000000 1.0
C      1  0.5516800000000  0.4316110000000  0.5635960000000 1.0
C      1  0.4666140000000  0.4210490000000  0.4364040000000 1.0
C      1  0.4149330000000  0.4894380000000  0.5635960000000 1.0
C      1  0.4483200000000  0.5683890000000  0.4364040000000 1.0
C      1  0.5333860000000  0.5789510000000  0.5635960000000 1.0
C      1  0.5850670000000  0.5105620000000  0.4364040000000 1.0
C      1  0.4732980000000  0.5003210000000  0.4946570000000 1.0
C      1  0.4869270000000  0.5232850000000  0.5053430000000 1.0
C      1  0.5136290000000  0.5229650000000  0.4946570000000 1.0
C      1  0.5267020000000  0.4996790000000  0.5053430000000 1.0
C      1  0.5130730000000  0.4767150000000  0.4946570000000 1.0
C      1  0.4863710000000  0.4770350000000  0.5053430000000 1.0
END
