TITL C-2323485-8600-139 6.25044973221986e-06 125000 -366.807585472657 0 0 60 (C1) n - 1
REM
REM in /home/bkarasulu/CARBON/AIRSS/Generating-Clusters/LCBOP/Higher-Symm/Only-C60/SD-CG/FIRE-HFTN
REM
REM
REM
REM
REM
REM ./C.cell (50c204cfd26239f34c78669fe23a5462)
REM
REM compiler GCC version 9.2.1 20190827 (Red Hat 9.2.1-1)
REM options -cpp -mtune=generic -march=x86-64 -g -O0 -fpre-include=/usr/include/finclude/math-vector-fortran.h
REM seed 155378096 -1911797054 1574915905 -50301053 1613371180 -1109230697 64415330 1325449141 -105321041 2005581642 1884443163 708215567 209551056 1414111176 -656418989 1142997174 660547950 564370872 2048837046 -580917080 1851267978 -934816049 -1644227898 1804834544 1011047438 297010127 -1948041688 1574238038 -1981885475 -1245353329 1852202744 -1712809192 -556301044
REM
CELL 1.54180   50.00000   50.00000   50.00000   90.00000   90.00000   90.00000
LATT -1
SFAC C  
C      1  0.5448090000000  0.4480870000000  0.5017560000000 1.0
C      1  0.5455230000000  0.4987510000000  0.4487320000000 1.0
C      1  0.5467840000000  0.5512460000000  0.4996150000000 1.0
C      1  0.5452400000000  0.5009290000000  0.5523480000000 1.0
C      1  0.4670670000000  0.5547300000000  0.5515870000000 1.0
C      1  0.4655360000000  0.4486070000000  0.5541790000000 1.0
C      1  0.4655600000000  0.4470670000000  0.4483700000000 1.0
C      1  0.4372490000000  0.5303690000000  0.4230550000000 1.0
C      1  0.4606010000000  0.5200530000000  0.4326400000000 1.0
C      1  0.4665620000000  0.5640500000000  0.5246990000000 1.0
C      1  0.4647440000000  0.4753350000000  0.5638870000000 1.0
C      1  0.4642820000000  0.4374890000000  0.4751260000000 1.0
C      1  0.5288870000000  0.5732320000000  0.4929500000000 1.0
C      1  0.5259620000000  0.5080880000000  0.5731950000000 1.0
C      1  0.5251850000000  0.4274280000000  0.5085780000000 1.0
C      1  0.5254570000000  0.4928450000000  0.4281600000000 1.0
C      1  0.5080590000000  0.4793250000000  0.5092640000000 1.0
C      1  0.5083260000000  0.4911870000000  0.4793760000000 1.0
C      1  0.5085420000000  0.5217250000000  0.4910030000000 1.0
C      1  0.5082500000000  0.5090740000000  0.5213990000000 1.0
C      1  0.5367880000000  0.4827610000000  0.4703020000000 1.0
C      1  0.5375470000000  0.5300810000000  0.4834510000000 1.0
C      1  0.5369540000000  0.5169190000000  0.5306600000000 1.0
C      1  0.5363680000000  0.4698200000000  0.5176900000000 1.0
C      1  0.5123460000000  0.4810760000000  0.5779670000000 1.0
C      1  0.5117800000000  0.4229530000000  0.4814000000000 1.0
C      1  0.5127640000000  0.5207140000000  0.4244560000000 1.0
C      1  0.5147040000000  0.5777400000000  0.5195900000000 1.0
C      1  0.4851050000000  0.5405190000000  0.4865940000000 1.0
C      1  0.4853050000000  0.5124450000000  0.5407620000000 1.0
C      1  0.4847140000000  0.4602950000000  0.5123790000000 1.0
C      1  0.4849550000000  0.4886560000000  0.4602180000000 1.0
C      1  0.4432590000000  0.4788270000000  0.4981360000000 1.0
C      1  0.4431530000000  0.5041410000000  0.4772380000000 1.0
C      1  0.4442840000000  0.5226420000000  0.5042470000000 1.0
C      1  0.4439840000000  0.4977570000000  0.5223460000000 1.0
C      1  0.4859290000000  0.4657770000000  0.4429910000000 1.0
C      1  0.4892630000000  0.5599310000000  0.4663390000000 1.0
C      1  0.4867100000000  0.5354490000000  0.5576360000000 1.0
C      1  0.4855980000000  0.4430400000000  0.5351790000000 1.0
C      1  0.4629100000000  0.5437250000000  0.5044680000000 1.0
C      1  0.4623400000000  0.4956520000000  0.5436030000000 1.0
C      1  0.4617390000000  0.4577880000000  0.4954700000000 1.0
C      1  0.4619510000000  0.5051650000000  0.4569070000000 1.0
C      1  0.4845050000000  0.4803120000000  0.5838070000000 1.0
C      1  0.4838740000000  0.4174370000000  0.4803720000000 1.0
C      1  0.4851730000000  0.5233680000000  0.4190680000000 1.0
C      1  0.4868160000000  0.5834360000000  0.5196110000000 1.0
C      1  0.5454800000000  0.5437170000000  0.5269050000000 1.0
C      1  0.5441660000000  0.4736090000000  0.5448190000000 1.0
C      1  0.5442970000000  0.4555840000000  0.4743780000000 1.0
C      1  0.5457330000000  0.5260490000000  0.4564400000000 1.0
C      1  0.5242970000000  0.4405960000000  0.4587480000000 1.0
C      1  0.5266230000000  0.5424930000000  0.4413830000000 1.0
C      1  0.5260790000000  0.5596230000000  0.5423160000000 1.0
C      1  0.5243160000000  0.4582700000000  0.5602110000000 1.0
C      1  0.5138840000000  0.5411760000000  0.5635710000000 1.0
C      1  0.5125900000000  0.4370460000000  0.5414550000000 1.0
C      1  0.5129670000000  0.4595910000000  0.4374270000000 1.0
C      1  0.5161240000000  0.5642020000000  0.4595360000000 1.0
END
