TITL C-2323478-8180-167 -4.95503255388465e-05 125000 -358.966896375232 0 0 60 (C1) n - 1
REM
REM in /home/bkarasulu/CARBON/AIRSS/Generating-Clusters/LCBOP/Higher-Symm/Only-C60/SD-CG/FIRE-HFTN
REM
REM
REM
REM
REM
REM ./C.cell (50c204cfd26239f34c78669fe23a5462)
REM
REM compiler GCC version 9.2.1 20190827 (Red Hat 9.2.1-1)
REM options -cpp -mtune=generic -march=x86-64 -g -O0 -fpre-include=/usr/include/finclude/math-vector-fortran.h
REM seed -2139743913 -230886028 -2003916755 2000438441 -1043994822 939785150 571187506 168644824 31197115 249476075 -662267398 2120034189 -594272310 804583691 -60717975 1791222470 1019369181 -335059524 1460039954 -906958555 1010814307 -518315534 1614937875 1958032235 -2097227927 -1336371068 -1286280785 -189348212 1924149554 -1821666354 1793019714 -1483385 1275176763
REM
CELL 1.54180   50.00000   50.00000   50.00000   90.00000   90.00000   90.00000
LATT -1
SFAC C  
C      1  0.5238540000000  0.5656700000000  0.4857110000000 1.0
C      1  0.4708120000000  0.4370450000000  0.4870970000000 1.0
C      1  0.5017460000000  0.5251280000000  0.4355020000000 1.0
C      1  0.5167470000000  0.4578640000000  0.4533420000000 1.0
C      1  0.5568160000000  0.5450090000000  0.4604210000000 1.0
C      1  0.4517300000000  0.4765980000000  0.4637810000000 1.0
C      1  0.4754660000000  0.5350210000000  0.4963100000000 1.0
C      1  0.5137390000000  0.4908460000000  0.5092990000000 1.0
C      1  0.4133450000000  0.4981480000000  0.4867040000000 1.0
C      1  0.5745040000000  0.5030220000000  0.4768400000000 1.0
C      1  0.5980280000000  0.4911390000000  0.4861560000000 1.0
C      1  0.4008140000000  0.5188700000000  0.4979370000000 1.0
C      1  0.4827330000000  0.5585420000000  0.5656050000000 1.0
C      1  0.5264990000000  0.4339790000000  0.5369540000000 1.0
C      1  0.4397500000000  0.5052640000000  0.5520630000000 1.0
C      1  0.5625120000000  0.4939800000000  0.5413970000000 1.0
C      1  0.4401250000000  0.4842100000000  0.5358110000000 1.0
C      1  0.5598780000000  0.5181070000000  0.5300810000000 1.0
C      1  0.4144180000000  0.5435180000000  0.5400000000000 1.0
C      1  0.5941490000000  0.4619210000000  0.5260650000000 1.0
C      1  0.5237600000000  0.4107950000000  0.5211940000000 1.0
C      1  0.4930520000000  0.5712350000000  0.5874650000000 1.0
C      1  0.5544150000000  0.4870650000000  0.4654960000000 1.0
C      1  0.4582360000000  0.4986740000000  0.4467680000000 1.0
C      1  0.4650380000000  0.4256740000000  0.5555860000000 1.0
C      1  0.5372870000000  0.5812100000000  0.5519530000000 1.0
C      1  0.4623980000000  0.4480210000000  0.5121380000000 1.0
C      1  0.5349140000000  0.5563700000000  0.5103950000000 1.0
C      1  0.5076050000000  0.4774280000000  0.5313190000000 1.0
C      1  0.4853980000000  0.5387290000000  0.5219450000000 1.0
C      1  0.4395130000000  0.5698620000000  0.4765310000000 1.0
C      1  0.5072560000000  0.4034400000000  0.5012930000000 1.0
C      1  0.4863720000000  0.4135770000000  0.4878180000000 1.0
C      1  0.4549890000000  0.5518180000000  0.4872220000000 1.0
C      1  0.4848830000000  0.4453890000000  0.4188200000000 1.0
C      1  0.5054680000000  0.5715480000000  0.4208440000000 1.0
C      1  0.5309090000000  0.5566370000000  0.4597060000000 1.0
C      1  0.4693390000000  0.4538870000000  0.4640450000000 1.0
C      1  0.5091140000000  0.4984490000000  0.4830190000000 1.0
C      1  0.4876860000000  0.5170070000000  0.4784620000000 1.0
C      1  0.5252710000000  0.4862090000000  0.4591140000000 1.0
C      1  0.4789180000000  0.5174100000000  0.4510880000000 1.0
C      1  0.5203620000000  0.5036140000000  0.4347030000000 1.0
C      1  0.5350800000000  0.4375280000000  0.4556700000000 1.0
C      1  0.4445740000000  0.4701860000000  0.5119630000000 1.0
C      1  0.5552750000000  0.5358750000000  0.5086450000000 1.0
C      1  0.6056730000000  0.4733890000000  0.5047030000000 1.0
C      1  0.4009140000000  0.5366760000000  0.5178810000000 1.0
C      1  0.5662060000000  0.5296100000000  0.4824960000000 1.0
C      1  0.4352540000000  0.4806420000000  0.4868530000000 1.0
C      1  0.5125480000000  0.5516690000000  0.4382380000000 1.0
C      1  0.4901530000000  0.4523140000000  0.4447430000000 1.0
C      1  0.4765510000000  0.4409150000000  0.5360650000000 1.0
C      1  0.5236640000000  0.5642100000000  0.5354480000000 1.0
C      1  0.5697040000000  0.4666760000000  0.5393140000000 1.0
C      1  0.4360040000000  0.5330200000000  0.5547230000000 1.0
C      1  0.4562170000000  0.5489170000000  0.5657400000000 1.0
C      1  0.5512170000000  0.4458660000000  0.5433270000000 1.0
C      1  0.4978690000000  0.5538840000000  0.5419010000000 1.0
C      1  0.5032490000000  0.4506950000000  0.5382890000000 1.0
END
