TITL C-2323483-8886-43 2.83746987515081e-06 125000 -327.63692256529 0 0 60 (Ci) n - 1
REM
REM in /home/bkarasulu/CARBON/AIRSS/Generating-Clusters/LCBOP/Higher-Symm/Only-C60/SD-CG/FIRE-HFTN
REM
REM
REM
REM
REM
REM ./C.cell (50c204cfd26239f34c78669fe23a5462)
REM
REM compiler GCC version 9.2.1 20190827 (Red Hat 9.2.1-1)
REM options -cpp -mtune=generic -march=x86-64 -g -O0 -fpre-include=/usr/include/finclude/math-vector-fortran.h
REM seed 91978897 1913627939 897491707 35328847 -299673052 728722422 1262093069 -827132802 726864176 1958132690 -1191465130 -204963365 -1041771990 -829428320 1100779065 -2017115833 1533173119 -800885124 1059389305 -198113871 1820743870 2066331163 312393718 811572082 -1452889977 2009413609 1800184380 -1577696984 137058304 869574588 390490327 655892914 1696665498
REM
CELL 1.54180   50.00000   50.00000   50.00000   90.00000   90.00000   90.00000
LATT -1
SFAC C  
C      1  0.4562850000000  0.5613370000000  0.4686950000000 1.0
C      1  0.5611970000000  0.4685430000000  0.4563570000000 1.0
C      1  0.4690870000000  0.4562900000000  0.5611430000000 1.0
C      1  0.4569850000000  0.4394880000000  0.5319880000000 1.0
C      1  0.5425460000000  0.5603980000000  0.5316480000000 1.0
C      1  0.5426290000000  0.4388470000000  0.4684340000000 1.0
C      1  0.5608240000000  0.5317080000000  0.5425750000000 1.0
C      1  0.4392010000000  0.4685810000000  0.5429570000000 1.0
C      1  0.4398730000000  0.5317570000000  0.4569500000000 1.0
C      1  0.4687460000000  0.5429900000000  0.4390110000000 1.0
C      1  0.5317640000000  0.4569390000000  0.4395480000000 1.0
C      1  0.5309630000000  0.5435650000000  0.5610780000000 1.0
C      1  0.5426580000000  0.5608000000000  0.4686140000000 1.0
C      1  0.4398070000000  0.4685330000000  0.4570290000000 1.0
C      1  0.5319840000000  0.4571650000000  0.5603370000000 1.0
C      1  0.5428020000000  0.4389740000000  0.5314390000000 1.0
C      1  0.4561040000000  0.5612570000000  0.5314150000000 1.0
C      1  0.4561690000000  0.4390300000000  0.4690450000000 1.0
C      1  0.4393870000000  0.5317110000000  0.5429710000000 1.0
C      1  0.5611540000000  0.4689050000000  0.5433190000000 1.0
C      1  0.5612780000000  0.5312200000000  0.4563050000000 1.0
C      1  0.5318440000000  0.5429140000000  0.4395820000000 1.0
C      1  0.4686450000000  0.4571160000000  0.4391840000000 1.0
C      1  0.4681270000000  0.5426800000000  0.5611440000000 1.0
C      1  0.5249510000000  0.5723770000000  0.5145180000000 1.0
C      1  0.5727250000000  0.5144830000000  0.5250320000000 1.0
C      1  0.5141840000000  0.5254670000000  0.5727140000000 1.0
C      1  0.5249380000000  0.4271940000000  0.4856670000000 1.0
C      1  0.4741160000000  0.5729610000000  0.4857700000000 1.0
C      1  0.4742810000000  0.4272940000000  0.5146940000000 1.0
C      1  0.5727580000000  0.4855380000000  0.4743010000000 1.0
C      1  0.4278730000000  0.5145310000000  0.4744460000000 1.0
C      1  0.4274840000000  0.4858270000000  0.5253120000000 1.0
C      1  0.5146620000000  0.4745300000000  0.4275110000000 1.0
C      1  0.4860220000000  0.5254140000000  0.4272420000000 1.0
C      1  0.4860530000000  0.4742590000000  0.5727050000000 1.0
C      1  0.4740700000000  0.5728650000000  0.5144690000000 1.0
C      1  0.4275620000000  0.5145270000000  0.5253200000000 1.0
C      1  0.4854880000000  0.5251260000000  0.5728260000000 1.0
C      1  0.4740570000000  0.4273190000000  0.4859940000000 1.0
C      1  0.5249830000000  0.5725250000000  0.4858190000000 1.0
C      1  0.5250970000000  0.4271000000000  0.5143640000000 1.0
C      1  0.4278050000000  0.4858270000000  0.4744550000000 1.0
C      1  0.5729550000000  0.5142380000000  0.4741890000000 1.0
C      1  0.5726310000000  0.4857860000000  0.5252200000000 1.0
C      1  0.4859610000000  0.4745830000000  0.4273090000000 1.0
C      1  0.5147210000000  0.5253830000000  0.4274890000000 1.0
C      1  0.5147510000000  0.4745930000000  0.5724240000000 1.0
C      1  0.5254100000000  0.4999410000000  0.4203690000000 1.0
C      1  0.4751110000000  0.4995550000000  0.5798720000000 1.0
C      1  0.4205500000000  0.5252010000000  0.4998420000000 1.0
C      1  0.4997340000000  0.4199070000000  0.5251660000000 1.0
C      1  0.4203940000000  0.4751990000000  0.4998440000000 1.0
C      1  0.5799800000000  0.5250220000000  0.4995860000000 1.0
C      1  0.5794460000000  0.4748600000000  0.4998280000000 1.0
C      1  0.5252210000000  0.5001180000000  0.5795320000000 1.0
C      1  0.4753900000000  0.5000020000000  0.4199560000000 1.0
C      1  0.4996130000000  0.5798310000000  0.4751200000000 1.0
C      1  0.4994080000000  0.4202720000000  0.4750960000000 1.0
C      1  0.4995560000000  0.5795970000000  0.5252330000000 1.0
END
