TITL C-2323490-8774-460 0.11407145706616 125000 -365.629332762213 0 0 60 (D2) n - 1
REM
REM in /home/bkarasulu/CARBON/AIRSS/Generating-Clusters/LCBOP/Higher-Symm/Only-C60/SD-CG/FIRE-HFTN
REM
REM
REM
REM
REM
REM ./C.cell (50c204cfd26239f34c78669fe23a5462)
REM
REM compiler GCC version 9.2.1 20190827 (Red Hat 9.2.1-1)
REM options -cpp -mtune=generic -march=x86-64 -g -O0 -fpre-include=/usr/include/finclude/math-vector-fortran.h
REM seed -1116201179 2125254754 18422643 1847027003 -1093211956 172121241 -377042684 -929338225 195820541 1656682248 -1426949926 -1045995075 449099351 830640081 -623573322 2126415146 1123378733 -736467061 1180465715 1580727306 -1713588808 1483686559 590379267 2002229796 924360651 211539169 -1121191270 -30601236 344669181 -1406448072 797161064 -385847971 -2027804600
REM
CELL 1.54180   50.00000   50.00000   50.00000   90.00000   90.00000   90.00000
LATT -1
SFAC C  
C      1  0.4950470000000  0.4356950000000  0.4331710000000 1.0
C      1  0.5049550000000  0.5643060000000  0.4331720000000 1.0
C      1  0.5049510000000  0.4356940000000  0.5668280000000 1.0
C      1  0.4950470000000  0.5643060000000  0.5668280000000 1.0
C      1  0.5734690000000  0.4992110000000  0.4867080000000 1.0
C      1  0.4265310000000  0.5007890000000  0.4867060000000 1.0
C      1  0.4265310000000  0.4992140000000  0.5132920000000 1.0
C      1  0.5734690000000  0.5007860000000  0.5132940000000 1.0
C      1  0.4632070000000  0.5164030000000  0.5976370000000 1.0
C      1  0.5367900000000  0.4835960000000  0.5976380000000 1.0
C      1  0.5367940000000  0.5164020000000  0.4023630000000 1.0
C      1  0.4632090000000  0.4835980000000  0.4023620000000 1.0
C      1  0.4571450000000  0.4456920000000  0.4610080000000 1.0
C      1  0.5428560000000  0.5543080000000  0.4610100000000 1.0
C      1  0.5428530000000  0.4456900000000  0.5389910000000 1.0
C      1  0.4571460000000  0.5543100000000  0.5389910000000 1.0
C      1  0.5331940000000  0.5161550000000  0.5431650000000 1.0
C      1  0.4668050000000  0.4838440000000  0.5431640000000 1.0
C      1  0.4668070000000  0.5161570000000  0.4568350000000 1.0
C      1  0.5331950000000  0.4838430000000  0.4568360000000 1.0
C      1  0.5572970000000  0.4953260000000  0.4659260000000 1.0
C      1  0.4427040000000  0.5046740000000  0.4659250000000 1.0
C      1  0.4427030000000  0.4953290000000  0.5340730000000 1.0
C      1  0.5572960000000  0.5046710000000  0.5340750000000 1.0
C      1  0.4802620000000  0.4385940000000  0.5568900000000 1.0
C      1  0.5197360000000  0.5614060000000  0.5568900000000 1.0
C      1  0.5197350000000  0.4385940000000  0.4431100000000 1.0
C      1  0.4802660000000  0.5614070000000  0.4431100000000 1.0
C      1  0.5143940000000  0.4990430000000  0.5566700000000 1.0
C      1  0.4856040000000  0.5009560000000  0.5566700000000 1.0
C      1  0.4856060000000  0.4990440000000  0.4433300000000 1.0
C      1  0.5143960000000  0.5009560000000  0.4433300000000 1.0
C      1  0.5272840000000  0.4519030000000  0.5614130000000 1.0
C      1  0.4727150000000  0.5480970000000  0.5614120000000 1.0
C      1  0.4727140000000  0.4519040000000  0.4385870000000 1.0
C      1  0.5272870000000  0.5480960000000  0.4385880000000 1.0
C      1  0.4734670000000  0.4781560000000  0.4276980000000 1.0
C      1  0.5265350000000  0.5218440000000  0.4276990000000 1.0
C      1  0.5265320000000  0.4781550000000  0.5723020000000 1.0
C      1  0.4734660000000  0.5218450000000  0.5723020000000 1.0
C      1  0.5395500000000  0.4457990000000  0.4867920000000 1.0
C      1  0.4604500000000  0.5542010000000  0.4867910000000 1.0
C      1  0.4604470000000  0.4458000000000  0.5132080000000 1.0
C      1  0.5395520000000  0.5542000000000  0.5132090000000 1.0
C      1  0.5449240000000  0.5096500000000  0.3780720000000 1.0
C      1  0.4550800000000  0.4903510000000  0.3780710000000 1.0
C      1  0.4550770000000  0.5096510000000  0.6219280000000 1.0
C      1  0.5449200000000  0.4903490000000  0.6219290000000 1.0
C      1  0.5451360000000  0.4429780000000  0.5126170000000 1.0
C      1  0.4548640000000  0.5570220000000  0.5126160000000 1.0
C      1  0.4548620000000  0.4429800000000  0.4873820000000 1.0
C      1  0.5451380000000  0.5570200000000  0.4873840000000 1.0
C      1  0.5525770000000  0.4972630000000  0.6458700000000 1.0
C      1  0.4474190000000  0.5027370000000  0.6458680000000 1.0
C      1  0.4474230000000  0.4972660000000  0.3541300000000 1.0
C      1  0.5525810000000  0.5027350000000  0.3541320000000 1.0
C      1  0.5309960000000  0.4558570000000  0.4620330000000 1.0
C      1  0.4690050000000  0.5441430000000  0.4620320000000 1.0
C      1  0.4690030000000  0.4558580000000  0.5379670000000 1.0
C      1  0.5309960000000  0.5441420000000  0.5379680000000 1.0
END
