TITL C-2323488-8613-194 2.07781676776118e-06 125000 -358.211456658229 0 0 60 (C1) n - 1
REM
REM in /home/bkarasulu/CARBON/AIRSS/Generating-Clusters/LCBOP/Higher-Symm/Only-C60/SD-CG/FIRE-HFTN
REM
REM
REM
REM
REM
REM ./C.cell (50c204cfd26239f34c78669fe23a5462)
REM
REM compiler GCC version 9.2.1 20190827 (Red Hat 9.2.1-1)
REM options -cpp -mtune=generic -march=x86-64 -g -O0 -fpre-include=/usr/include/finclude/math-vector-fortran.h
REM seed 1362637442 2030390490 -967874872 187429085 -1434256554 1415010899 -2029705461 2124039527 -1876236739 1940183095 849271385 -1049421771 -1747724620 568144741 170842264 -828797902 2003017134 -852589946 -1152544434 -732284666 -183457906 -1420458847 727842218 -782059372 1164806498 205301048 -1173784203 -882331104 97727660 -486165463 973192657 1748210459 1807973590
REM
CELL 1.54180   50.00000   50.00000   50.00000   90.00000   90.00000   90.00000
LATT -1
SFAC C  
C      1  0.5256670000000  0.4597110000000  0.4397240000000 1.0
C      1  0.5259570000000  0.5402530000000  0.5604240000000 1.0
C      1  0.5259100000000  0.4597840000000  0.5604800000000 1.0
C      1  0.5253170000000  0.5401480000000  0.4397450000000 1.0
C      1  0.5079320000000  0.5687260000000  0.5179380000000 1.0
C      1  0.5078400000000  0.4311160000000  0.4821830000000 1.0
C      1  0.5077330000000  0.5687970000000  0.4822250000000 1.0
C      1  0.5078430000000  0.4313980000000  0.5179240000000 1.0
C      1  0.4533830000000  0.4680150000000  0.5533730000000 1.0
C      1  0.4529920000000  0.5324650000000  0.4468740000000 1.0
C      1  0.4539550000000  0.4666570000000  0.4457420000000 1.0
C      1  0.4533830000000  0.5320900000000  0.5534760000000 1.0
C      1  0.5283520000000  0.4860650000000  0.5700200000000 1.0
C      1  0.5277310000000  0.5138920000000  0.4302080000000 1.0
C      1  0.5279080000000  0.4859940000000  0.4301990000000 1.0
C      1  0.5283650000000  0.5139830000000  0.5699960000000 1.0
C      1  0.4789660000000  0.5255870000000  0.4479300000000 1.0
C      1  0.4795820000000  0.4741580000000  0.5529040000000 1.0
C      1  0.4795300000000  0.5257770000000  0.5528760000000 1.0
C      1  0.4797870000000  0.4739030000000  0.4474820000000 1.0
C      1  0.5619710000000  0.5349390000000  0.4854680000000 1.0
C      1  0.5622270000000  0.4649800000000  0.5144680000000 1.0
C      1  0.5621840000000  0.5349900000000  0.5143460000000 1.0
C      1  0.5621080000000  0.4649940000000  0.4855870000000 1.0
C      1  0.4296270000000  0.5158940000000  0.5146740000000 1.0
C      1  0.4273990000000  0.4823330000000  0.4822150000000 1.0
C      1  0.4281480000000  0.5173910000000  0.4852250000000 1.0
C      1  0.4294240000000  0.4850600000000  0.5152790000000 1.0
C      1  0.5154930000000  0.4770690000000  0.4857410000000 1.0
C      1  0.5155750000000  0.5228140000000  0.5147220000000 1.0
C      1  0.5156510000000  0.4771630000000  0.5147640000000 1.0
C      1  0.5153200000000  0.5227750000000  0.4856950000000 1.0
C      1  0.5286860000000  0.5602410000000  0.5380110000000 1.0
C      1  0.5285110000000  0.4397110000000  0.4620780000000 1.0
C      1  0.5282940000000  0.5601710000000  0.4620470000000 1.0
C      1  0.5285990000000  0.4397870000000  0.5380600000000 1.0
C      1  0.4946630000000  0.4855900000000  0.4682600000000 1.0
C      1  0.4949420000000  0.5142170000000  0.5324060000000 1.0
C      1  0.4949950000000  0.4857440000000  0.5324300000000 1.0
C      1  0.4944460000000  0.5140610000000  0.4683370000000 1.0
C      1  0.5555520000000  0.4406410000000  0.4723450000000 1.0
C      1  0.5556860000000  0.5593400000000  0.5276200000000 1.0
C      1  0.5556280000000  0.4406340000000  0.5277180000000 1.0
C      1  0.5553750000000  0.5592580000000  0.4721940000000 1.0
C      1  0.5435410000000  0.5143070000000  0.5228070000000 1.0
C      1  0.5433450000000  0.4856510000000  0.4773390000000 1.0
C      1  0.5432000000000  0.5142540000000  0.4773000000000 1.0
C      1  0.5436070000000  0.4857070000000  0.5228660000000 1.0
C      1  0.4558770000000  0.5583100000000  0.5143630000000 1.0
C      1  0.4556890000000  0.4415070000000  0.4854640000000 1.0
C      1  0.4556400000000  0.5587570000000  0.4859030000000 1.0
C      1  0.4558110000000  0.4424410000000  0.5138880000000 1.0
C      1  0.4799600000000  0.4309350000000  0.5250890000000 1.0
C      1  0.4799260000000  0.5700000000000  0.4748830000000 1.0
C      1  0.4800360000000  0.4299040000000  0.4748070000000 1.0
C      1  0.4801400000000  0.5696160000000  0.5253640000000 1.0
C      1  0.4409690000000  0.4611120000000  0.4701380000000 1.0
C      1  0.4414480000000  0.5375820000000  0.5285780000000 1.0
C      1  0.4414500000000  0.4630550000000  0.5283240000000 1.0
C      1  0.4407220000000  0.5385440000000  0.4714730000000 1.0
END
