TITL C-2323481-8605-46 0.349139387582076 125000 -366.179675104679 0 0 60 (C3) n - 1
REM
REM in /home/bkarasulu/CARBON/AIRSS/Generating-Clusters/LCBOP/Higher-Symm/Only-C60/SD-CG/FIRE-HFTN
REM
REM
REM
REM
REM
REM ./C.cell (50c204cfd26239f34c78669fe23a5462)
REM
REM compiler GCC version 9.2.1 20190827 (Red Hat 9.2.1-1)
REM options -cpp -mtune=generic -march=x86-64 -g -O0 -fpre-include=/usr/include/finclude/math-vector-fortran.h
REM seed 368745680 1260553841 869485336 -368359922 -630439986 -2131743045 1419861415 1332071164 -1694115135 -2107680399 -531297042 -117803152 1486685557 -1366013295 -572739681 -966676688 59019330 1185447976 1355522781 -1627192543 753036088 -887696792 -982203269 1296868625 165192113 -1696427643 -1989473741 1430926828 412347886 1890928269 -171158601 -1629091951 382537733
REM
CELL 1.54180   50.00000   50.00000   50.00000   90.00000   90.00000   90.00000
LATT -1
SFAC C  
C      1  0.4424630000000  0.4468060000000  0.4761570000000 1.0
C      1  0.5493960000000  0.4467920000000  0.4620850000000 1.0
C      1  0.5081160000000  0.4467790000000  0.5617280000000 1.0
C      1  0.5154190000000  0.4855150000000  0.5296970000000 1.0
C      1  0.4665660000000  0.4855280000000  0.4985030000000 1.0
C      1  0.5180080000000  0.4855250000000  0.4717920000000 1.0
C      1  0.4287900000000  0.5282600000000  0.5234870000000 1.0
C      1  0.5152760000000  0.5282640000000  0.4265900000000 1.0
C      1  0.5559480000000  0.5282350000000  0.5499380000000 1.0
C      1  0.6518070000000  0.4621880000000  0.5022710000000 1.0
C      1  0.4221150000000  0.4622000000000  0.6303280000000 1.0
C      1  0.4260600000000  0.4622490000000  0.3673800000000 1.0
C      1  0.4275920000000  0.4563830000000  0.4558640000000 1.0
C      1  0.5744090000000  0.4563590000000  0.4593550000000 1.0
C      1  0.4979780000000  0.4563470000000  0.5847560000000 1.0
C      1  0.4209040000000  0.4815550000000  0.4490730000000 1.0
C      1  0.5836450000000  0.4815280000000  0.4569620000000 1.0
C      1  0.4954420000000  0.4815160000000  0.5939550000000 1.0
C      1  0.4508400000000  0.5600950000000  0.4924470000000 1.0
C      1  0.5311460000000  0.5600880000000  0.4612110000000 1.0
C      1  0.5180430000000  0.5600740000000  0.5463760000000 1.0
C      1  0.4953210000000  0.4978410000000  0.4598340000000 1.0
C      1  0.5371230000000  0.4978230000000  0.5160310000000 1.0
C      1  0.4675540000000  0.4978330000000  0.5241340000000 1.0
C      1  0.4532490000000  0.5455120000000  0.4698950000000 1.0
C      1  0.5494660000000  0.5454960000000  0.4745720000000 1.0
C      1  0.4973070000000  0.5454890000000  0.5555590000000 1.0
C      1  0.6303990000000  0.4739510000000  0.5113780000000 1.0
C      1  0.4249370000000  0.4739660000000  0.6072360000000 1.0
C      1  0.4446520000000  0.4740050000000  0.3813720000000 1.0
C      1  0.5051980000000  0.5062600000000  0.5847300000000 1.0
C      1  0.4240250000000  0.5062960000000  0.4621370000000 1.0
C      1  0.5707800000000  0.5062750000000  0.4531360000000 1.0
C      1  0.6082180000000  0.4857530000000  0.5198170000000 1.0
C      1  0.4287230000000  0.4857700000000  0.5838090000000 1.0
C      1  0.4630520000000  0.4858000000000  0.3963660000000 1.0
C      1  0.4502130000000  0.5178050000000  0.4653500000000 1.0
C      1  0.5549080000000  0.5177860000000  0.4742110000000 1.0
C      1  0.4948870000000  0.5177800000000  0.5604490000000 1.0
C      1  0.4436970000000  0.5078140000000  0.5364810000000 1.0
C      1  0.4965610000000  0.5078250000000  0.4330010000000 1.0
C      1  0.5597460000000  0.5077960000000  0.5305220000000 1.0
C      1  0.4067170000000  0.5208180000000  0.5074640000000 1.0
C      1  0.5401860000000  0.5208140000000  0.4154850000000 1.0
C      1  0.5531070000000  0.5207810000000  0.5770620000000 1.0
C      1  0.4801110000000  0.4970650000000  0.4132020000000 1.0
C      1  0.5851130000000  0.4970280000000  0.5261740000000 1.0
C      1  0.4347750000000  0.4970450000000  0.5606220000000 1.0
C      1  0.4411680000000  0.5527430000000  0.5165570000000 1.0
C      1  0.5150980000000  0.5527450000000  0.4407800000000 1.0
C      1  0.5437580000000  0.5527220000000  0.5426930000000 1.0
C      1  0.4923800000000  0.5007250000000  0.5375640000000 1.0
C      1  0.4712790000000  0.5007400000000  0.4746190000000 1.0
C      1  0.5363410000000  0.5007280000000  0.4878170000000 1.0
C      1  0.5257770000000  0.4590540000000  0.4659780000000 1.0
C      1  0.5165580000000  0.4590420000000  0.5393290000000 1.0
C      1  0.4576450000000  0.4590600000000  0.4946700000000 1.0
C      1  0.4049240000000  0.5139300000000  0.4815220000000 1.0
C      1  0.5635460000000  0.5139150000000  0.4269030000000 1.0
C      1  0.5315360000000  0.5138890000000  0.5915830000000 1.0
END
