TITL C-2323486-8761-609 2.51399626414088e-05 125000 -363.933129273305 0 0 60 (C1) n - 1
REM
REM in /home/bkarasulu/CARBON/AIRSS/Generating-Clusters/LCBOP/Higher-Symm/Only-C60/SD-CG/FIRE-HFTN
REM
REM
REM
REM
REM
REM ./C.cell (50c204cfd26239f34c78669fe23a5462)
REM
REM compiler GCC version 9.2.1 20190827 (Red Hat 9.2.1-1)
REM options -cpp -mtune=generic -march=x86-64 -g -O0 -fpre-include=/usr/include/finclude/math-vector-fortran.h
REM seed 1542071479 -754224905 1789549358 -1328310438 582958432 1485042461 -2012235717 -1833617769 -1411261112 -529480775 -1309650861 830755181 1919689315 1194092031 -1803595730 1288455286 1199862776 -2072746414 -1939599259 -897334434 -561950139 -106448919 -177235122 -611914603 -897045407 424252730 154817311 821670749 743397936 -379748552 -1338541169 2048529905 159417115
REM
CELL 1.54180   50.00000   50.00000   50.00000   90.00000   90.00000   90.00000
LATT -1
SFAC C  
C      1  0.4515460000000  0.4946340000000  0.5623120000000 1.0
C      1  0.5305290000000  0.4574900000000  0.5548700000000 1.0
C      1  0.5122640000000  0.5491260000000  0.5648140000000 1.0
C      1  0.4474370000000  0.4925590000000  0.4365940000000 1.0
C      1  0.5284410000000  0.4547150000000  0.4412360000000 1.0
C      1  0.5162570000000  0.5497880000000  0.4379910000000 1.0
C      1  0.4880700000000  0.4740180000000  0.5375320000000 1.0
C      1  0.5310910000000  0.5050920000000  0.5749970000000 1.0
C      1  0.4626900000000  0.5385720000000  0.5764540000000 1.0
C      1  0.4826730000000  0.4560000000000  0.4270300000000 1.0
C      1  0.5347600000000  0.5057400000000  0.4302530000000 1.0
C      1  0.4696670000000  0.5335560000000  0.4237360000000 1.0
C      1  0.4963140000000  0.5862830000000  0.4691080000000 1.0
C      1  0.4422270000000  0.4639880000000  0.4759180000000 1.0
C      1  0.5706520000000  0.4580510000000  0.4714810000000 1.0
C      1  0.4951530000000  0.5856540000000  0.5322300000000 1.0
C      1  0.4452980000000  0.4547730000000  0.5346080000000 1.0
C      1  0.5770740000000  0.4611160000000  0.5329710000000 1.0
C      1  0.5040290000000  0.6054090000000  0.5144260000000 1.0
C      1  0.4655870000000  0.4707850000000  0.5201570000000 1.0
C      1  0.5917980000000  0.4458630000000  0.5145350000000 1.0
C      1  0.5044390000000  0.6057380000000  0.4876000000000 1.0
C      1  0.4575280000000  0.4784950000000  0.4947850000000 1.0
C      1  0.5880780000000  0.4435160000000  0.4880090000000 1.0
C      1  0.4944360000000  0.5432070000000  0.4214380000000 1.0
C      1  0.4655820000000  0.4761240000000  0.4225050000000 1.0
C      1  0.5314910000000  0.4794260000000  0.4279510000000 1.0
C      1  0.4887140000000  0.5443870000000  0.5796910000000 1.0
C      1  0.4795090000000  0.4875480000000  0.5610100000000 1.0
C      1  0.5299510000000  0.4783860000000  0.5738800000000 1.0
C      1  0.5449650000000  0.5263320000000  0.5343920000000 1.0
C      1  0.4439600000000  0.5335100000000  0.5321720000000 1.0
C      1  0.4999190000000  0.4292060000000  0.5251850000000 1.0
C      1  0.5456390000000  0.5273180000000  0.4717570000000 1.0
C      1  0.4485210000000  0.5319520000000  0.4672100000000 1.0
C      1  0.4936250000000  0.4276400000000  0.4652670000000 1.0
C      1  0.4706350000000  0.5728530000000  0.5266050000000 1.0
C      1  0.4515970000000  0.4275740000000  0.5285140000000 1.0
C      1  0.5754980000000  0.4891450000000  0.5294770000000 1.0
C      1  0.4717790000000  0.5731230000000  0.4737610000000 1.0
C      1  0.4478470000000  0.4363160000000  0.4753870000000 1.0
C      1  0.5689320000000  0.4858130000000  0.4761920000000 1.0
C      1  0.5123820000000  0.5732790000000  0.5505080000000 1.0
C      1  0.4349700000000  0.4722440000000  0.5548700000000 1.0
C      1  0.5560930000000  0.4490110000000  0.5471650000000 1.0
C      1  0.5144020000000  0.5742750000000  0.4514340000000 1.0
C      1  0.4311750000000  0.4783610000000  0.4546810000000 1.0
C      1  0.5508510000000  0.4460970000000  0.4556680000000 1.0
C      1  0.4478710000000  0.5226110000000  0.5582550000000 1.0
C      1  0.5075850000000  0.4530960000000  0.5386500000000 1.0
C      1  0.5304130000000  0.5280760000000  0.5586760000000 1.0
C      1  0.4530410000000  0.5199300000000  0.4418290000000 1.0
C      1  0.5021470000000  0.4441250000000  0.4438020000000 1.0
C      1  0.5335710000000  0.5288850000000  0.4462530000000 1.0
C      1  0.4555420000000  0.5521730000000  0.5142150000000 1.0
C      1  0.4753440000000  0.4217010000000  0.5125560000000 1.0
C      1  0.5603810000000  0.5099390000000  0.5173480000000 1.0
C      1  0.4569120000000  0.5518640000000  0.4854070000000 1.0
C      1  0.4724530000000  0.4244830000000  0.4838940000000 1.0
C      1  0.5586670000000  0.5090260000000  0.4887480000000 1.0
END
