TITL C-2323479-8056-521 -0.16314352331109 125000 -360.191326542984 0 0 60 (C1) n - 1
REM
REM in /home/bkarasulu/CARBON/AIRSS/Generating-Clusters/LCBOP/Higher-Symm/Only-C60/SD-CG/FIRE-HFTN
REM
REM
REM
REM
REM
REM ./C.cell (50c204cfd26239f34c78669fe23a5462)
REM
REM compiler GCC version 9.2.1 20190827 (Red Hat 9.2.1-1)
REM options -cpp -mtune=generic -march=x86-64 -g -O0 -fpre-include=/usr/include/finclude/math-vector-fortran.h
REM seed -25928758 -27411571 670836465 -178651201 62747661 -1292833057 231798050 1815749679 -1089076835 1875262385 892157248 -1765819627 2038039518 1040694466 537489384 1440978824 -1265723418 -2089091910 703577732 498052124 1909449946 -1407102434 1881931368 1270759949 1798320450 1258039359 832681236 109565383 -931226324 -112798994 -894627093 1778336532 1087133095
REM
CELL 1.54180   50.00000   50.00000   50.00000   90.00000   90.00000   90.00000
LATT -1
SFAC C  
C      1  0.4932430000000  0.4235290000000  0.4239420000000 1.0
C      1  0.5189440000000  0.4812000000000  0.6052100000000 1.0
C      1  0.5214000000000  0.6077150000000  0.4665590000000 1.0
C      1  0.4934420000000  0.4251790000000  0.5154420000000 1.0
C      1  0.4802710000000  0.5235920000000  0.5387410000000 1.0
C      1  0.4876880000000  0.5366310000000  0.4453220000000 1.0
C      1  0.5461760000000  0.5654930000000  0.5452650000000 1.0
C      1  0.5570970000000  0.5021090000000  0.4167650000000 1.0
C      1  0.5584780000000  0.4285820000000  0.5452690000000 1.0
C      1  0.4953560000000  0.5462190000000  0.4984350000000 1.0
C      1  0.4873470000000  0.4883990000000  0.4557420000000 1.0
C      1  0.4954330000000  0.4685570000000  0.5366150000000 1.0
C      1  0.4817860000000  0.3894910000000  0.4773150000000 1.0
C      1  0.4344410000000  0.5082670000000  0.5405160000000 1.0
C      1  0.4413120000000  0.5512100000000  0.4484690000000 1.0
C      1  0.4752990000000  0.5500590000000  0.5493600000000 1.0
C      1  0.4971520000000  0.5478490000000  0.4207810000000 1.0
C      1  0.4896070000000  0.4163490000000  0.5425750000000 1.0
C      1  0.5011970000000  0.5136260000000  0.4555000000000 1.0
C      1  0.5030300000000  0.4518670000000  0.5139600000000 1.0
C      1  0.5005610000000  0.5252960000000  0.5185540000000 1.0
C      1  0.5031340000000  0.4646190000000  0.4569530000000 1.0
C      1  0.5165410000000  0.4805990000000  0.5515610000000 1.0
C      1  0.5177770000000  0.5571670000000  0.4843080000000 1.0
C      1  0.5426760000000  0.4898620000000  0.4625360000000 1.0
C      1  0.5469680000000  0.4698220000000  0.5177570000000 1.0
C      1  0.5472740000000  0.5318070000000  0.5082970000000 1.0
C      1  0.4674760000000  0.4279450000000  0.5557270000000 1.0
C      1  0.4569390000000  0.5648380000000  0.5337380000000 1.0
C      1  0.4853370000000  0.5699770000000  0.4098590000000 1.0
C      1  0.5392890000000  0.4127920000000  0.5552960000000 1.0
C      1  0.5232750000000  0.5685560000000  0.5589330000000 1.0
C      1  0.5407710000000  0.5202450000000  0.4057110000000 1.0
C      1  0.5595300000000  0.4887460000000  0.4400320000000 1.0
C      1  0.5630930000000  0.4503930000000  0.5302580000000 1.0
C      1  0.5578470000000  0.5520080000000  0.5249890000000 1.0
C      1  0.4088150000000  0.4844290000000  0.4704690000000 1.0
C      1  0.4305260000000  0.4565750000000  0.5689120000000 1.0
C      1  0.4303570000000  0.5812320000000  0.4968060000000 1.0
C      1  0.5376680000000  0.5367270000000  0.4814790000000 1.0
C      1  0.5270740000000  0.4677530000000  0.4722560000000 1.0
C      1  0.5357130000000  0.4911590000000  0.5335580000000 1.0
C      1  0.4691250000000  0.4749100000000  0.5445380000000 1.0
C      1  0.4696550000000  0.5531070000000  0.4883190000000 1.0
C      1  0.4595530000000  0.4868830000000  0.4571110000000 1.0
C      1  0.5129840000000  0.4074590000000  0.5555170000000 1.0
C      1  0.4972180000000  0.5627740000000  0.5618550000000 1.0
C      1  0.5193520000000  0.5360020000000  0.4080570000000 1.0
C      1  0.4338000000000  0.4850710000000  0.4630620000000 1.0
C      1  0.4547090000000  0.4533260000000  0.5567010000000 1.0
C      1  0.4515500000000  0.5666160000000  0.5059340000000 1.0
C      1  0.5286920000000  0.5147820000000  0.4654180000000 1.0
C      1  0.5267960000000  0.4600790000000  0.4994750000000 1.0
C      1  0.5278990000000  0.5154460000000  0.5216120000000 1.0
C      1  0.5184030000000  0.4812610000000  0.5791600000000 1.0
C      1  0.5204280000000  0.5833350000000  0.4757030000000 1.0
C      1  0.4976170000000  0.4420430000000  0.4417580000000 1.0
C      1  0.4879950000000  0.4086870000000  0.4938170000000 1.0
C      1  0.4612240000000  0.5022610000000  0.5417430000000 1.0
C      1  0.4656590000000  0.5474920000000  0.4604470000000 1.0
END
