TITL C-2323482-8828-562 2.51576778696957e-06 125000 -368.247386488536 0 0 60 (C1) n - 1
REM
REM in /home/bkarasulu/CARBON/AIRSS/Generating-Clusters/LCBOP/Higher-Symm/Only-C60/SD-CG/FIRE-HFTN
REM
REM
REM
REM
REM
REM ./C.cell (50c204cfd26239f34c78669fe23a5462)
REM
REM compiler GCC version 9.2.1 20190827 (Red Hat 9.2.1-1)
REM options -cpp -mtune=generic -march=x86-64 -g -O0 -fpre-include=/usr/include/finclude/math-vector-fortran.h
REM seed -2078907210 -145354065 -318991854 1700210397 -241792725 -1193429353 -456928144 -1289350772 -899172579 -1686449081 455019249 -2093601824 1100302491 -1942080507 -1652389990 -796222817 761174520 1146713089 -502911757 1392223464 -2003119518 833050079 -1976192789 410511938 -641528383 1126804151 -736316293 -1080430752 888360469 86022775 1455803659 -1759023905 258726300
REM
CELL 1.54180   50.00000   50.00000   50.00000   90.00000   90.00000   90.00000
LATT -1
SFAC C  
C      1  0.4737460000000  0.5057050000000  0.4795520000000 1.0
C      1  0.4897870000000  0.5232190000000  0.4910070000000 1.0
C      1  0.5082670000000  0.5238510000000  0.5097610000000 1.0
C      1  0.5174090000000  0.5062450000000  0.5272110000000 1.0
C      1  0.5057230000000  0.4868310000000  0.4369720000000 1.0
C      1  0.5636540000000  0.4854580000000  0.4950480000000 1.0
C      1  0.5001160000000  0.4894360000000  0.5723290000000 1.0
C      1  0.4287700000000  0.4887590000000  0.4985610000000 1.0
C      1  0.5209460000000  0.5108300000000  0.4418160000000 1.0
C      1  0.5666430000000  0.5059230000000  0.5152290000000 1.0
C      1  0.4804370000000  0.5103030000000  0.5687000000000 1.0
C      1  0.4242270000000  0.5108630000000  0.4803400000000 1.0
C      1  0.4434020000000  0.5540280000000  0.4640800000000 1.0
C      1  0.5162620000000  0.5575030000000  0.4643840000000 1.0
C      1  0.5504040000000  0.5520770000000  0.5296450000000 1.0
C      1  0.4699380000000  0.5550510000000  0.5479990000000 1.0
C      1  0.5299270000000  0.5270110000000  0.5800800000000 1.0
C      1  0.4308530000000  0.5246570000000  0.5306320000000 1.0
C      1  0.4718390000000  0.5187830000000  0.4220320000000 1.0
C      1  0.5691270000000  0.5229160000000  0.4647840000000 1.0
C      1  0.5397270000000  0.5620520000000  0.4795790000000 1.0
C      1  0.5253740000000  0.5586570000000  0.5415210000000 1.0
C      1  0.4643460000000  0.5591260000000  0.5203470000000 1.0
C      1  0.4699150000000  0.5580480000000  0.4560690000000 1.0
C      1  0.5068210000000  0.4634070000000  0.4535070000000 1.0
C      1  0.5469020000000  0.4625470000000  0.4979090000000 1.0
C      1  0.5032570000000  0.4687600000000  0.5525230000000 1.0
C      1  0.4478540000000  0.4681960000000  0.4922140000000 1.0
C      1  0.4637370000000  0.4186720000000  0.4967300000000 1.0
C      1  0.5036410000000  0.4134570000000  0.4624140000000 1.0
C      1  0.5375640000000  0.4128100000000  0.5012170000000 1.0
C      1  0.4987250000000  0.4189340000000  0.5363280000000 1.0
C      1  0.4779200000000  0.4099520000000  0.4738120000000 1.0
C      1  0.5255610000000  0.4035070000000  0.4773220000000 1.0
C      1  0.5230200000000  0.4094150000000  0.5252890000000 1.0
C      1  0.4751990000000  0.4130030000000  0.5219010000000 1.0
C      1  0.4899660000000  0.5672040000000  0.4756450000000 1.0
C      1  0.5351570000000  0.5777910000000  0.5022860000000 1.0
C      1  0.5123980000000  0.5741790000000  0.5192160000000 1.0
C      1  0.4869380000000  0.5699490000000  0.5049140000000 1.0
C      1  0.4412740000000  0.5438520000000  0.5118100000000 1.0
C      1  0.4825400000000  0.5407390000000  0.4364440000000 1.0
C      1  0.5596140000000  0.5419660000000  0.4834600000000 1.0
C      1  0.5145580000000  0.5446450000000  0.5636090000000 1.0
C      1  0.5236380000000  0.5007010000000  0.5843780000000 1.0
C      1  0.4262130000000  0.4982570000000  0.5253840000000 1.0
C      1  0.4820080000000  0.4934080000000  0.4222480000000 1.0
C      1  0.5703020000000  0.4960660000000  0.4694120000000 1.0
C      1  0.5081480000000  0.4362340000000  0.4459890000000 1.0
C      1  0.5545070000000  0.4354510000000  0.4990590000000 1.0
C      1  0.4988550000000  0.4411020000000  0.5538410000000 1.0
C      1  0.4458090000000  0.4403770000000  0.4947860000000 1.0
C      1  0.5186620000000  0.4668170000000  0.5024630000000 1.0
C      1  0.5130200000000  0.4787260000000  0.5276780000000 1.0
C      1  0.4732820000000  0.4782430000000  0.4842100000000 1.0
C      1  0.4993080000000  0.4668940000000  0.4812450000000 1.0
C      1  0.5110320000000  0.5375620000000  0.4441120000000 1.0
C      1  0.5621360000000  0.5340570000000  0.5116160000000 1.0
C      1  0.4863870000000  0.5378050000000  0.5626940000000 1.0
C      1  0.4332100000000  0.5379860000000  0.4846580000000 1.0
END
