TITL C-2323485-8600-298 3.46696369861528 125000 -364.951657512119 0 0 60 (C2) n - 1
REM
REM in /home/bkarasulu/CARBON/AIRSS/Generating-Clusters/LCBOP/Higher-Symm/Only-C60/SD-CG/FIRE-HFTN
REM
REM
REM
REM
REM
REM ./C.cell (50c204cfd26239f34c78669fe23a5462)
REM
REM compiler GCC version 9.2.1 20190827 (Red Hat 9.2.1-1)
REM options -cpp -mtune=generic -march=x86-64 -g -O0 -fpre-include=/usr/include/finclude/math-vector-fortran.h
REM seed 346735360 -286794242 -647027023 293816035 -1380864513 -609896477 613677327 1391277991 -865836973 948031203 -243760084 448983043 -1934763014 2108377989 1306741611 -1281254182 -1838683990 -150403171 -658496936 -252768018 1854369147 1862747233 760827137 1695044505 1505850917 899897877 1829688313 2018267342 1789682858 -259431248 -1576819808 1841812159 207051994
REM
CELL 1.54180   50.00000   50.00000   50.00000   90.00000   90.00000   90.00000
LATT -1
SFAC C  
C      1  0.5765720000000  0.5076470000000  0.5447190000000 1.0
C      1  0.5765850000000  0.4923720000000  0.4552990000000 1.0
C      1  0.5396750000000  0.5296450000000  0.4921490000000 1.0
C      1  0.5396810000000  0.4703640000000  0.5078600000000 1.0
C      1  0.4463040000000  0.4938460000000  0.4881460000000 1.0
C      1  0.4463000000000  0.5061410000000  0.5118410000000 1.0
C      1  0.4006750000000  0.4345140000000  0.3593990000000 1.0
C      1  0.4006260000000  0.5654620000000  0.6405780000000 1.0
C      1  0.4169710000000  0.4351860000000  0.3797370000000 1.0
C      1  0.4169270000000  0.5647930000000  0.6202440000000 1.0
C      1  0.5212470000000  0.5100780000000  0.3894730000000 1.0
C      1  0.5212230000000  0.4899270000000  0.6105320000000 1.0
C      1  0.5611220000000  0.5233830000000  0.4213070000000 1.0
C      1  0.5611100000000  0.4766320000000  0.5787070000000 1.0
C      1  0.4934370000000  0.4278500000000  0.4420770000000 1.0
C      1  0.4934060000000  0.5721490000000  0.5579210000000 1.0
C      1  0.5693030000000  0.5290820000000  0.5306470000000 1.0
C      1  0.5693170000000  0.4709350000000  0.4693690000000 1.0
C      1  0.5169340000000  0.5727580000000  0.5455070000000 1.0
C      1  0.5169620000000  0.4272460000000  0.4544960000000 1.0
C      1  0.5665380000000  0.4824470000000  0.5519660000000 1.0
C      1  0.5665460000000  0.5175700000000  0.4480500000000 1.0
C      1  0.5346480000000  0.4375600000000  0.4714200000000 1.0
C      1  0.5346260000000  0.5624480000000  0.5285880000000 1.0
C      1  0.4702960000000  0.4401660000000  0.5146160000000 1.0
C      1  0.4702840000000  0.5598270000000  0.4853770000000 1.0
C      1  0.4592360000000  0.5617390000000  0.5096500000000 1.0
C      1  0.4592530000000  0.4382510000000  0.4903400000000 1.0
C      1  0.4962380000000  0.4835160000000  0.5270480000000 1.0
C      1  0.4962400000000  0.5164830000000  0.4729510000000 1.0
C      1  0.5024570000000  0.4990220000000  0.4070710000000 1.0
C      1  0.5024360000000  0.5009790000000  0.5929300000000 1.0
C      1  0.4501220000000  0.4366940000000  0.4210520000000 1.0
C      1  0.4500880000000  0.5632940000000  0.5789370000000 1.0
C      1  0.5120780000000  0.5118290000000  0.3363610000000 1.0
C      1  0.5120430000000  0.4881740000000  0.6636420000000 1.0
C      1  0.4622260000000  0.4811690000000  0.4686640000000 1.0
C      1  0.4622140000000  0.5188210000000  0.5313270000000 1.0
C      1  0.4853130000000  0.4576240000000  0.5280840000000 1.0
C      1  0.4853090000000  0.5423720000000  0.4719120000000 1.0
C      1  0.5484730000000  0.5414360000000  0.5164870000000 1.0
C      1  0.5484870000000  0.4585760000000  0.4835240000000 1.0
C      1  0.4335400000000  0.4358720000000  0.4004150000000 1.0
C      1  0.4335010000000  0.5641120000000  0.5995700000000 1.0
C      1  0.4908340000000  0.4936890000000  0.4303210000000 1.0
C      1  0.4908170000000  0.5063090000000  0.5696770000000 1.0
C      1  0.4836340000000  0.4962180000000  0.4571990000000 1.0
C      1  0.4836230000000  0.5037780000000  0.5427970000000 1.0
C      1  0.4676610000000  0.5610380000000  0.5575110000000 1.0
C      1  0.4676900000000  0.4389540000000  0.4424820000000 1.0
C      1  0.5449340000000  0.4798290000000  0.5995620000000 1.0
C      1  0.5449520000000  0.5201830000000  0.4004490000000 1.0
C      1  0.4607270000000  0.4527890000000  0.4662540000000 1.0
C      1  0.4607070000000  0.5472010000000  0.5337370000000 1.0
C      1  0.5549630000000  0.5325210000000  0.4687810000000 1.0
C      1  0.5549640000000  0.4674930000000  0.5312320000000 1.0
C      1  0.5164860000000  0.4890200000000  0.6379750000000 1.0
C      1  0.5165150000000  0.5109840000000  0.3620280000000 1.0
C      1  0.5174610000000  0.5114330000000  0.4914150000000 1.0
C      1  0.5174620000000  0.4885710000000  0.5085890000000 1.0
END
