TITL C-2323481-8605-231 -0.011663033795246 125000 -362.953102530517 0 0 60 (C1) n - 1
REM
REM in /home/bkarasulu/CARBON/AIRSS/Generating-Clusters/LCBOP/Higher-Symm/Only-C60/SD-CG/FIRE-HFTN
REM
REM
REM
REM
REM
REM ./C.cell (50c204cfd26239f34c78669fe23a5462)
REM
REM compiler GCC version 9.2.1 20190827 (Red Hat 9.2.1-1)
REM options -cpp -mtune=generic -march=x86-64 -g -O0 -fpre-include=/usr/include/finclude/math-vector-fortran.h
REM seed -1248932544 503849382 852193269 48388589 433050372 -331492868 -543619375 1452082348 49082964 1754011455 131340387 154891362 -634790040 2096381537 2006393630 -689591754 20620226 -118826461 -499068058 -366616666 474597404 -396978488 613218591 -1938549301 -609317256 548710798 -2043432340 -782461777 -401109059 -569519337 -664568097 814566826 -1918798044
REM
CELL 1.54180   50.00000   50.00000   50.00000   90.00000   90.00000   90.00000
LATT -1
SFAC C  
C      1  0.4352360000000  0.4590420000000  0.4959070000000 1.0
C      1  0.5267610000000  0.4581030000000  0.5552610000000 1.0
C      1  0.5298700000000  0.4667610000000  0.4465140000000 1.0
C      1  0.4452720000000  0.5373270000000  0.5537380000000 1.0
C      1  0.6080170000000  0.5051950000000  0.5214040000000 1.0
C      1  0.4702800000000  0.5462610000000  0.4404140000000 1.0
C      1  0.4141330000000  0.5204170000000  0.5140200000000 1.0
C      1  0.5642230000000  0.5209330000000  0.5528500000000 1.0
C      1  0.5227610000000  0.5363310000000  0.4394150000000 1.0
C      1  0.4453750000000  0.5087360000000  0.5505660000000 1.0
C      1  0.5862590000000  0.4863630000000  0.5237470000000 1.0
C      1  0.4767460000000  0.5187770000000  0.4334270000000 1.0
C      1  0.4787600000000  0.5417090000000  0.5179780000000 1.0
C      1  0.5784130000000  0.5331690000000  0.4960970000000 1.0
C      1  0.4770880000000  0.5365440000000  0.4873230000000 1.0
C      1  0.5298410000000  0.4363900000000  0.4842900000000 1.0
C      1  0.4684980000000  0.4326080000000  0.4725950000000 1.0
C      1  0.4913060000000  0.4315240000000  0.5343580000000 1.0
C      1  0.5114150000000  0.5549900000000  0.4580960000000 1.0
C      1  0.4290190000000  0.5446750000000  0.5110120000000 1.0
C      1  0.5851780000000  0.5384600000000  0.5435920000000 1.0
C      1  0.5320800000000  0.5112750000000  0.5051650000000 1.0
C      1  0.4916630000000  0.4901850000000  0.4904920000000 1.0
C      1  0.5068440000000  0.5008370000000  0.5117350000000 1.0
C      1  0.5720750000000  0.4856410000000  0.4985160000000 1.0
C      1  0.4631430000000  0.5024250000000  0.4527590000000 1.0
C      1  0.4725010000000  0.4999470000000  0.5495640000000 1.0
C      1  0.5513160000000  0.4716910000000  0.5553220000000 1.0
C      1  0.5164230000000  0.4877260000000  0.4331660000000 1.0
C      1  0.4279930000000  0.4738500000000  0.5186980000000 1.0
C      1  0.3434870000000  0.5062140000000  0.4786430000000 1.0
C      1  0.5012240000000  0.5584890000000  0.5292170000000 1.0
C      1  0.5821100000000  0.5463940000000  0.4718050000000 1.0
C      1  0.5057670000000  0.5139680000000  0.4315320000000 1.0
C      1  0.4269790000000  0.4996230000000  0.5299000000000 1.0
C      1  0.5684450000000  0.4922390000000  0.5466720000000 1.0
C      1  0.5499680000000  0.5393780000000  0.4337540000000 1.0
C      1  0.3889900000000  0.5169420000000  0.5026610000000 1.0
C      1  0.5393520000000  0.5341070000000  0.5557770000000 1.0
C      1  0.4845890000000  0.4832350000000  0.5681820000000 1.0
C      1  0.5726140000000  0.4712150000000  0.4746980000000 1.0
C      1  0.4411980000000  0.4852110000000  0.4520280000000 1.0
C      1  0.5167340000000  0.4459140000000  0.4610520000000 1.0
C      1  0.4555370000000  0.4390440000000  0.4968310000000 1.0
C      1  0.5182580000000  0.4401150000000  0.5347600000000 1.0
C      1  0.4902120000000  0.4375650000000  0.4577980000000 1.0
C      1  0.4683460000000  0.4316540000000  0.5206990000000 1.0
C      1  0.5323510000000  0.4359570000000  0.5108590000000 1.0
C      1  0.5063070000000  0.4681810000000  0.5717620000000 1.0
C      1  0.5574000000000  0.4690310000000  0.4526620000000 1.0
C      1  0.4292090000000  0.4695800000000  0.4703240000000 1.0
C      1  0.4512500000000  0.5495470000000  0.5283960000000 1.0
C      1  0.5970410000000  0.5319310000000  0.5184230000000 1.0
C      1  0.4837770000000  0.5538110000000  0.4651650000000 1.0
C      1  0.4736470000000  0.5083930000000  0.4787140000000 1.0
C      1  0.4880260000000  0.5133920000000  0.5295220000000 1.0
C      1  0.5588280000000  0.5115840000000  0.4968810000000 1.0
C      1  0.3659610000000  0.5117130000000  0.4906540000000 1.0
C      1  0.5216370000000  0.5516770000000  0.5456620000000 1.0
C      1  0.5722680000000  0.5460010000000  0.4469500000000 1.0
END
