TITL C-2323483-8886-513 -8.871670284116e-05 125000 -362.435516923741 0 0 60 (Cs) n - 1
REM
REM in /home/bkarasulu/CARBON/AIRSS/Generating-Clusters/LCBOP/Higher-Symm/Only-C60/SD-CG/FIRE-HFTN
REM
REM
REM
REM
REM
REM ./C.cell (50c204cfd26239f34c78669fe23a5462)
REM
REM compiler GCC version 9.2.1 20190827 (Red Hat 9.2.1-1)
REM options -cpp -mtune=generic -march=x86-64 -g -O0 -fpre-include=/usr/include/finclude/math-vector-fortran.h
REM seed 1994292114 -1799158085 95019214 403210594 -356368025 1349063525 479998770 -909162865 -343747587 1339598185 -1477310275 -71565372 -2104919694 930302330 -847861331 269374111 245736040 585283005 -1393037004 -1378448166 -460287202 -764920083 1555099362 -949840553 -1683211028 701754833 -1590426676 -642958066 836391927 -180819024 1545847415 1113071352 511496149
REM
CELL 1.54180   50.00000   50.00000   50.00000   90.00000   90.00000   90.00000
LATT -1
SFAC C  
C      1  0.5376540000000  0.4504630000000  0.5109960000000 1.0
C      1  0.5201270000000  0.4484850000000  0.5309240000000 1.0
C      1  0.4984920000000  0.4595730000000  0.5445380000000 1.0
C      1  0.4717400000000  0.4595940000000  0.5344810000000 1.0
C      1  0.4644170000000  0.4485280000000  0.5099800000000 1.0
C      1  0.4643610000000  0.4505180000000  0.4834430000000 1.0
C      1  0.4759600000000  0.4611260000000  0.4602400000000 1.0
C      1  0.5026790000000  0.4544920000000  0.4549610000000 1.0
C      1  0.5275940000000  0.4544730000000  0.4643270000000 1.0
C      1  0.5442270000000  0.4610740000000  0.4859040000000 1.0
C      1  0.4811030000000  0.5601730000000  0.4698550000000 1.0
C      1  0.5012860000000  0.5459670000000  0.4563650000000 1.0
C      1  0.5278390000000  0.5459470000000  0.4663470000000 1.0
C      1  0.5341560000000  0.5601320000000  0.4897990000000 1.0
C      1  0.5377280000000  0.5460570000000  0.5138470000000 1.0
C      1  0.5193580000000  0.5477620000000  0.5355670000000 1.0
C      1  0.5002510000000  0.5680020000000  0.5375280000000 1.0
C      1  0.4751790000000  0.5680210000000  0.5281030000000 1.0
C      1  0.4620690000000  0.5478050000000  0.5140310000000 1.0
C      1  0.4625550000000  0.5461140000000  0.4855870000000 1.0
C      1  0.5633250000000  0.4819640000000  0.4833730000000 1.0
C      1  0.5613530000000  0.5097620000000  0.5359670000000 1.0
C      1  0.5439940000000  0.5142380000000  0.5583580000000 1.0
C      1  0.5027130000000  0.4802450000000  0.5638890000000 1.0
C      1  0.4558440000000  0.4802810000000  0.5462700000000 1.0
C      1  0.4284760000000  0.5143260000000  0.5149310000000 1.0
C      1  0.4301600000000  0.5098620000000  0.4866470000000 1.0
C      1  0.4632870000000  0.4820400000000  0.4457660000000 1.0
C      1  0.5120670000000  0.5088470000000  0.4271340000000 1.0
C      1  0.5389350000000  0.5088270000000  0.4372350000000 1.0
C      1  0.4525340000000  0.5218100000000  0.4735340000000 1.0
C      1  0.4686160000000  0.5090280000000  0.4533140000000 1.0
C      1  0.4925460000000  0.5217510000000  0.4434700000000 1.0
C      1  0.5428780000000  0.5217130000000  0.4623910000000 1.0
C      1  0.5543790000000  0.5089630000000  0.4855550000000 1.0
C      1  0.5531750000000  0.5217330000000  0.5113690000000 1.0
C      1  0.5177840000000  0.5243260000000  0.5516340000000 1.0
C      1  0.4953080000000  0.5067910000000  0.5541970000000 1.0
C      1  0.4678360000000  0.5068120000000  0.5438690000000 1.0
C      1  0.4526380000000  0.5243760000000  0.5271430000000 1.0
C      1  0.6150480000000  0.4712300000000  0.4724740000000 1.0
C      1  0.6069510000000  0.4822210000000  0.5436820000000 1.0
C      1  0.5636900000000  0.5131840000000  0.6084220000000 1.0
C      1  0.5122020000000  0.4676480000000  0.6152740000000 1.0
C      1  0.4148380000000  0.4677220000000  0.5786710000000 1.0
C      1  0.3806760000000  0.5133240000000  0.5396200000000 1.0
C      1  0.3907360000000  0.4823860000000  0.4623980000000 1.0
C      1  0.4315390000000  0.4713700000000  0.4034870000000 1.0
C      1  0.5003410000000  0.4870270000000  0.3792780000000 1.0
C      1  0.5792540000000  0.4869670000000  0.4089440000000 1.0
C      1  0.4043450000000  0.5128520000000  0.5287200000000 1.0
C      1  0.4104640000000  0.4957210000000  0.4729900000000 1.0
C      1  0.4465680000000  0.4763180000000  0.4241920000000 1.0
C      1  0.5056730000000  0.4979860000000  0.4023120000000 1.0
C      1  0.5600830000000  0.4979450000000  0.4227670000000 1.0
C      1  0.5901080000000  0.4762090000000  0.4781540000000 1.0
C      1  0.5851500000000  0.4955880000000  0.5386610000000 1.0
C      1  0.5530630000000  0.5127380000000  0.5846280000000 1.0
C      1  0.5090220000000  0.4747530000000  0.5904010000000 1.0
C      1  0.4336250000000  0.4748110000000  0.5620570000000 1.0
END
