TITL C-2323483-8886-555 5.88088648278129e-06 125000 -359.18188687578 0 0 60 (C1) n - 1
REM
REM in /home/bkarasulu/CARBON/AIRSS/Generating-Clusters/LCBOP/Higher-Symm/Only-C60/SD-CG/FIRE-HFTN
REM
REM
REM
REM
REM
REM ./C.cell (50c204cfd26239f34c78669fe23a5462)
REM
REM compiler GCC version 9.2.1 20190827 (Red Hat 9.2.1-1)
REM options -cpp -mtune=generic -march=x86-64 -g -O0 -fpre-include=/usr/include/finclude/math-vector-fortran.h
REM seed -207235705 113196610 -1399500670 -1674839011 -2065033164 -1527744416 1362856032 871780662 1726853710 -1167454105 -1000118631 1720779043 -178769443 -1819143437 989433664 1999939409 -2018822667 -1504441406 594233626 927195043 -849462316 1386920791 1447102444 1774672518 -2038513323 1606272437 -1146972402 -1217973962 -36291274 554187838 -1206552378 -1468158432 2094023089
REM
CELL 1.54180   50.00000   50.00000   50.00000   90.00000   90.00000   90.00000
LATT -1
SFAC C  
C      1  0.5101100000000  0.5617250000000  0.5312620000000 1.0
C      1  0.4848540000000  0.4366600000000  0.5328680000000 1.0
C      1  0.5124390000000  0.4388250000000  0.5388640000000 1.0
C      1  0.4826640000000  0.5693640000000  0.5277810000000 1.0
C      1  0.5166970000000  0.5526710000000  0.5576390000000 1.0
C      1  0.4842240000000  0.4490720000000  0.5720570000000 1.0
C      1  0.5110730000000  0.4409900000000  0.5685840000000 1.0
C      1  0.4935880000000  0.5450460000000  0.5727050000000 1.0
C      1  0.4705960000000  0.4732580000000  0.5665690000000 1.0
C      1  0.5412160000000  0.5404350000000  0.5641760000000 1.0
C      1  0.4757530000000  0.5245150000000  0.5647210000000 1.0
C      1  0.5335350000000  0.4476400000000  0.5840320000000 1.0
C      1  0.4605810000000  0.5273230000000  0.5395380000000 1.0
C      1  0.5507500000000  0.4685150000000  0.5822010000000 1.0
C      1  0.4548560000000  0.4730060000000  0.5416640000000 1.0
C      1  0.5533730000000  0.5166320000000  0.5670970000000 1.0
C      1  0.5226640000000  0.4479610000000  0.4760640000000 1.0
C      1  0.4741700000000  0.5581610000000  0.4689110000000 1.0
C      1  0.5239820000000  0.5622300000000  0.4642440000000 1.0
C      1  0.4743550000000  0.4408540000000  0.4761220000000 1.0
C      1  0.4630820000000  0.5499650000000  0.5202460000000 1.0
C      1  0.5304380000000  0.4579070000000  0.5262390000000 1.0
C      1  0.4618330000000  0.4503960000000  0.5238900000000 1.0
C      1  0.5204260000000  0.5493690000000  0.5082070000000 1.0
C      1  0.5114270000000  0.4575610000000  0.4488810000000 1.0
C      1  0.4825030000000  0.5458270000000  0.4423210000000 1.0
C      1  0.5129500000000  0.5476450000000  0.4400870000000 1.0
C      1  0.4797430000000  0.4544500000000  0.4499780000000 1.0
C      1  0.5544970000000  0.4907770000000  0.4656350000000 1.0
C      1  0.4320490000000  0.5133160000000  0.4606990000000 1.0
C      1  0.5344420000000  0.5088080000000  0.4651820000000 1.0
C      1  0.4421130000000  0.4860870000000  0.4593290000000 1.0
C      1  0.5623040000000  0.5336330000000  0.4955900000000 1.0
C      1  0.4424720000000  0.4758350000000  0.4864300000000 1.0
C      1  0.5588290000000  0.4816310000000  0.4922430000000 1.0
C      1  0.4395880000000  0.5247230000000  0.4859560000000 1.0
C      1  0.4563890000000  0.4526310000000  0.4953360000000 1.0
C      1  0.5414740000000  0.5529340000000  0.4879460000000 1.0
C      1  0.4571250000000  0.5468480000000  0.4911400000000 1.0
C      1  0.5398370000000  0.4597950000000  0.4984920000000 1.0
C      1  0.4674630000000  0.4832140000000  0.4435070000000 1.0
C      1  0.5259440000000  0.5297110000000  0.4220470000000 1.0
C      1  0.4675910000000  0.5293750000000  0.4240470000000 1.0
C      1  0.5136610000000  0.4839620000000  0.4360120000000 1.0
C      1  0.5662600000000  0.5074300000000  0.5048610000000 1.0
C      1  0.4423440000000  0.5003410000000  0.5025680000000 1.0
C      1  0.4981730000000  0.5750000000000  0.4741920000000 1.0
C      1  0.5002140000000  0.4311230000000  0.4849620000000 1.0
C      1  0.5267030000000  0.5025150000000  0.4189240000000 1.0
C      1  0.4610590000000  0.5026770000000  0.4200630000000 1.0
C      1  0.5488430000000  0.4891590000000  0.5629640000000 1.0
C      1  0.4590840000000  0.4995280000000  0.5264000000000 1.0
C      1  0.5306690000000  0.4825910000000  0.5419180000000 1.0
C      1  0.4890750000000  0.4949950000000  0.5203180000000 1.0
C      1  0.5031320000000  0.5314920000000  0.4942600000000 1.0
C      1  0.4991180000000  0.4874600000000  0.4957990000000 1.0
C      1  0.4868960000000  0.4976270000000  0.5666370000000 1.0
C      1  0.4926080000000  0.4983920000000  0.4522400000000 1.0
C      1  0.5052150000000  0.4946130000000  0.5438070000000 1.0
C      1  0.5063810000000  0.5083010000000  0.4763870000000 1.0
END
