TITL C-2323477-5056-335 0.000125032411658243 125000 -365.515490284298 0 0 60 (C1) n - 1
REM
REM in /home/bkarasulu/CARBON/AIRSS/Generating-Clusters/LCBOP/Higher-Symm/Only-C60/SD-CG/FIRE-HFTN
REM
REM
REM
REM
REM
REM ./C.cell (50c204cfd26239f34c78669fe23a5462)
REM
REM compiler GCC version 9.2.1 20190827 (Red Hat 9.2.1-1)
REM options -cpp -mtune=generic -march=x86-64 -g -O0 -fpre-include=/usr/include/finclude/math-vector-fortran.h
REM seed 474513115 374566223 -1462073239 -180021669 816830248 2008869740 -1141678134 -701548669 -1448219853 -1968365711 1582649707 -1674400259 1882218378 -617703743 1616317743 784800663 -1333125016 -1825037166 187182097 -690691273 -259116392 1295491413 -149071520 -1957916564 499024650 -2037400645 -949792272 -642233374 -1127487588 1565638744 -698142226 -1107538344 987835803
REM
CELL 1.54180   50.00000   50.00000   50.00000   90.00000   90.00000   90.00000
LATT -1
SFAC C  
C      1  0.4351520000000  0.4697850000000  0.4958250000000 1.0
C      1  0.5149060000000  0.5841840000000  0.4886510000000 1.0
C      1  0.5548410000000  0.4459330000000  0.4900650000000 1.0
C      1  0.4598320000000  0.5077240000000  0.4270810000000 1.0
C      1  0.5294910000000  0.5376120000000  0.4344350000000 1.0
C      1  0.5192020000000  0.4622270000000  0.4295830000000 1.0
C      1  0.4524430000000  0.4523180000000  0.5408940000000 1.0
C      1  0.4845620000000  0.5595060000000  0.5189630000000 1.0
C      1  0.5522160000000  0.4833720000000  0.5216040000000 1.0
C      1  0.4962990000000  0.4478180000000  0.4353880000000 1.0
C      1  0.4586120000000  0.5303670000000  0.4431470000000 1.0
C      1  0.5509230000000  0.5250320000000  0.4469570000000 1.0
C      1  0.5394150000000  0.4261950000000  0.4810700000000 1.0
C      1  0.4226270000000  0.4895160000000  0.4830690000000 1.0
C      1  0.5406830000000  0.5809020000000  0.4820180000000 1.0
C      1  0.5396870000000  0.4776600000000  0.4360910000000 1.0
C      1  0.4614390000000  0.4815610000000  0.4226470000000 1.0
C      1  0.5049370000000  0.5475900000000  0.4366050000000 1.0
C      1  0.5527520000000  0.4965060000000  0.4515200000000 1.0
C      1  0.4688180000000  0.4556640000000  0.4290980000000 1.0
C      1  0.4800820000000  0.5490390000000  0.4488940000000 1.0
C      1  0.5477540000000  0.4870430000000  0.5688110000000 1.0
C      1  0.4657790000000  0.4662620000000  0.5851290000000 1.0
C      1  0.4851810000000  0.5622640000000  0.5670590000000 1.0
C      1  0.5353480000000  0.5359300000000  0.5678670000000 1.0
C      1  0.5117340000000  0.4496700000000  0.5758750000000 1.0
C      1  0.4555080000000  0.5220160000000  0.5725860000000 1.0
C      1  0.4672740000000  0.5369730000000  0.5192250000000 1.0
C      1  0.5523730000000  0.5116320000000  0.5228800000000 1.0
C      1  0.4752670000000  0.4336310000000  0.5428020000000 1.0
C      1  0.5805650000000  0.5174380000000  0.4809930000000 1.0
C      1  0.4686790000000  0.4150910000000  0.4519660000000 1.0
C      1  0.4443860000000  0.5591350000000  0.4758710000000 1.0
C      1  0.4539130000000  0.4738670000000  0.5603710000000 1.0
C      1  0.5002600000000  0.5608220000000  0.5430670000000 1.0
C      1  0.5416480000000  0.4716100000000  0.5454010000000 1.0
C      1  0.4841550000000  0.4657080000000  0.5114930000000 1.0
C      1  0.4875960000000  0.4935290000000  0.5141980000000 1.0
C      1  0.5202040000000  0.5322290000000  0.4961800000000 1.0
C      1  0.5441130000000  0.5123170000000  0.5772800000000 1.0
C      1  0.4901780000000  0.4561880000000  0.5907000000000 1.0
C      1  0.4670990000000  0.5456350000000  0.5781330000000 1.0
C      1  0.4528380000000  0.4335570000000  0.4387210000000 1.0
C      1  0.4725940000000  0.5654120000000  0.4722080000000 1.0
C      1  0.5677120000000  0.4915240000000  0.4762070000000 1.0
C      1  0.5179780000000  0.4172400000000  0.4680260000000 1.0
C      1  0.4219110000000  0.5137460000000  0.4719830000000 1.0
C      1  0.5608760000000  0.5648110000000  0.4747160000000 1.0
C      1  0.4897620000000  0.5724200000000  0.4938000000000 1.0
C      1  0.5599280000000  0.4727100000000  0.4962860000000 1.0
C      1  0.4548650000000  0.4602260000000  0.5127840000000 1.0
C      1  0.4695760000000  0.5104100000000  0.5281340000000 1.0
C      1  0.5333520000000  0.5319570000000  0.5201080000000 1.0
C      1  0.4983750000000  0.4475230000000  0.5301690000000 1.0
C      1  0.4368260000000  0.5349830000000  0.4620250000000 1.0
C      1  0.5678370000000  0.5390410000000  0.4663560000000 1.0
C      1  0.4962670000000  0.4235360000000  0.4519600000000 1.0
C      1  0.5246110000000  0.5457510000000  0.5435840000000 1.0
C      1  0.5194160000000  0.4539620000000  0.5485440000000 1.0
C      1  0.4573420000000  0.5016920000000  0.5528970000000 1.0
END
