TITL C-2323483-8886-70 181459.974004126 125000 -360.744611694505 0 0 60 (C1) n - 1
REM
REM in /home/bkarasulu/CARBON/AIRSS/Generating-Clusters/LCBOP/Higher-Symm/Only-C60/SD-CG/FIRE-HFTN
REM
REM
REM
REM
REM
REM ./C.cell (50c204cfd26239f34c78669fe23a5462)
REM
REM compiler GCC version 9.2.1 20190827 (Red Hat 9.2.1-1)
REM options -cpp -mtune=generic -march=x86-64 -g -O0 -fpre-include=/usr/include/finclude/math-vector-fortran.h
REM seed -179936191 1799194858 1911191884 -1003429251 -1340329415 1226353450 1227903659 1957303030 1172971446 -2119847334 -1490831199 1512662942 1489158619 -1352813475 1142396414 714166293 -2133653219 2050636605 662350780 -1318614450 -1633271849 1948741755 486314148 -1327579674 -77985112 229880244 1801597844 1536494512 -1760330407 -21873707 1074395719 1157168292 1729832637
REM
CELL 1.54180   50.00000   50.00000   50.00000   90.00000   90.00000   90.00000
LATT -1
SFAC C  
C      1  0.5661970000000  0.4694060000000  0.4478160000000 1.0
C      1  0.4526510000000  0.4547010000000  0.4450150000000 1.0
C      1  0.4767810000000  0.5694840000000  0.4489500000000 1.0
C      1  0.4383240000000  0.4816400000000  0.4441640000000 1.0
C      1  0.5487180000000  0.4457010000000  0.4483840000000 1.0
C      1  0.5059170000000  0.5729760000000  0.4481790000000 1.0
C      1  0.4200350000000  0.4859880000000  0.4658150000000 1.0
C      1  0.5187820000000  0.5840870000000  0.4709360000000 1.0
C      1  0.5536810000000  0.4270900000000  0.4692020000000 1.0
C      1  0.5821130000000  0.4752200000000  0.4706540000000 1.0
C      1  0.4631720000000  0.5830990000000  0.4696680000000 1.0
C      1  0.4434300000000  0.4371200000000  0.4657610000000 1.0
C      1  0.4879320000000  0.5254290000000  0.4638930000000 1.0
C      1  0.5293350000000  0.5006540000000  0.4503410000000 1.0
C      1  0.4873340000000  0.4762940000000  0.4640460000000 1.0
C      1  0.5153670000000  0.5253970000000  0.4507110000000 1.0
C      1  0.4767110000000  0.5001750000000  0.4550740000000 1.0
C      1  0.5174710000000  0.4766030000000  0.4641540000000 1.0
C      1  0.5273660000000  0.5519060000000  0.5121660000000 1.0
C      1  0.5315560000000  0.4513230000000  0.5089080000000 1.0
C      1  0.4436890000000  0.5002440000000  0.5110130000000 1.0
C      1  0.4732290000000  0.5507930000000  0.5085150000000 1.0
C      1  0.4694240000000  0.4511900000000  0.5089950000000 1.0
C      1  0.5595720000000  0.4986320000000  0.5125490000000 1.0
C      1  0.4376250000000  0.4963200000000  0.5381770000000 1.0
C      1  0.5286280000000  0.5568700000000  0.5398180000000 1.0
C      1  0.5337790000000  0.4516620000000  0.5369320000000 1.0
C      1  0.5644940000000  0.4966690000000  0.5401730000000 1.0
C      1  0.4747030000000  0.5524310000000  0.5366770000000 1.0
C      1  0.4658330000000  0.4492000000000  0.5368040000000 1.0
C      1  0.5780620000000  0.4890510000000  0.4934420000000 1.0
C      1  0.4534350000000  0.4364030000000  0.4909170000000 1.0
C      1  0.4616810000000  0.5722110000000  0.4942950000000 1.0
C      1  0.4246370000000  0.4954450000000  0.4907120000000 1.0
C      1  0.5439960000000  0.4307960000000  0.4940910000000 1.0
C      1  0.5284130000000  0.5730400000000  0.4935360000000 1.0
C      1  0.4576740000000  0.5083900000000  0.5801260000000 1.0
C      1  0.5296290000000  0.5325310000000  0.5814350000000 1.0
C      1  0.5132060000000  0.4602000000000  0.5794200000000 1.0
C      1  0.5432390000000  0.5094950000000  0.5815090000000 1.0
C      1  0.4718240000000  0.5310990000000  0.5797290000000 1.0
C      1  0.4864850000000  0.4591040000000  0.5791470000000 1.0
C      1  0.5168340000000  0.5260620000000  0.5043440000000 1.0
C      1  0.5196460000000  0.4754790000000  0.4954450000000 1.0
C      1  0.4718190000000  0.5012770000000  0.5043130000000 1.0
C      1  0.4872720000000  0.5267670000000  0.4951120000000 1.0
C      1  0.4843790000000  0.4746900000000  0.4990910000000 1.0
C      1  0.5318520000000  0.5015060000000  0.5048790000000 1.0
C      1  0.5208650000000  0.4520440000000  0.4461750000000 1.0
C      1  0.4546730000000  0.5055220000000  0.4400510000000 1.0
C      1  0.5201860000000  0.5502890000000  0.4379640000000 1.0
C      1  0.4818990000000  0.4542740000000  0.4447380000000 1.0
C      1  0.5534690000000  0.4929850000000  0.4374060000000 1.0
C      1  0.4687300000000  0.5421560000000  0.4472870000000 1.0
C      1  0.5340150000000  0.4655510000000  0.5613930000000 1.0
C      1  0.4509630000000  0.4882810000000  0.5617100000000 1.0
C      1  0.5151760000000  0.5478480000000  0.5629240000000 1.0
C      1  0.4656550000000  0.4637890000000  0.5609280000000 1.0
C      1  0.5496850000000  0.4893450000000  0.5630890000000 1.0
C      1  0.4867530000000  0.5460640000000  0.5613030000000 1.0
END
