TITL C-2323492-8884-184 -1.43451299937431e-05 125000 -364.352277433191 0 0 60 (Cs) n - 1
REM
REM in /home/bkarasulu/CARBON/AIRSS/Generating-Clusters/LCBOP/Higher-Symm/Only-C60/SD-CG/FIRE-HFTN
REM
REM
REM
REM
REM
REM ./C.cell (50c204cfd26239f34c78669fe23a5462)
REM
REM compiler GCC version 9.2.1 20190827 (Red Hat 9.2.1-1)
REM options -cpp -mtune=generic -march=x86-64 -g -O0 -fpre-include=/usr/include/finclude/math-vector-fortran.h
REM seed -984434867 -799978246 899833157 -278337472 -322946957 1073651054 1831905857 -1145957218 725474626 -2121082525 265558241 1080988425 1364112964 1058475740 211276725 385924991 -1290435169 1276617310 1161129105 -1426601205 606536389 -1487523504 -1378769504 1662163102 -413433899 403813829 -126524967 -1540468690 1432744477 506490607 480590374 -558296460 -117255970
REM
CELL 1.54180   50.00000   50.00000   50.00000   90.00000   90.00000   90.00000
LATT -1
SFAC C  
C      1  0.5595060000000  0.4647750000000  0.5783160000000 1.0
C      1  0.5053860000000  0.5631070000000  0.5272300000000 1.0
C      1  0.5429230000000  0.5395340000000  0.4968330000000 1.0
C      1  0.4838340000000  0.5119180000000  0.4335470000000 1.0
C      1  0.4639280000000  0.4851990000000  0.5610560000000 1.0
C      1  0.5414150000000  0.4813690000000  0.4430950000000 1.0
C      1  0.5021850000000  0.5578800000000  0.4474290000000 1.0
C      1  0.4885910000000  0.4450400000000  0.5366380000000 1.0
C      1  0.5104430000000  0.4487940000000  0.4721380000000 1.0
C      1  0.4281850000000  0.5351810000000  0.5022410000000 1.0
C      1  0.4461270000000  0.4634850000000  0.5179770000000 1.0
C      1  0.5538380000000  0.4711620000000  0.4897400000000 1.0
C      1  0.5783290000000  0.4647700000000  0.5594850000000 1.0
C      1  0.5272500000000  0.5631000000000  0.5053570000000 1.0
C      1  0.4968620000000  0.5395480000000  0.5429130000000 1.0
C      1  0.4335450000000  0.5119320000000  0.4838570000000 1.0
C      1  0.5610380000000  0.4851710000000  0.4639080000000 1.0
C      1  0.4431060000000  0.4813980000000  0.5414430000000 1.0
C      1  0.4474470000000  0.5578960000000  0.5021890000000 1.0
C      1  0.5366180000000  0.4450260000000  0.4885920000000 1.0
C      1  0.4721270000000  0.4488050000000  0.5104690000000 1.0
C      1  0.5022230000000  0.5351600000000  0.4281740000000 1.0
C      1  0.5179450000000  0.4634640000000  0.4461310000000 1.0
C      1  0.4897530000000  0.4711800000000  0.5538500000000 1.0
C      1  0.5083580000000  0.4679800000000  0.5765080000000 1.0
C      1  0.4565600000000  0.5794560000000  0.5190780000000 1.0
C      1  0.5734620000000  0.5110760000000  0.4686930000000 1.0
C      1  0.4982160000000  0.4661770000000  0.4256030000000 1.0
C      1  0.4838320000000  0.5336460000000  0.5681590000000 1.0
C      1  0.5272080000000  0.5254950000000  0.4181670000000 1.0
C      1  0.5257520000000  0.5822500000000  0.4832780000000 1.0
C      1  0.5323020000000  0.4300900000000  0.5130230000000 1.0
C      1  0.4716940000000  0.4246820000000  0.4917320000000 1.0
C      1  0.4237710000000  0.5023660000000  0.5401080000000 1.0
C      1  0.4178050000000  0.4883170000000  0.4844910000000 1.0
C      1  0.5845730000000  0.4659380000000  0.5336310000000 1.0
C      1  0.5765020000000  0.4679600000000  0.5083370000000 1.0
C      1  0.5190840000000  0.5794380000000  0.4565300000000 1.0
C      1  0.4687250000000  0.5111060000000  0.5734710000000 1.0
C      1  0.4255920000000  0.4661980000000  0.4982550000000 1.0
C      1  0.5681630000000  0.5336220000000  0.4837950000000 1.0
C      1  0.4181850000000  0.5255270000000  0.5272330000000 1.0
C      1  0.4833120000000  0.5822620000000  0.5257350000000 1.0
C      1  0.5130160000000  0.4300960000000  0.5323170000000 1.0
C      1  0.4916990000000  0.4246770000000  0.4717190000000 1.0
C      1  0.5400790000000  0.5023320000000  0.4237550000000 1.0
C      1  0.4844550000000  0.4882980000000  0.4178150000000 1.0
C      1  0.5336550000000  0.4659530000000  0.5845690000000 1.0
C      1  0.5043590000000  0.5207930000000  0.4736410000000 1.0
C      1  0.4895850000000  0.5168710000000  0.5270110000000 1.0
C      1  0.4724990000000  0.5477570000000  0.4922960000000 1.0
C      1  0.4998870000000  0.4914200000000  0.5332130000000 1.0
C      1  0.5109760000000  0.4798700000000  0.5109780000000 1.0
C      1  0.4736490000000  0.5208010000000  0.5043630000000 1.0
C      1  0.4942000000000  0.4652550000000  0.4942130000000 1.0
C      1  0.4922990000000  0.5477520000000  0.4724880000000 1.0
C      1  0.5270120000000  0.5168600000000  0.4895690000000 1.0
C      1  0.5332100000000  0.4914110000000  0.4998760000000 1.0
C      1  0.4617360000000  0.5056900000000  0.4819990000000 1.0
C      1  0.4819860000000  0.5056840000000  0.4617420000000 1.0
END
