TITL C-2323483-8886-152 0.000416368265342197 125000 -352.54046015516 0 0 60 (Ci) n - 1
REM
REM in /home/bkarasulu/CARBON/AIRSS/Generating-Clusters/LCBOP/Higher-Symm/Only-C60/SD-CG/FIRE-HFTN
REM
REM
REM
REM
REM
REM ./C.cell (50c204cfd26239f34c78669fe23a5462)
REM
REM compiler GCC version 9.2.1 20190827 (Red Hat 9.2.1-1)
REM options -cpp -mtune=generic -march=x86-64 -g -O0 -fpre-include=/usr/include/finclude/math-vector-fortran.h
REM seed 291978890 1329661681 -1001302029 -1189692755 1270323289 881943997 1550503007 1303494157 -734756809 1510872991 1030113009 1854957203 311184163 1991145625 1626795637 326521880 -890472232 1539660247 1605675995 2021966962 -309122124 2051670705 -249728337 -1354181174 -1912370139 -1537807330 45413255 444737998 -1913047826 385058822 -298814399 -166738779 1066832707
REM
CELL 1.54180   50.00000   50.00000   50.00000   90.00000   90.00000   90.00000
LATT -1
SFAC C  
C      1  0.5850700000000  0.4869700000000  0.4029160000000 1.0
C      1  0.4149300000000  0.5130300000000  0.5970840000000 1.0
C      1  0.5784140000000  0.4938860000000  0.4276080000000 1.0
C      1  0.4215860000000  0.5061140000000  0.5723920000000 1.0
C      1  0.5286870000000  0.5584360000000  0.5379840000000 1.0
C      1  0.4713130000000  0.4415640000000  0.4620160000000 1.0
C      1  0.4947790000000  0.5084400000000  0.4237840000000 1.0
C      1  0.5052210000000  0.4915600000000  0.5762160000000 1.0
C      1  0.5441260000000  0.5139080000000  0.5631580000000 1.0
C      1  0.4558740000000  0.4860920000000  0.4368420000000 1.0
C      1  0.4218140000000  0.5198050000000  0.5037900000000 1.0
C      1  0.5781860000000  0.4801950000000  0.4962100000000 1.0
C      1  0.5361220000000  0.4674960000000  0.5433620000000 1.0
C      1  0.4638780000000  0.5325040000000  0.4566380000000 1.0
C      1  0.4623810000000  0.5350100000000  0.5313900000000 1.0
C      1  0.5376190000000  0.4649900000000  0.4686100000000 1.0
C      1  0.5512340000000  0.5614140000000  0.4957080000000 1.0
C      1  0.4487660000000  0.4385860000000  0.5042920000000 1.0
C      1  0.4928510000000  0.4557520000000  0.5269930000000 1.0
C      1  0.5071490000000  0.5442480000000  0.4730070000000 1.0
C      1  0.4293000000000  0.4575880000000  0.5136450000000 1.0
C      1  0.5707000000000  0.5424120000000  0.4863550000000 1.0
C      1  0.5137100000000  0.4889470000000  0.4265990000000 1.0
C      1  0.4862900000000  0.5110530000000  0.5734010000000 1.0
C      1  0.5518870000000  0.5690190000000  0.5236830000000 1.0
C      1  0.4481130000000  0.4309810000000  0.4763170000000 1.0
C      1  0.4839400000000  0.4827900000000  0.5276860000000 1.0
C      1  0.5160600000000  0.5172100000000  0.4723140000000 1.0
C      1  0.4306960000000  0.4721880000000  0.5381620000000 1.0
C      1  0.5693040000000  0.5278120000000  0.4618380000000 1.0
C      1  0.5885520000000  0.5014660000000  0.5094290000000 1.0
C      1  0.4114480000000  0.4985340000000  0.4905710000000 1.0
C      1  0.5343540000000  0.5112100000000  0.4924740000000 1.0
C      1  0.4656460000000  0.4887900000000  0.5075260000000 1.0
C      1  0.5254710000000  0.4707940000000  0.4430120000000 1.0
C      1  0.4745290000000  0.5292060000000  0.5569880000000 1.0
C      1  0.5222600000000  0.5604480000000  0.4910000000000 1.0
C      1  0.4777400000000  0.4395520000000  0.5090000000000 1.0
C      1  0.4688580000000  0.5117090000000  0.4362250000000 1.0
C      1  0.5311420000000  0.4882910000000  0.5637750000000 1.0
C      1  0.4372000000000  0.5207900000000  0.5276160000000 1.0
C      1  0.5628000000000  0.4792100000000  0.4723840000000 1.0
C      1  0.5219890000000  0.4554730000000  0.5207420000000 1.0
C      1  0.4780110000000  0.5445270000000  0.4792580000000 1.0
C      1  0.4302630000000  0.4995580000000  0.5466800000000 1.0
C      1  0.5697370000000  0.5004420000000  0.4533200000000 1.0
C      1  0.4933390000000  0.4416080000000  0.4825550000000 1.0
C      1  0.5066610000000  0.5583920000000  0.5174450000000 1.0
C      1  0.5862610000000  0.5282640000000  0.5058610000000 1.0
C      1  0.4137390000000  0.4717360000000  0.4941390000000 1.0
C      1  0.5356360000000  0.5390930000000  0.5574470000000 1.0
C      1  0.4643640000000  0.4609070000000  0.4425530000000 1.0
C      1  0.5043480000000  0.5018050000000  0.5296770000000 1.0
C      1  0.4956520000000  0.4981950000000  0.4703230000000 1.0
C      1  0.4726930000000  0.4918630000000  0.4821740000000 1.0
C      1  0.5273070000000  0.5081370000000  0.5178260000000 1.0
C      1  0.5212240000000  0.4521510000000  0.4896090000000 1.0
C      1  0.4787760000000  0.5478490000000  0.5103910000000 1.0
C      1  0.4088380000000  0.5200030000000  0.6214530000000 1.0
C      1  0.5911620000000  0.4799970000000  0.3785470000000 1.0
END
