TITL C-2323481-8605-274 0.0276115767862458 125000 -365.304310885837 0 0 60 (C1) n - 1
REM
REM in /home/bkarasulu/CARBON/AIRSS/Generating-Clusters/LCBOP/Higher-Symm/Only-C60/SD-CG/FIRE-HFTN
REM
REM
REM
REM
REM
REM ./C.cell (50c204cfd26239f34c78669fe23a5462)
REM
REM compiler GCC version 9.2.1 20190827 (Red Hat 9.2.1-1)
REM options -cpp -mtune=generic -march=x86-64 -g -O0 -fpre-include=/usr/include/finclude/math-vector-fortran.h
REM seed -1341867126 -627769254 -486140851 -1724975760 -903602570 -599342482 714933135 1670571089 -1813485275 -2065246281 1909956867 258543051 21352470 1194151152 564343149 -1949350321 -565553469 -1450844088 825027808 548003149 133938916 95551162 721909209 -998807859 729706055 -1775610222 1225891448 -737946122 381899135 1594174345 598602334 1783820252 -2034749462
REM
CELL 1.54180   50.00000   50.00000   50.00000   90.00000   90.00000   90.00000
LATT -1
SFAC C  
C      1  0.4982920000000  0.5028460000000  0.5622660000000 1.0
C      1  0.4812380000000  0.5325900000000  0.5067220000000 1.0
C      1  0.5396470000000  0.4905590000000  0.4983430000000 1.0
C      1  0.4844790000000  0.5488760000000  0.5511250000000 1.0
C      1  0.5111680000000  0.5162230000000  0.4695220000000 1.0
C      1  0.4939230000000  0.4746520000000  0.4808510000000 1.0
C      1  0.5073700000000  0.4678000000000  0.5282710000000 1.0
C      1  0.4663660000000  0.4486410000000  0.5101470000000 1.0
C      1  0.5348290000000  0.5388930000000  0.5026790000000 1.0
C      1  0.4523260000000  0.4924520000000  0.4959280000000 1.0
C      1  0.5424100000000  0.4947460000000  0.5469760000000 1.0
C      1  0.4548890000000  0.5118880000000  0.5416320000000 1.0
C      1  0.4771270000000  0.5219090000000  0.5573640000000 1.0
C      1  0.5329540000000  0.4800740000000  0.5241340000000 1.0
C      1  0.5080770000000  0.5310040000000  0.4941520000000 1.0
C      1  0.5255510000000  0.5123100000000  0.5620120000000 1.0
C      1  0.5206730000000  0.4874950000000  0.4739880000000 1.0
C      1  0.4694570000000  0.4898710000000  0.4729330000000 1.0
C      1  0.4603890000000  0.5135520000000  0.5132010000000 1.0
C      1  0.4443860000000  0.4682370000000  0.5084380000000 1.0
C      1  0.5523210000000  0.5165390000000  0.4993920000000 1.0
C      1  0.4918120000000  0.4593500000000  0.5054910000000 1.0
C      1  0.4784640000000  0.5559020000000  0.5232340000000 1.0
C      1  0.4947640000000  0.4749050000000  0.5537510000000 1.0
C      1  0.4453390000000  0.5305680000000  0.4544950000000 1.0
C      1  0.5241540000000  0.4537370000000  0.4350080000000 1.0
C      1  0.4557820000000  0.4477810000000  0.5472310000000 1.0
C      1  0.5606240000000  0.4843510000000  0.4438760000000 1.0
C      1  0.4371840000000  0.4922620000000  0.5525770000000 1.0
C      1  0.5583710000000  0.5492770000000  0.5597900000000 1.0
C      1  0.4934460000000  0.5250190000000  0.4495190000000 1.0
C      1  0.5114190000000  0.5590510000000  0.5547030000000 1.0
C      1  0.4608500000000  0.4698490000000  0.5889560000000 1.0
C      1  0.5415070000000  0.5622880000000  0.5174050000000 1.0
C      1  0.4774290000000  0.5694770000000  0.4630900000000 1.0
C      1  0.5688950000000  0.4465110000000  0.4177080000000 1.0
C      1  0.5429440000000  0.4361280000000  0.4221280000000 1.0
C      1  0.4678230000000  0.5122460000000  0.4541170000000 1.0
C      1  0.4360460000000  0.4680420000000  0.5370720000000 1.0
C      1  0.4939400000000  0.5534360000000  0.4457720000000 1.0
C      1  0.4740550000000  0.4589550000000  0.5656220000000 1.0
C      1  0.5183990000000  0.5746370000000  0.5295780000000 1.0
C      1  0.5345380000000  0.4754620000000  0.4506460000000 1.0
C      1  0.5316100000000  0.5403490000000  0.5644420000000 1.0
C      1  0.4397450000000  0.4874190000000  0.5807950000000 1.0
C      1  0.5636860000000  0.5604520000000  0.5353600000000 1.0
C      1  0.5793640000000  0.4707560000000  0.4277120000000 1.0
C      1  0.4512450000000  0.5575510000000  0.4626650000000 1.0
C      1  0.4677060000000  0.4641270000000  0.6151490000000 1.0
C      1  0.4721700000000  0.4461170000000  0.4231250000000 1.0
C      1  0.5361670000000  0.4101520000000  0.4147840000000 1.0
C      1  0.3958470000000  0.5141730000000  0.4410140000000 1.0
C      1  0.4968570000000  0.4507290000000  0.4300990000000 1.0
C      1  0.4883180000000  0.5834610000000  0.4856130000000 1.0
C      1  0.4943140000000  0.5778740000000  0.5129100000000 1.0
C      1  0.5291370000000  0.3859950000000  0.4079870000000 1.0
C      1  0.6289200000000  0.4888540000000  0.4173120000000 1.0
C      1  0.4197200000000  0.5226440000000  0.4471340000000 1.0
C      1  0.6049040000000  0.4800670000000  0.4223340000000 1.0
C      1  0.4746300000000  0.4588880000000  0.6397200000000 1.0
END
