TITL C-2323489-8765-190 0.133694280659508 125000 -342.116453559172 0 0 60 (C1) n - 1
REM
REM in /home/bkarasulu/CARBON/AIRSS/Generating-Clusters/LCBOP/Higher-Symm/Only-C60/SD-CG/FIRE-HFTN
REM
REM
REM
REM
REM
REM ./C.cell (50c204cfd26239f34c78669fe23a5462)
REM
REM compiler GCC version 9.2.1 20190827 (Red Hat 9.2.1-1)
REM options -cpp -mtune=generic -march=x86-64 -g -O0 -fpre-include=/usr/include/finclude/math-vector-fortran.h
REM seed -1237739657 -1633151366 456383985 796755470 -1918487437 -984840845 356714044 -1889966793 842887453 630697809 -226346780 1730957453 466527423 -1267224943 -678230524 -1744290773 1450340257 1278410828 1638566592 1134759609 -896898914 516000575 -1974003871 1903500611 -163371279 -1602345835 1356681598 -1182904925 -1513377604 -1727064632 -1066103926 -548613794 1940171555
REM
CELL 1.54180   50.00000   50.00000   50.00000   90.00000   90.00000   90.00000
LATT -1
SFAC C  
C      1  0.5706110000000  0.4476840000000  0.5128180000000 1.0
C      1  0.4743900000000  0.4280970000000  0.5495220000000 1.0
C      1  0.4441980000000  0.4380160000000  0.4538000000000 1.0
C      1  0.5416700000000  0.5572220000000  0.5376120000000 1.0
C      1  0.4467620000000  0.5500500000000  0.5184700000000 1.0
C      1  0.5054560000000  0.5444930000000  0.4554070000000 1.0
C      1  0.6420220000000  0.5337490000000  0.5771400000000 1.0
C      1  0.4145460000000  0.4744870000000  0.5605110000000 1.0
C      1  0.5359700000000  0.5404610000000  0.3619500000000 1.0
C      1  0.5297260000000  0.5502150000000  0.4694900000000 1.0
C      1  0.5163850000000  0.5463510000000  0.5445840000000 1.0
C      1  0.4476880000000  0.5571910000000  0.4901730000000 1.0
C      1  0.4142640000000  0.4997850000000  0.5542100000000 1.0
C      1  0.5228410000000  0.5379010000000  0.3843260000000 1.0
C      1  0.6235430000000  0.5276850000000  0.5597790000000 1.0
C      1  0.4884740000000  0.4463980000000  0.5663720000000 1.0
C      1  0.4310980000000  0.4621690000000  0.4478710000000 1.0
C      1  0.5726760000000  0.4566010000000  0.4859960000000 1.0
C      1  0.5475070000000  0.5006800000000  0.4849080000000 1.0
C      1  0.5089450000000  0.4899630000000  0.5456240000000 1.0
C      1  0.4556360000000  0.5079570000000  0.4583810000000 1.0
C      1  0.5214450000000  0.4866060000000  0.4956170000000 1.0
C      1  0.4859420000000  0.4842210000000  0.5250140000000 1.0
C      1  0.4761650000000  0.4890960000000  0.4745780000000 1.0
C      1  0.5525750000000  0.4621940000000  0.5291530000000 1.0
C      1  0.4755420000000  0.4340320000000  0.5215630000000 1.0
C      1  0.4647640000000  0.4393890000000  0.4735350000000 1.0
C      1  0.6047310000000  0.5215470000000  0.5421450000000 1.0
C      1  0.4167510000000  0.5250040000000  0.5464570000000 1.0
C      1  0.5095670000000  0.5353120000000  0.4071080000000 1.0
C      1  0.4726720000000  0.5175550000000  0.4347910000000 1.0
C      1  0.5657190000000  0.5091110000000  0.5085560000000 1.0
C      1  0.4117720000000  0.5726470000000  0.5425120000000 1.0
C      1  0.4734590000000  0.5406860000000  0.5233650000000 1.0
C      1  0.4869830000000  0.5429630000000  0.4761540000000 1.0
C      1  0.5462850000000  0.5683590000000  0.5131590000000 1.0
C      1  0.4844970000000  0.4605030000000  0.4713630000000 1.0
C      1  0.5317580000000  0.4806730000000  0.5268150000000 1.0
C      1  0.4917060000000  0.4561840000000  0.5158890000000 1.0
C      1  0.5632200000000  0.4780810000000  0.4724880000000 1.0
C      1  0.5023970000000  0.4696900000000  0.5668380000000 1.0
C      1  0.4342420000000  0.4886410000000  0.4496960000000 1.0
C      1  0.4756000000000  0.5678660000000  0.4857360000000 1.0
C      1  0.5261700000000  0.5688380000000  0.4926800000000 1.0
C      1  0.4945490000000  0.5593860000000  0.5306500000000 1.0
C      1  0.5850180000000  0.4265680000000  0.5222780000000 1.0
C      1  0.4608920000000  0.4066750000000  0.5596520000000 1.0
C      1  0.4382480000000  0.4148690000000  0.4406180000000 1.0
C      1  0.5856200000000  0.5155790000000  0.5247930000000 1.0
C      1  0.4248780000000  0.5495990000000  0.5358550000000 1.0
C      1  0.4965500000000  0.5326760000000  0.4314520000000 1.0
C      1  0.4427440000000  0.5334460000000  0.4725560000000 1.0
C      1  0.5455740000000  0.5268140000000  0.4706530000000 1.0
C      1  0.5127570000000  0.5190270000000  0.5526970000000 1.0
C      1  0.4854900000000  0.5271330000000  0.5001970000000 1.0
C      1  0.5076660000000  0.4581030000000  0.4901400000000 1.0
C      1  0.4503270000000  0.3992460000000  0.4983070000000 1.0
C      1  0.4629740000000  0.4235200000000  0.4980110000000 1.0
C      1  0.4984300000000  0.5748420000000  0.5045130000000 1.0
C      1  0.4928150000000  0.5001600000000  0.4993890000000 1.0
END
