TITL C-2323486-8761-373 0.000216765209734612 125000 -360.04442167215 0 0 60 (C1) n - 1
REM
REM in /home/bkarasulu/CARBON/AIRSS/Generating-Clusters/LCBOP/Higher-Symm/Only-C60/SD-CG/FIRE-HFTN
REM
REM
REM
REM
REM
REM ./C.cell (50c204cfd26239f34c78669fe23a5462)
REM
REM compiler GCC version 9.2.1 20190827 (Red Hat 9.2.1-1)
REM options -cpp -mtune=generic -march=x86-64 -g -O0 -fpre-include=/usr/include/finclude/math-vector-fortran.h
REM seed -96022178 1334144199 1207296797 -1100320112 -1088603006 -1862238493 1830755442 665637647 -664614456 1477483830 855986351 773377102 1297115614 1487990302 357877927 -1008392313 -2117455640 -57837789 -1796190986 737461004 -1925456481 1052684439 -591869061 1766686061 -86486493 -1628574210 1867407883 43997054 472515978 -1182007330 632341281 229805626 -44953740
REM
CELL 1.54180   50.00000   50.00000   50.00000   90.00000   90.00000   90.00000
LATT -1
SFAC C  
C      1  0.4770860000000  0.4242330000000  0.5018340000000 1.0
C      1  0.4193830000000  0.4955740000000  0.4752510000000 1.0
C      1  0.5007350000000  0.4821300000000  0.4258070000000 1.0
C      1  0.4763560000000  0.5761460000000  0.4995740000000 1.0
C      1  0.5226120000000  0.4186240000000  0.5038440000000 1.0
C      1  0.5232400000000  0.5744690000000  0.4885520000000 1.0
C      1  0.4170200000000  0.5034910000000  0.5201920000000 1.0
C      1  0.5785930000000  0.4924620000000  0.5221040000000 1.0
C      1  0.5796170000000  0.5004720000000  0.4778700000000 1.0
C      1  0.5028730000000  0.5140220000000  0.5747150000000 1.0
C      1  0.5158860000000  0.4674590000000  0.5827310000000 1.0
C      1  0.5137860000000  0.5290320000000  0.4177450000000 1.0
C      1  0.4736960000000  0.4897680000000  0.4216290000000 1.0
C      1  0.4204100000000  0.4800510000000  0.4998320000000 1.0
C      1  0.4932820000000  0.4261210000000  0.4778540000000 1.0
C      1  0.4757930000000  0.5057020000000  0.5771660000000 1.0
C      1  0.5230500000000  0.5016100000000  0.4206140000000 1.0
C      1  0.5237580000000  0.4942420000000  0.5780990000000 1.0
C      1  0.4157560000000  0.5256470000000  0.5011410000000 1.0
C      1  0.5745120000000  0.5223240000000  0.4954840000000 1.0
C      1  0.5782810000000  0.4777300000000  0.4973800000000 1.0
C      1  0.4855850000000  0.5739920000000  0.5270990000000 1.0
C      1  0.4966120000000  0.5775780000000  0.4780830000000 1.0
C      1  0.4997980000000  0.4194440000000  0.5221900000000 1.0
C      1  0.5575710000000  0.4596370000000  0.4949300000000 1.0
C      1  0.4592800000000  0.5007440000000  0.5562050000000 1.0
C      1  0.4944930000000  0.5658590000000  0.4515950000000 1.0
C      1  0.5509710000000  0.5337130000000  0.5027180000000 1.0
C      1  0.4475920000000  0.4694420000000  0.5041620000000 1.0
C      1  0.4401840000000  0.5385270000000  0.4948200000000 1.0
C      1  0.4544210000000  0.4977840000000  0.4387150000000 1.0
C      1  0.5429470000000  0.4997790000000  0.4429660000000 1.0
C      1  0.5480690000000  0.4971930000000  0.5636090000000 1.0
C      1  0.5010330000000  0.4421880000000  0.5406180000000 1.0
C      1  0.4959920000000  0.5579990000000  0.5466460000000 1.0
C      1  0.5008820000000  0.4525480000000  0.4713260000000 1.0
C      1  0.5697860000000  0.4997550000000  0.4513920000000 1.0
C      1  0.4508250000000  0.5645880000000  0.4947830000000 1.0
C      1  0.5079090000000  0.4471400000000  0.5671000000000 1.0
C      1  0.5550940000000  0.4963810000000  0.5364480000000 1.0
C      1  0.4446890000000  0.5030100000000  0.4644090000000 1.0
C      1  0.4420270000000  0.5040290000000  0.5354800000000 1.0
C      1  0.4637870000000  0.4480750000000  0.5075230000000 1.0
C      1  0.5372060000000  0.4422670000000  0.5003660000000 1.0
C      1  0.5285910000000  0.5493820000000  0.5001240000000 1.0
C      1  0.5032880000000  0.5402840000000  0.4417920000000 1.0
C      1  0.5057050000000  0.5315390000000  0.5520950000000 1.0
C      1  0.5044420000000  0.4694550000000  0.4505640000000 1.0
C      1  0.5034970000000  0.5200210000000  0.4624160000000 1.0
C      1  0.5126820000000  0.4633950000000  0.4975760000000 1.0
C      1  0.4615700000000  0.4963460000000  0.5115230000000 1.0
C      1  0.4864830000000  0.4924270000000  0.5275160000000 1.0
C      1  0.5075590000000  0.5142330000000  0.5272480000000 1.0
C      1  0.5237310000000  0.4978660000000  0.4661340000000 1.0
C      1  0.5039660000000  0.5345080000000  0.5056250000000 1.0
C      1  0.4948170000000  0.4650590000000  0.5219620000000 1.0
C      1  0.4877730000000  0.5256860000000  0.4845120000000 1.0
C      1  0.4602360000000  0.5162090000000  0.4879790000000 1.0
C      1  0.5294870000000  0.4875610000000  0.4927150000000 1.0
C      1  0.5336950000000  0.5030460000000  0.5176190000000 1.0
END
