TITL C-2323482-8828-336 8.27744952371405e-06 125000 -327.63737981038 0 0 60 (Ci) n - 1
REM
REM in /home/bkarasulu/CARBON/AIRSS/Generating-Clusters/LCBOP/Higher-Symm/Only-C60/SD-CG/FIRE-HFTN
REM
REM
REM
REM
REM
REM ./C.cell (50c204cfd26239f34c78669fe23a5462)
REM
REM compiler GCC version 9.2.1 20190827 (Red Hat 9.2.1-1)
REM options -cpp -mtune=generic -march=x86-64 -g -O0 -fpre-include=/usr/include/finclude/math-vector-fortran.h
REM seed -1084969741 1561069495 -175388346 758718759 1496620143 -1846178994 107839288 2126145727 2128196214 1186600892 -258066516 224279943 1329111465 -1725436528 1740156813 -1669621356 113869857 724341392 397754871 1062893769 97205313 -735759598 -1803900909 -121884469 -22350138 888172792 1110149145 1275802850 -1436789928 629622763 -1447216346 817443706 -1210771620
REM
CELL 1.54180   50.00000   50.00000   50.00000   90.00000   90.00000   90.00000
LATT -1
SFAC C  
C      1  0.4683560000000  0.4571170000000  0.5609760000000 1.0
C      1  0.4572420000000  0.5608710000000  0.4685680000000 1.0
C      1  0.5611200000000  0.4684980000000  0.4571580000000 1.0
C      1  0.5314830000000  0.5430420000000  0.5609450000000 1.0
C      1  0.4681090000000  0.5426520000000  0.4397150000000 1.0
C      1  0.5313190000000  0.4564780000000  0.4387060000000 1.0
C      1  0.5429220000000  0.4396280000000  0.4680480000000 1.0
C      1  0.4564280000000  0.4389940000000  0.5309110000000 1.0
C      1  0.5438750000000  0.5611070000000  0.5310350000000 1.0
C      1  0.4388300000000  0.5310000000000  0.4566080000000 1.0
C      1  0.5603350000000  0.5316770000000  0.5430900000000 1.0
C      1  0.4394780000000  0.4681250000000  0.5429080000000 1.0
C      1  0.4686500000000  0.4563120000000  0.4386370000000 1.0
C      1  0.4574410000000  0.5609380000000  0.5315880000000 1.0
C      1  0.5602060000000  0.4684880000000  0.5431080000000 1.0
C      1  0.5310020000000  0.5434610000000  0.4390570000000 1.0
C      1  0.4683810000000  0.5430380000000  0.5605400000000 1.0
C      1  0.5313960000000  0.4572040000000  0.5610650000000 1.0
C      1  0.5434790000000  0.4392140000000  0.5309990000000 1.0
C      1  0.4570810000000  0.4394000000000  0.4679980000000 1.0
C      1  0.5430800000000  0.5605110000000  0.4680980000000 1.0
C      1  0.4391430000000  0.5310460000000  0.5436540000000 1.0
C      1  0.5610550000000  0.5315320000000  0.4571850000000 1.0
C      1  0.4388160000000  0.4681790000000  0.4571530000000 1.0
C      1  0.5140420000000  0.5253990000000  0.4276360000000 1.0
C      1  0.5254780000000  0.4277860000000  0.5139790000000 1.0
C      1  0.4276140000000  0.5141050000000  0.5256430000000 1.0
C      1  0.4855960000000  0.4743390000000  0.4271250000000 1.0
C      1  0.5141850000000  0.4747410000000  0.5729880000000 1.0
C      1  0.4855140000000  0.5255720000000  0.5727110000000 1.0
C      1  0.4750750000000  0.5726750000000  0.5143510000000 1.0
C      1  0.5257440000000  0.5726990000000  0.4853570000000 1.0
C      1  0.4746060000000  0.4274590000000  0.4852380000000 1.0
C      1  0.5723630000000  0.4856990000000  0.5257090000000 1.0
C      1  0.4270190000000  0.4854160000000  0.4747570000000 1.0
C      1  0.5728490000000  0.5143680000000  0.4748550000000 1.0
C      1  0.5142140000000  0.5255580000000  0.5728640000000 1.0
C      1  0.5254410000000  0.4276000000000  0.4852770000000 1.0
C      1  0.4273610000000  0.5141110000000  0.4747020000000 1.0
C      1  0.4854870000000  0.4747410000000  0.5728880000000 1.0
C      1  0.5142940000000  0.4744680000000  0.4272640000000 1.0
C      1  0.4853410000000  0.5252050000000  0.4276510000000 1.0
C      1  0.4749250000000  0.5727610000000  0.4856530000000 1.0
C      1  0.5259540000000  0.5727250000000  0.5140570000000 1.0
C      1  0.4745230000000  0.4276470000000  0.5139380000000 1.0
C      1  0.5728450000000  0.4856700000000  0.4748640000000 1.0
C      1  0.4273310000000  0.4854040000000  0.5255620000000 1.0
C      1  0.5724100000000  0.5144030000000  0.5256950000000 1.0
C      1  0.4197670000000  0.4748490000000  0.5001970000000 1.0
C      1  0.5000510000000  0.4201930000000  0.4746710000000 1.0
C      1  0.5798710000000  0.5250360000000  0.5003230000000 1.0
C      1  0.4208380000000  0.5249560000000  0.5002050000000 1.0
C      1  0.5798080000000  0.4750160000000  0.5003540000000 1.0
C      1  0.5249420000000  0.5000330000000  0.4206770000000 1.0
C      1  0.4747990000000  0.5001820000000  0.5799800000000 1.0
C      1  0.5248310000000  0.5001600000000  0.5802260000000 1.0
C      1  0.5002790000000  0.5800010000000  0.4748580000000 1.0
C      1  0.5005740000000  0.5797060000000  0.5249280000000 1.0
C      1  0.5000090000000  0.4210230000000  0.5247640000000 1.0
C      1  0.4747920000000  0.4997810000000  0.4203020000000 1.0
END
