TITL C-2323492-8884-270 -0.000353309633715197 125000 -359.712945813505 0 0 60 (C1) n - 1
REM
REM in /home/bkarasulu/CARBON/AIRSS/Generating-Clusters/LCBOP/Higher-Symm/Only-C60/SD-CG/FIRE-HFTN
REM
REM
REM
REM
REM
REM ./C.cell (50c204cfd26239f34c78669fe23a5462)
REM
REM compiler GCC version 9.2.1 20190827 (Red Hat 9.2.1-1)
REM options -cpp -mtune=generic -march=x86-64 -g -O0 -fpre-include=/usr/include/finclude/math-vector-fortran.h
REM seed 1327946368 -274421444 -1118584284 -1037000061 -711710532 -1435397045 -1530362312 86165922 1571895042 -1847807061 -1977095536 2107622532 1035399238 2070588635 -99881152 418998803 -466948409 1990132706 -615986725 -863763779 1015870714 -1949720126 1930732326 -1497257545 1966542870 -1830678542 1679620590 -1290767626 -1438848356 165326382 -1500130450 -1503360346 -337608539
REM
CELL 1.54180   50.00000   50.00000   50.00000   90.00000   90.00000   90.00000
LATT -1
SFAC C  
C      1  0.5447590000000  0.4290460000000  0.4829170000000 1.0
C      1  0.5759870000000  0.5597280000000  0.5153180000000 1.0
C      1  0.5250840000000  0.5359400000000  0.4414810000000 1.0
C      1  0.4267290000000  0.5435900000000  0.5523610000000 1.0
C      1  0.5233190000000  0.5780380000000  0.4668850000000 1.0
C      1  0.5713440000000  0.4774080000000  0.5134570000000 1.0
C      1  0.4643950000000  0.3582380000000  0.5320750000000 1.0
C      1  0.4141350000000  0.5875480000000  0.5257750000000 1.0
C      1  0.5393660000000  0.5580450000000  0.4524630000000 1.0
C      1  0.4150250000000  0.5655480000000  0.5431110000000 1.0
C      1  0.4352700000000  0.5897610000000  0.5075080000000 1.0
C      1  0.5268620000000  0.4174460000000  0.4990390000000 1.0
C      1  0.4634100000000  0.5327760000000  0.4527040000000 1.0
C      1  0.5413920000000  0.4648540000000  0.4503750000000 1.0
C      1  0.4732200000000  0.4631460000000  0.5512080000000 1.0
C      1  0.5034930000000  0.5638060000000  0.5096790000000 1.0
C      1  0.4962860000000  0.4493080000000  0.4472130000000 1.0
C      1  0.4806280000000  0.4060540000000  0.5128170000000 1.0
C      1  0.4628820000000  0.4213650000000  0.4970700000000 1.0
C      1  0.5965100000000  0.5479290000000  0.5007860000000 1.0
C      1  0.5086770000000  0.5339830000000  0.5527770000000 1.0
C      1  0.4715850000000  0.4864980000000  0.5350440000000 1.0
C      1  0.4790910000000  0.5633280000000  0.4932700000000 1.0
C      1  0.4955850000000  0.4625770000000  0.5693400000000 1.0
C      1  0.5200820000000  0.5150430000000  0.4606210000000 1.0
C      1  0.5237130000000  0.4872300000000  0.4587810000000 1.0
C      1  0.4452520000000  0.5247390000000  0.5544580000000 1.0
C      1  0.5136300000000  0.4220270000000  0.5457220000000 1.0
C      1  0.4827260000000  0.4764980000000  0.4875580000000 1.0
C      1  0.5072790000000  0.4147410000000  0.5191170000000 1.0
C      1  0.5227220000000  0.4470850000000  0.4360300000000 1.0
C      1  0.5617020000000  0.5542690000000  0.4706000000000 1.0
C      1  0.5113740000000  0.4395480000000  0.5660520000000 1.0
C      1  0.5453790000000  0.4765430000000  0.5241810000000 1.0
C      1  0.5739070000000  0.4668820000000  0.4874420000000 1.0
C      1  0.5563330000000  0.4522100000000  0.4711970000000 1.0
C      1  0.4720490000000  0.3812690000000  0.5225800000000 1.0
C      1  0.4576930000000  0.4393490000000  0.4759500000000 1.0
C      1  0.4447210000000  0.5119630000000  0.4576170000000 1.0
C      1  0.4404470000000  0.4880010000000  0.4695150000000 1.0
C      1  0.5261430000000  0.5747690000000  0.4961100000000 1.0
C      1  0.5068880000000  0.5392870000000  0.5250010000000 1.0
C      1  0.4766950000000  0.5371590000000  0.4278610000000 1.0
C      1  0.4994360000000  0.4726140000000  0.4651230000000 1.0
C      1  0.4682680000000  0.5096880000000  0.5515620000000 1.0
C      1  0.4578700000000  0.5808490000000  0.4968300000000 1.0
C      1  0.5531550000000  0.5646230000000  0.4983160000000 1.0
C      1  0.5034690000000  0.5393910000000  0.4231640000000 1.0
C      1  0.5188760000000  0.4754890000000  0.5217660000000 1.0
C      1  0.4791980000000  0.5412520000000  0.4749230000000 1.0
C      1  0.5011260000000  0.5234110000000  0.4804840000000 1.0
C      1  0.5885980000000  0.5444610000000  0.4743880000000 1.0
C      1  0.4727490000000  0.4346510000000  0.4518860000000 1.0
C      1  0.4559470000000  0.4677610000000  0.4818480000000 1.0
C      1  0.5022200000000  0.5165260000000  0.5078810000000 1.0
C      1  0.5028640000000  0.4893250000000  0.5777680000000 1.0
C      1  0.4932910000000  0.5139240000000  0.5657660000000 1.0
C      1  0.5925570000000  0.4874230000000  0.5273110000000 1.0
C      1  0.3938550000000  0.6057660000000  0.5266320000000 1.0
C      1  0.4927560000000  0.4882750000000  0.5132840000000 1.0
END
