TITL C-2323479-8056-138 1.49696666990453 125000 -354.158053914571 0 0 60 (C1) n - 1
REM
REM in /home/bkarasulu/CARBON/AIRSS/Generating-Clusters/LCBOP/Higher-Symm/Only-C60/SD-CG/FIRE-HFTN
REM
REM
REM
REM
REM
REM ./C.cell (50c204cfd26239f34c78669fe23a5462)
REM
REM compiler GCC version 9.2.1 20190827 (Red Hat 9.2.1-1)
REM options -cpp -mtune=generic -march=x86-64 -g -O0 -fpre-include=/usr/include/finclude/math-vector-fortran.h
REM seed 1444341742 -683247734 -652383845 1094367397 -943863359 -1720359127 -84424684 1886869636 1409602639 389182770 -2037067484 1133152193 -375144027 1366344271 -1162337483 -833943774 384012711 1220423589 -533186662 -823251750 -1309841598 -69146403 1841227236 -38502034 1390821531 -1590986319 -890894220 -1479377043 -766796116 -16756253 -1681903418 -1464188870 -468253907
REM
CELL 1.54180   50.00000   50.00000   50.00000   90.00000   90.00000   90.00000
LATT -1
SFAC C  
C      1  0.4264160000000  0.4838740000000  0.5140680000000 1.0
C      1  0.5742580000000  0.4816670000000  0.4876500000000 1.0
C      1  0.4253230000000  0.5189350000000  0.4881620000000 1.0
C      1  0.5739530000000  0.5167240000000  0.5135620000000 1.0
C      1  0.5122340000000  0.4814170000000  0.4259310000000 1.0
C      1  0.4880170000000  0.4812700000000  0.5745900000000 1.0
C      1  0.4860490000000  0.5162710000000  0.4264000000000 1.0
C      1  0.5136540000000  0.5165260000000  0.5741750000000 1.0
C      1  0.5308240000000  0.4454480000000  0.5517550000000 1.0
C      1  0.4695630000000  0.4448960000000  0.4483270000000 1.0
C      1  0.5306320000000  0.5556440000000  0.4480830000000 1.0
C      1  0.4689880000000  0.5551030000000  0.5520360000000 1.0
C      1  0.5520060000000  0.4453890000000  0.5306940000000 1.0
C      1  0.4481970000000  0.4449570000000  0.4691960000000 1.0
C      1  0.4481130000000  0.5551640000000  0.5306660000000 1.0
C      1  0.5516980000000  0.5555850000000  0.4692610000000 1.0
C      1  0.4723360000000  0.5362980000000  0.4395060000000 1.0
C      1  0.5273240000000  0.5366220000000  0.5611080000000 1.0
C      1  0.4730310000000  0.4621170000000  0.5612950000000 1.0
C      1  0.5273000000000  0.4623510000000  0.4392480000000 1.0
C      1  0.4386170000000  0.5379510000000  0.4730000000000 1.0
C      1  0.5608160000000  0.5366840000000  0.5273590000000 1.0
C      1  0.5610260000000  0.4624390000000  0.4727180000000 1.0
C      1  0.4395530000000  0.4637380000000  0.5276040000000 1.0
C      1  0.5364440000000  0.5615190000000  0.4916710000000 1.0
C      1  0.4634200000000  0.5621710000000  0.5085610000000 1.0
C      1  0.5371330000000  0.4375790000000  0.5085480000000 1.0
C      1  0.4630340000000  0.4382270000000  0.4916720000000 1.0
C      1  0.4914940000000  0.5616720000000  0.5371520000000 1.0
C      1  0.5082080000000  0.5616990000000  0.4632130000000 1.0
C      1  0.5086770000000  0.4377930000000  0.5367490000000 1.0
C      1  0.4916290000000  0.4377060000000  0.4635870000000 1.0
C      1  0.5654850000000  0.5323930000000  0.4626030000000 1.0
C      1  0.4350860000000  0.5311390000000  0.5362160000000 1.0
C      1  0.5643520000000  0.4698330000000  0.5358350000000 1.0
C      1  0.4351010000000  0.4686320000000  0.4629410000000 1.0
C      1  0.4625910000000  0.5315270000000  0.5652610000000 1.0
C      1  0.5371650000000  0.5323590000000  0.4343860000000 1.0
C      1  0.5360960000000  0.4698090000000  0.5641980000000 1.0
C      1  0.4641460000000  0.4690100000000  0.4354300000000 1.0
C      1  0.5734260000000  0.4879890000000  0.5173790000000 1.0
C      1  0.4243450000000  0.4872570000000  0.4791590000000 1.0
C      1  0.5759380000000  0.5133600000000  0.4785530000000 1.0
C      1  0.4262950000000  0.5126530000000  0.5179350000000 1.0
C      1  0.5176980000000  0.4878100000000  0.5736650000000 1.0
C      1  0.4824530000000  0.4875080000000  0.4267270000000 1.0
C      1  0.4787180000000  0.5128790000000  0.5761180000000 1.0
C      1  0.5211110000000  0.5131930000000  0.4243240000000 1.0
C      1  0.4825730000000  0.4466960000000  0.5380360000000 1.0
C      1  0.5177580000000  0.4464170000000  0.4621500000000 1.0
C      1  0.4823040000000  0.5524120000000  0.4620820000000 1.0
C      1  0.5173760000000  0.5522210000000  0.5381530000000 1.0
C      1  0.5382840000000  0.4463930000000  0.4824450000000 1.0
C      1  0.4621120000000  0.4475540000000  0.5176070000000 1.0
C      1  0.4619120000000  0.5532930000000  0.4824950000000 1.0
C      1  0.5377160000000  0.5521840000000  0.5175870000000 1.0
C      1  0.4450630000000  0.4662880000000  0.5558150000000 1.0
C      1  0.5553040000000  0.4663310000000  0.4447440000000 1.0
C      1  0.4441260000000  0.5336610000000  0.4450410000000 1.0
C      1  0.5554980000000  0.5337630000000  0.5555670000000 1.0
END
