TITL C-2323477-5056-352 6.94071368499113e-06 125000 -354.129081584223 0 0 60 (C2h) n - 1
REM
REM in /home/bkarasulu/CARBON/AIRSS/Generating-Clusters/LCBOP/Higher-Symm/Only-C60/SD-CG/FIRE-HFTN
REM
REM
REM
REM
REM
REM ./C.cell (50c204cfd26239f34c78669fe23a5462)
REM
REM compiler GCC version 9.2.1 20190827 (Red Hat 9.2.1-1)
REM options -cpp -mtune=generic -march=x86-64 -g -O0 -fpre-include=/usr/include/finclude/math-vector-fortran.h
REM seed -2095639375 -1821094614 977282458 987797110 1910443600 -252477000 -526816006 1687181865 -1484679043 -951655995 -1410948674 -1041104773 -126602241 -516630730 1886499644 -1958843490 1790268014 -772339783 -2089614699 -977184820 234774183 1669841436 422823167 228848978 -1085378129 -872865157 606233664 -1656567147 302119346 1558140368 -162656559 -778536734 -1545933516
REM
CELL 1.54180   50.00000   50.00000   50.00000   90.00000   90.00000   90.00000
LATT -1
SFAC C  
C      1  0.5064490000000  0.4433150000000  0.5690920000000 1.0
C      1  0.4935070000000  0.5567070000000  0.5690700000000 1.0
C      1  0.5064930000000  0.4432930000000  0.4309300000000 1.0
C      1  0.4935510000000  0.5566850000000  0.4309080000000 1.0
C      1  0.5226600000000  0.4302520000000  0.5496760000000 1.0
C      1  0.4773080000000  0.5697640000000  0.5496390000000 1.0
C      1  0.5226920000000  0.4302360000000  0.4503610000000 1.0
C      1  0.4773400000000  0.5697480000000  0.4503240000000 1.0
C      1  0.5030610000000  0.3971710000000  0.4866850000000 1.0
C      1  0.4969480000000  0.6028250000000  0.4866510000000 1.0
C      1  0.5030520000000  0.3971750000000  0.5133490000000 1.0
C      1  0.4969390000000  0.6028290000000  0.5133150000000 1.0
C      1  0.5145280000000  0.4961880000000  0.4453700000000 1.0
C      1  0.4855060000000  0.5037950000000  0.4453590000000 1.0
C      1  0.5144940000000  0.4962050000000  0.5546410000000 1.0
C      1  0.4854720000000  0.5038120000000  0.5546300000000 1.0
C      1  0.5260040000000  0.5165460000000  0.5711230000000 1.0
C      1  0.4739510000000  0.4834760000000  0.5711110000000 1.0
C      1  0.5260490000000  0.5165240000000  0.4288890000000 1.0
C      1  0.4739960000000  0.4834540000000  0.4288770000000 1.0
C      1  0.4359120000000  0.5105520000000  0.4700240000000 1.0
C      1  0.5641070000000  0.4894390000000  0.4700680000000 1.0
C      1  0.4358930000000  0.5105610000000  0.5299320000000 1.0
C      1  0.5640880000000  0.4894480000000  0.5299760000000 1.0
C      1  0.4665890000000  0.4718120000000  0.4756940000000 1.0
C      1  0.5334260000000  0.5281810000000  0.4757060000000 1.0
C      1  0.4665740000000  0.4718190000000  0.5242940000000 1.0
C      1  0.5334110000000  0.5281880000000  0.5243060000000 1.0
C      1  0.4458160000000  0.4891660000000  0.5143940000000 1.0
C      1  0.5541750000000  0.5108390000000  0.5144250000000 1.0
C      1  0.4458250000000  0.4891610000000  0.4855750000000 1.0
C      1  0.5541840000000  0.5108340000000  0.4856060000000 1.0
C      1  0.5105680000000  0.4083090000000  0.5363970000000 1.0
C      1  0.4894090000000  0.5917020000000  0.5363620000000 1.0
C      1  0.5105910000000  0.4082980000000  0.4636380000000 1.0
C      1  0.4894320000000  0.5916910000000  0.4636030000000 1.0
C      1  0.5597630000000  0.4651240000000  0.5408340000000 1.0
C      1  0.4402110000000  0.5348890000000  0.5407850000000 1.0
C      1  0.5597890000000  0.4651110000000  0.4592150000000 1.0
C      1  0.4402370000000  0.5348760000000  0.4591660000000 1.0
C      1  0.4852000000000  0.5215570000000  0.4681540000000 1.0
C      1  0.5148210000000  0.4784330000000  0.4681700000000 1.0
C      1  0.4851790000000  0.5215670000000  0.5318300000000 1.0
C      1  0.5148000000000  0.4784430000000  0.5318460000000 1.0
C      1  0.5140480000000  0.5405400000000  0.4236650000000 1.0
C      1  0.4860010000000  0.4594370000000  0.4236690000000 1.0
C      1  0.5139990000000  0.5405630000000  0.5763310000000 1.0
C      1  0.4859520000000  0.4594600000000  0.5763350000000 1.0
C      1  0.4528820000000  0.5600310000000  0.4628560000000 1.0
C      1  0.5471420000000  0.4399570000000  0.4629040000000 1.0
C      1  0.4528580000000  0.5600430000000  0.5370960000000 1.0
C      1  0.5471180000000  0.4399690000000  0.5371440000000 1.0
C      1  0.5551980000000  0.4266230000000  0.4866660000000 1.0
C      1  0.4448110000000  0.5733730000000  0.4866080000000 1.0
C      1  0.5551890000000  0.4266270000000  0.5133920000000 1.0
C      1  0.4448020000000  0.5733770000000  0.5133340000000 1.0
C      1  0.5061460000000  0.5298270000000  0.4856850000000 1.0
C      1  0.4938630000000  0.4701680000000  0.4856900000000 1.0
C      1  0.5061370000000  0.5298320000000  0.5143100000000 1.0
C      1  0.4938540000000  0.4701730000000  0.5143150000000 1.0
END
