TITL C-2323484-8600-423 1.30656796556866 125000 -342.397114090817 0 0 60 (C1) n - 1
REM
REM in /home/bkarasulu/CARBON/AIRSS/Generating-Clusters/LCBOP/Higher-Symm/Only-C60/SD-CG/FIRE-HFTN
REM
REM
REM
REM
REM
REM ./C.cell (50c204cfd26239f34c78669fe23a5462)
REM
REM compiler GCC version 9.2.1 20190827 (Red Hat 9.2.1-1)
REM options -cpp -mtune=generic -march=x86-64 -g -O0 -fpre-include=/usr/include/finclude/math-vector-fortran.h
REM seed 1372865914 -2130636342 569937433 936111527 -1616173386 855481809 1106537159 -1124364343 -437170646 328701254 741589752 -1932014165 -583348924 1865145008 -756032614 -183832803 -131796617 1286489643 -966854239 1290259185 34593336 642114395 -1307529409 -1374499299 -1431868218 570599083 -218759915 -658072055 -1186154446 863848596 1561685380 1892519253 -707159644
REM
CELL 1.54180   50.00000   50.00000   50.00000   90.00000   90.00000   90.00000
LATT -1
SFAC C  
C      1  0.4009730000000  0.4786090000000  0.4752700000000 1.0
C      1  0.5096950000000  0.5835810000000  0.5112480000000 1.0
C      1  0.5849510000000  0.4118150000000  0.4825560000000 1.0
C      1  0.4097080000000  0.4566850000000  0.4902680000000 1.0
C      1  0.4862090000000  0.5980330000000  0.5158360000000 1.0
C      1  0.6098550000000  0.4244940000000  0.4832000000000 1.0
C      1  0.4773230000000  0.6019480000000  0.5965100000000 1.0
C      1  0.5872330000000  0.5063550000000  0.5474370000000 1.0
C      1  0.4858320000000  0.4627650000000  0.6122590000000 1.0
C      1  0.3925800000000  0.4364140000000  0.4968480000000 1.0
C      1  0.4867770000000  0.6216100000000  0.5296940000000 1.0
C      1  0.6319810000000  0.4124090000000  0.4725810000000 1.0
C      1  0.6337710000000  0.4545310000000  0.5440480000000 1.0
C      1  0.4568470000000  0.4702120000000  0.5462480000000 1.0
C      1  0.4303580000000  0.5538820000000  0.5333960000000 1.0
C      1  0.4865890000000  0.5297880000000  0.5656780000000 1.0
C      1  0.5085850000000  0.5020770000000  0.5321210000000 1.0
C      1  0.4902860000000  0.5048490000000  0.5536940000000 1.0
C      1  0.4438530000000  0.4611260000000  0.5250210000000 1.0
C      1  0.4459570000000  0.5709940000000  0.5214340000000 1.0
C      1  0.6227870000000  0.4531780000000  0.5204540000000 1.0
C      1  0.4402460000000  0.4180420000000  0.4486560000000 1.0
C      1  0.4452600000000  0.6159230000000  0.4375860000000 1.0
C      1  0.5965120000000  0.4895070000000  0.4363530000000 1.0
C      1  0.4596550000000  0.4264590000000  0.4659820000000 1.0
C      1  0.4412920000000  0.5949940000000  0.4547060000000 1.0
C      1  0.5930120000000  0.4921480000000  0.4633540000000 1.0
C      1  0.4845090000000  0.5538680000000  0.5765050000000 1.0
C      1  0.5360050000000  0.5010090000000  0.5372580000000 1.0
C      1  0.4757920000000  0.4822070000000  0.5629170000000 1.0
C      1  0.4032490000000  0.5258690000000  0.4523300000000 1.0
C      1  0.5484400000000  0.5525640000000  0.4930470000000 1.0
C      1  0.5335600000000  0.4006750000000  0.4780770000000 1.0
C      1  0.4729470000000  0.5183350000000  0.4678080000000 1.0
C      1  0.4989160000000  0.5003920000000  0.5057610000000 1.0
C      1  0.4762090000000  0.4715850000000  0.4744600000000 1.0
C      1  0.4122020000000  0.5502460000000  0.4470270000000 1.0
C      1  0.5646390000000  0.5343040000000  0.4827350000000 1.0
C      1  0.5073850000000  0.4027860000000  0.4745060000000 1.0
C      1  0.4807670000000  0.4718970000000  0.5883810000000 1.0
C      1  0.4811390000000  0.5781330000000  0.5866180000000 1.0
C      1  0.5619000000000  0.5025230000000  0.5426340000000 1.0
C      1  0.4975080000000  0.4900650000000  0.4360150000000 1.0
C      1  0.5213610000000  0.4804360000000  0.4457320000000 1.0
C      1  0.5238570000000  0.4735480000000  0.4722230000000 1.0
C      1  0.4250570000000  0.5734130000000  0.4474180000000 1.0
C      1  0.5795090000000  0.5143190000000  0.4737320000000 1.0
C      1  0.4825250000000  0.4109870000000  0.4704310000000 1.0
C      1  0.4368880000000  0.4558990000000  0.4984740000000 1.0
C      1  0.4616550000000  0.5879360000000  0.5057210000000 1.0
C      1  0.6118460000000  0.4503210000000  0.4949240000000 1.0
C      1  0.4574130000000  0.4514450000000  0.4793230000000 1.0
C      1  0.4533810000000  0.5946470000000  0.4799150000000 1.0
C      1  0.6027920000000  0.4726350000000  0.4808070000000 1.0
C      1  0.5597120000000  0.4039670000000  0.4808160000000 1.0
C      1  0.3992560000000  0.5016160000000  0.4622450000000 1.0
C      1  0.5302060000000  0.5687950000000  0.5033560000000 1.0
C      1  0.4844820000000  0.5213450000000  0.4925090000000 1.0
C      1  0.5010720000000  0.4766720000000  0.4894090000000 1.0
C      1  0.4756920000000  0.4931310000000  0.4544400000000 1.0
END
