TITL C-2323489-8765-53 4.95906285391823e-06 125000 -360.995630327835 0 0 60 (Ci) n - 1
REM
REM in /home/bkarasulu/CARBON/AIRSS/Generating-Clusters/LCBOP/Higher-Symm/Only-C60/SD-CG/FIRE-HFTN
REM
REM
REM
REM
REM
REM ./C.cell (50c204cfd26239f34c78669fe23a5462)
REM
REM compiler GCC version 9.2.1 20190827 (Red Hat 9.2.1-1)
REM options -cpp -mtune=generic -march=x86-64 -g -O0 -fpre-include=/usr/include/finclude/math-vector-fortran.h
REM seed -1265160480 1920815901 2127352204 589680595 2124520320 -1155759763 1923983331 -1094739171 -1791045565 657639478 692829486 -1678586022 -807703602 -672764999 144189638 -920257353 776024175 2007243317 -511158723 -312424064 1702885025 411239451 -1854613287 2143252112 1114617927 1716710607 -1819583741 1144091394 -1646162390 -100021447 1081478945 111519956 -1979519489
REM
CELL 1.54180   50.00000   50.00000   50.00000   90.00000   90.00000   90.00000
LATT -1
SFAC C  
C      1  0.4480440000000  0.4934490000000  0.4410200000000 1.0
C      1  0.5519560000000  0.5065510000000  0.5589800000000 1.0
C      1  0.4709210000000  0.4843510000000  0.5089130000000 1.0
C      1  0.5290790000000  0.5156490000000  0.4910870000000 1.0
C      1  0.4834160000000  0.4505470000000  0.5415750000000 1.0
C      1  0.5165840000000  0.5494530000000  0.4584250000000 1.0
C      1  0.4711050000000  0.4637050000000  0.4893220000000 1.0
C      1  0.5288950000000  0.5362950000000  0.5106780000000 1.0
C      1  0.4702800000000  0.5412040000000  0.5758080000000 1.0
C      1  0.5297200000000  0.4587960000000  0.4241920000000 1.0
C      1  0.4800020000000  0.4930760000000  0.5976310000000 1.0
C      1  0.5199980000000  0.5069240000000  0.4023690000000 1.0
C      1  0.4476000000000  0.4548610000000  0.4762520000000 1.0
C      1  0.5524000000000  0.5451390000000  0.5237480000000 1.0
C      1  0.5486420000000  0.4462030000000  0.4430960000000 1.0
C      1  0.4513580000000  0.5537970000000  0.5569040000000 1.0
C      1  0.5255560000000  0.4277090000000  0.5412240000000 1.0
C      1  0.4744440000000  0.5722910000000  0.4587760000000 1.0
C      1  0.4131430000000  0.5560880000000  0.4537470000000 1.0
C      1  0.5868570000000  0.4439120000000  0.5462530000000 1.0
C      1  0.4695810000000  0.5111520000000  0.5014500000000 1.0
C      1  0.5304190000000  0.4888480000000  0.4985500000000 1.0
C      1  0.4953240000000  0.5511410000000  0.4167740000000 1.0
C      1  0.5046760000000  0.4488590000000  0.5832260000000 1.0
C      1  0.4938500000000  0.5616660000000  0.5396990000000 1.0
C      1  0.5061500000000  0.4383340000000  0.4603010000000 1.0
C      1  0.4954230000000  0.5609440000000  0.4434660000000 1.0
C      1  0.5045770000000  0.4390560000000  0.5565340000000 1.0
C      1  0.4753450000000  0.4999200000000  0.4423380000000 1.0
C      1  0.5246550000000  0.5000800000000  0.5576620000000 1.0
C      1  0.5033650000000  0.5453280000000  0.5178290000000 1.0
C      1  0.4966350000000  0.4546720000000  0.4821710000000 1.0
C      1  0.5667460000000  0.5665630000000  0.5148990000000 1.0
C      1  0.4332540000000  0.4334370000000  0.4851010000000 1.0
C      1  0.5176340000000  0.5223490000000  0.4661060000000 1.0
C      1  0.4823660000000  0.4776510000000  0.5338940000000 1.0
C      1  0.4704200000000  0.5171700000000  0.5903280000000 1.0
C      1  0.5295800000000  0.4828300000000  0.4096720000000 1.0
C      1  0.5721410000000  0.4293590000000  0.5293060000000 1.0
C      1  0.4278590000000  0.5706410000000  0.4706940000000 1.0
C      1  0.4288440000000  0.5121920000000  0.4332280000000 1.0
C      1  0.5711560000000  0.4878080000000  0.5667720000000 1.0
C      1  0.5068010000000  0.5303980000000  0.4036450000000 1.0
C      1  0.4931990000000  0.4696020000000  0.5963550000000 1.0
C      1  0.5204730000000  0.4629950000000  0.4968650000000 1.0
C      1  0.4795270000000  0.5370050000000  0.5031350000000 1.0
C      1  0.5044740000000  0.4473370000000  0.4331210000000 1.0
C      1  0.4955260000000  0.5526630000000  0.5668790000000 1.0
C      1  0.4640790000000  0.5663970000000  0.5334170000000 1.0
C      1  0.5359210000000  0.4336030000000  0.4665830000000 1.0
C      1  0.5598360000000  0.5303290000000  0.5463670000000 1.0
C      1  0.4401640000000  0.4696710000000  0.4536330000000 1.0
C      1  0.4545630000000  0.5707610000000  0.4794340000000 1.0
C      1  0.5454370000000  0.4292390000000  0.5205660000000 1.0
C      1  0.4990000000000  0.5055000000000  0.4533530000000 1.0
C      1  0.5010000000000  0.4945000000000  0.5466470000000 1.0
C      1  0.4147130000000  0.5340930000000  0.4387170000000 1.0
C      1  0.5852870000000  0.4659070000000  0.5612830000000 1.0
C      1  0.4613350000000  0.5598520000000  0.5048510000000 1.0
C      1  0.5386650000000  0.4401480000000  0.4951490000000 1.0
END
