TITL C-2323484-8600-62 3.29191858615959e-08 125000 -358.467727407735 0 0 60 (C5) n - 1
REM
REM in /home/bkarasulu/CARBON/AIRSS/Generating-Clusters/LCBOP/Higher-Symm/Only-C60/SD-CG/FIRE-HFTN
REM
REM
REM
REM
REM
REM ./C.cell (50c204cfd26239f34c78669fe23a5462)
REM
REM compiler GCC version 9.2.1 20190827 (Red Hat 9.2.1-1)
REM options -cpp -mtune=generic -march=x86-64 -g -O0 -fpre-include=/usr/include/finclude/math-vector-fortran.h
REM seed -768281562 1423993802 219666535 1040943787 1248594096 -1035389681 -119887540 -207295186 1362392177 1417443233 1626182107 -240593270 -1098595225 -393897843 -664604944 1817558143 -1373262087 -366054007 -836391737 -1917402703 1809049555 758724291 -1583580359 629034328 -277747714 -1307262027 646896302 -1149220301 1943703886 1930314466 1382382948 1893570613 28342481
REM
CELL 1.54180   50.00000   50.00000   50.00000   90.00000   90.00000   90.00000
LATT -1
SFAC C  
C      1  0.5660860000000  0.5352940000000  0.4639700000000 1.0
C      1  0.5660880000000  0.5451710000000  0.5224310000000 1.0
C      1  0.5660880000000  0.4926230000000  0.5498910000000 1.0
C      1  0.5660870000000  0.4502700000000  0.5084000000000 1.0
C      1  0.5660860000000  0.4766420000000  0.4552980000000 1.0
C      1  0.4640090000000  0.4554240000000  0.4533120000000 1.0
C      1  0.4640090000000  0.5306290000000  0.4431790000000 1.0
C      1  0.4640110000000  0.5635060000000  0.5115720000000 1.0
C      1  0.4640120000000  0.5086200000000  0.5639750000000 1.0
C      1  0.4640110000000  0.4418210000000  0.5279680000000 1.0
C      1  0.5374150000000  0.4763530000000  0.4547690000000 1.0
C      1  0.5374150000000  0.5357090000000  0.4635320000000 1.0
C      1  0.5374170000000  0.5457170000000  0.5226910000000 1.0
C      1  0.5374170000000  0.4925460000000  0.5504900000000 1.0
C      1  0.5374160000000  0.4496760000000  0.5085120000000 1.0
C      1  0.5115810000000  0.4857130000000  0.5621300000000 1.0
C      1  0.5115800000000  0.4364950000000  0.5056110000000 1.0
C      1  0.5115780000000  0.4750390000000  0.4413370000000 1.0
C      1  0.5115780000000  0.5480780000000  0.4581330000000 1.0
C      1  0.5115800000000  0.5546750000000  0.5327870000000 1.0
C      1  0.4764120000000  0.5195200000000  0.5146270000000 1.0
C      1  0.4764120000000  0.4921210000000  0.5230850000000 1.0
C      1  0.4764110000000  0.4756110000000  0.4996410000000 1.0
C      1  0.4764110000000  0.4928050000000  0.4766940000000 1.0
C      1  0.4764110000000  0.5199430000000  0.4859560000000 1.0
C      1  0.5032220000000  0.4375280000000  0.4770490000000 1.0
C      1  0.5032210000000  0.5025230000000  0.4334930000000 1.0
C      1  0.5032220000000  0.5640310000000  0.4818480000000 1.0
C      1  0.5032240000000  0.5370500000000  0.5552880000000 1.0
C      1  0.5032240000000  0.4588670000000  0.5523220000000 1.0
C      1  0.4936870000000  0.5300860000000  0.4413320000000 1.0
C      1  0.4936890000000  0.5650940000000  0.5104840000000 1.0
C      1  0.4936900000000  0.5101450000000  0.5651480000000 1.0
C      1  0.4936890000000  0.4411760000000  0.5297800000000 1.0
C      1  0.4936870000000  0.4535000000000  0.4532580000000 1.0
C      1  0.5809050000000  0.4882020000000  0.4774190000000 1.0
C      1  0.5809050000000  0.5178280000000  0.4818000000000 1.0
C      1  0.5809060000000  0.5228160000000  0.5113300000000 1.0
C      1  0.5809070000000  0.4962730000000  0.5251990000000 1.0
C      1  0.5809060000000  0.4748810000000  0.5042410000000 1.0
C      1  0.4298570000000  0.5217220000000  0.5137790000000 1.0
C      1  0.4298570000000  0.4936100000000  0.5249190000000 1.0
C      1  0.4298570000000  0.4743280000000  0.5016240000000 1.0
C      1  0.4298560000000  0.4905240000000  0.4760880000000 1.0
C      1  0.4298560000000  0.5198160000000  0.4836000000000 1.0
C      1  0.4543100000000  0.5362330000000  0.4716630000000 1.0
C      1  0.4543110000000  0.5381480000000  0.5257040000000 1.0
C      1  0.4543120000000  0.4873440000000  0.5442250000000 1.0
C      1  0.4543100000000  0.4540300000000  0.5016300000000 1.0
C      1  0.4543090000000  0.4842450000000  0.4567850000000 1.0
C      1  0.4526940000000  0.4577640000000  0.5495380000000 1.0
C      1  0.4526920000000  0.4398360000000  0.4751400000000 1.0
C      1  0.4526910000000  0.5050530000000  0.4350990000000 1.0
C      1  0.4526920000000  0.5632870000000  0.4847510000000 1.0
C      1  0.4526940000000  0.5340610000000  0.5554780000000 1.0
C      1  0.5298200000000  0.4972320000000  0.5235940000000 1.0
C      1  0.5298190000000  0.4767050000000  0.5046570000000 1.0
C      1  0.5298180000000  0.4883710000000  0.4792840000000 1.0
C      1  0.5298180000000  0.5161080000000  0.4825380000000 1.0
C      1  0.5298190000000  0.5215840000000  0.5099230000000 1.0
END
