TITL C-2323479-8056-490 -0.027401848285796 125000 -353.739732106041 0 0 60 (T23) n - 1
REM
REM in /home/bkarasulu/CARBON/AIRSS/Generating-Clusters/LCBOP/Higher-Symm/Only-C60/SD-CG/FIRE-HFTN
REM
REM
REM
REM
REM
REM ./C.cell (50c204cfd26239f34c78669fe23a5462)
REM
REM compiler GCC version 9.2.1 20190827 (Red Hat 9.2.1-1)
REM options -cpp -mtune=generic -march=x86-64 -g -O0 -fpre-include=/usr/include/finclude/math-vector-fortran.h
REM seed -574855981 -806727084 -1044009123 54407474 -740845975 1053577197 -573073651 414640803 -2135997741 -1732274392 -1416908348 1989445020 1091451920 -149055523 -1309323886 -1448552524 963295894 -260416785 -1077465781 2121769006 1129859191 1877428114 1270080261 1141980612 -260830076 662744210 241765294 781614359 -1765079109 -1558484618 -1653647672 -581925209 -937790065
REM
CELL 1.54180   50.00000   50.00000   50.00000   90.00000   90.00000   90.00000
LATT -1
SFAC C  
C      1  0.5530430000000  0.5643890000000  0.4999820000000 1.0
C      1  0.5643890000000  0.4999820000000  0.5530430000000 1.0
C      1  0.4999820000000  0.5530430000000  0.5643890000000 1.0
C      1  0.5530420000000  0.4356100000000  0.5000190000000 1.0
C      1  0.4469580000000  0.5643900000000  0.5000170000000 1.0
C      1  0.4469570000000  0.4356110000000  0.4999820000000 1.0
C      1  0.5643900000000  0.5000170000000  0.4469580000000 1.0
C      1  0.4356110000000  0.4999820000000  0.4469570000000 1.0
C      1  0.4356100000000  0.5000190000000  0.5530420000000 1.0
C      1  0.4999820000000  0.4469570000000  0.4356110000000 1.0
C      1  0.5000190000000  0.5530420000000  0.4356100000000 1.0
C      1  0.5000170000000  0.4469580000000  0.5643900000000 1.0
C      1  0.4897790000000  0.5271670000000  0.4389060000000 1.0
C      1  0.5271670000000  0.4389060000000  0.4897790000000 1.0
C      1  0.4389060000000  0.4897790000000  0.5271660000000 1.0
C      1  0.4897780000000  0.4728340000000  0.5610930000000 1.0
C      1  0.5102210000000  0.5271670000000  0.5610930000000 1.0
C      1  0.5102220000000  0.4728320000000  0.4389070000000 1.0
C      1  0.5271680000000  0.5610930000000  0.5102210000000 1.0
C      1  0.4728320000000  0.4389070000000  0.5102220000000 1.0
C      1  0.4728340000000  0.5610930000000  0.4897780000000 1.0
C      1  0.4389070000000  0.5102220000000  0.4728320000000 1.0
C      1  0.5610930000000  0.4897780000000  0.4728340000000 1.0
C      1  0.5610930000000  0.5102210000000  0.5271680000000 1.0
C      1  0.5375330000000  0.5063370000000  0.5121240000000 1.0
C      1  0.5063370000000  0.5121240000000  0.5375330000000 1.0
C      1  0.5121240000000  0.5375330000000  0.5063370000000 1.0
C      1  0.5375330000000  0.4936620000000  0.4878770000000 1.0
C      1  0.4624670000000  0.5063380000000  0.4878760000000 1.0
C      1  0.4624670000000  0.4936630000000  0.5121230000000 1.0
C      1  0.5063380000000  0.4878760000000  0.4624670000000 1.0
C      1  0.4936630000000  0.5121230000000  0.4624670000000 1.0
C      1  0.4936620000000  0.4878770000000  0.5375330000000 1.0
C      1  0.5121230000000  0.4624670000000  0.4936630000000 1.0
C      1  0.4878770000000  0.5375330000000  0.4936620000000 1.0
C      1  0.4878760000000  0.4624670000000  0.5063370000000 1.0
C      1  0.4237410000000  0.5514530000000  0.4962830000000 1.0
C      1  0.5514530000000  0.4962840000000  0.4237410000000 1.0
C      1  0.4962830000000  0.4237410000000  0.5514530000000 1.0
C      1  0.4237400000000  0.4485490000000  0.5037150000000 1.0
C      1  0.5762600000000  0.5514520000000  0.5037160000000 1.0
C      1  0.5762590000000  0.4485470000000  0.4962860000000 1.0
C      1  0.5514510000000  0.5037150000000  0.5762600000000 1.0
C      1  0.4485470000000  0.4962860000000  0.5762590000000 1.0
C      1  0.4485490000000  0.5037150000000  0.4237400000000 1.0
C      1  0.4962860000000  0.5762590000000  0.4485470000000 1.0
C      1  0.5037150000000  0.4237400000000  0.4485480000000 1.0
C      1  0.5037150000000  0.5762600000000  0.5514520000000 1.0
C      1  0.5165730000000  0.4198710000000  0.4718380000000 1.0
C      1  0.4198700000000  0.4718380000000  0.5165720000000 1.0
C      1  0.4718380000000  0.5165730000000  0.4198700000000 1.0
C      1  0.5165740000000  0.5801290000000  0.5281620000000 1.0
C      1  0.4834260000000  0.4198710000000  0.5281630000000 1.0
C      1  0.4834280000000  0.5801290000000  0.4718360000000 1.0
C      1  0.4198710000000  0.5281630000000  0.4834260000000 1.0
C      1  0.5801290000000  0.4718360000000  0.4834280000000 1.0
C      1  0.5801290000000  0.5281620000000  0.5165740000000 1.0
C      1  0.4718360000000  0.4834280000000  0.5801290000000 1.0
C      1  0.5281620000000  0.5165730000000  0.5801290000000 1.0
C      1  0.5281630000000  0.4834260000000  0.4198710000000 1.0
END
