TITL C-2323488-8613-151 0.00344416340724955 125000 -349.572369786013 0 0 60 (C1) n - 1
REM
REM in /home/bkarasulu/CARBON/AIRSS/Generating-Clusters/LCBOP/Higher-Symm/Only-C60/SD-CG/FIRE-HFTN
REM
REM
REM
REM
REM
REM ./C.cell (50c204cfd26239f34c78669fe23a5462)
REM
REM compiler GCC version 9.2.1 20190827 (Red Hat 9.2.1-1)
REM options -cpp -mtune=generic -march=x86-64 -g -O0 -fpre-include=/usr/include/finclude/math-vector-fortran.h
REM seed -1041069483 668541021 -177300447 2037589408 -397389720 -1427638590 -634651296 -1644528876 1932197043 914065397 -752975497 1937660037 438720565 2050425358 -536647531 -1827541706 1711904980 -1844579141 -1385213710 -1218584436 1130317008 1081460079 1533560588 517804522 1026692122 525543407 1355231272 1145368180 -1570723614 992328576 2140589706 -1144265660 508290411
REM
CELL 1.54180   50.00000   50.00000   50.00000   90.00000   90.00000   90.00000
LATT -1
SFAC C  
C      1  0.5317600000000  0.4955050000000  0.4211820000000 1.0
C      1  0.4767970000000  0.4781430000000  0.5913770000000 1.0
C      1  0.5301890000000  0.4904140000000  0.5859980000000 1.0
C      1  0.4738310000000  0.4972860000000  0.4253430000000 1.0
C      1  0.4473850000000  0.3737090000000  0.5090680000000 1.0
C      1  0.5261000000000  0.4515750000000  0.4778020000000 1.0
C      1  0.4403310000000  0.4255820000000  0.5043750000000 1.0
C      1  0.5226060000000  0.4558280000000  0.5247410000000 1.0
C      1  0.4500620000000  0.4619760000000  0.4524710000000 1.0
C      1  0.5400610000000  0.4723410000000  0.5400490000000 1.0
C      1  0.4534790000000  0.4708660000000  0.5479910000000 1.0
C      1  0.5441010000000  0.4659960000000  0.4608100000000 1.0
C      1  0.4747190000000  0.5240320000000  0.3854130000000 1.0
C      1  0.5349050000000  0.4947570000000  0.6337930000000 1.0
C      1  0.4816580000000  0.4743970000000  0.6391740000000 1.0
C      1  0.5287910000000  0.5384470000000  0.3996340000000 1.0
C      1  0.4375470000000  0.5188730000000  0.4702300000000 1.0
C      1  0.5703920000000  0.5299160000000  0.5256230000000 1.0
C      1  0.4385960000000  0.5234680000000  0.5225130000000 1.0
C      1  0.5764330000000  0.5276110000000  0.4731030000000 1.0
C      1  0.5192790000000  0.5769820000000  0.5290660000000 1.0
C      1  0.5038750000000  0.5426570000000  0.4706610000000 1.0
C      1  0.5233910000000  0.5611530000000  0.4625430000000 1.0
C      1  0.4929250000000  0.5733140000000  0.5284380000000 1.0
C      1  0.5165110000000  0.5157800000000  0.4088640000000 1.0
C      1  0.4923510000000  0.4802820000000  0.6147050000000 1.0
C      1  0.5196100000000  0.4885990000000  0.6119890000000 1.0
C      1  0.4880740000000  0.5126440000000  0.4064490000000 1.0
C      1  0.4698940000000  0.5618830000000  0.5215890000000 1.0
C      1  0.5491310000000  0.5668340000000  0.4670520000000 1.0
C      1  0.4765930000000  0.5488170000000  0.4647130000000 1.0
C      1  0.5446420000000  0.5711520000000  0.5233730000000 1.0
C      1  0.5246010000000  0.4873230000000  0.5588640000000 1.0
C      1  0.4760890000000  0.4757600000000  0.4460220000000 1.0
C      1  0.5287960000000  0.4729530000000  0.4374730000000 1.0
C      1  0.4750600000000  0.4802930000000  0.5635630000000 1.0
C      1  0.4391810000000  0.4721900000000  0.5239420000000 1.0
C      1  0.5664240000000  0.4754800000000  0.4764500000000 1.0
C      1  0.4356090000000  0.4675860000000  0.4764790000000 1.0
C      1  0.5640990000000  0.4780440000000  0.5255830000000 1.0
C      1  0.5726890000000  0.5025840000000  0.4852230000000 1.0
C      1  0.4316850000000  0.4978480000000  0.5130450000000 1.0
C      1  0.5707390000000  0.5040580000000  0.5148650000000 1.0
C      1  0.4299740000000  0.4953460000000  0.4838280000000 1.0
C      1  0.4552160000000  0.5388400000000  0.4802950000000 1.0
C      1  0.5632390000000  0.5536580000000  0.5119000000000 1.0
C      1  0.4536510000000  0.5432100000000  0.5087100000000 1.0
C      1  0.5669060000000  0.5524540000000  0.4832610000000 1.0
C      1  0.4973340000000  0.4919890000000  0.5498810000000 1.0
C      1  0.5018780000000  0.4617810000000  0.4372250000000 1.0
C      1  0.4933000000000  0.5000270000000  0.5232360000000 1.0
C      1  0.4823570000000  0.4867810000000  0.4732920000000 1.0
C      1  0.5704090000000  0.4607270000000  0.5022480000000 1.0
C      1  0.4384220000000  0.4531000000000  0.5018650000000 1.0
C      1  0.4437730000000  0.3994220000000  0.5067410000000 1.0
C      1  0.4653750000000  0.5816320000000  0.4232560000000 1.0
C      1  0.5139710000000  0.4644290000000  0.4994580000000 1.0
C      1  0.4707140000000  0.5655280000000  0.4430370000000 1.0
C      1  0.5012650000000  0.4927110000000  0.4953050000000 1.0
C      1  0.5122200000000  0.5192480000000  0.4846600000000 1.0
END
