TITL C-2323490-8774-529 3.71282139124607e-06 125000 -376.885117145197 0 0 60 (D2d) n - 1
REM
REM in /home/bkarasulu/CARBON/AIRSS/Generating-Clusters/LCBOP/Higher-Symm/Only-C60/SD-CG/FIRE-HFTN
REM
REM
REM
REM
REM
REM ./C.cell (50c204cfd26239f34c78669fe23a5462)
REM
REM compiler GCC version 9.2.1 20190827 (Red Hat 9.2.1-1)
REM options -cpp -mtune=generic -march=x86-64 -g -O0 -fpre-include=/usr/include/finclude/math-vector-fortran.h
REM seed 1478153648 -437618645 1493051782 -1769640069 500534427 -1112556869 1892739849 -1634134776 1295665379 -1959121458 1074867021 1144445870 1089582755 1861916891 -1486763802 591044234 -962149593 -1432470695 -53567663 -952683467 29541069 1621059463 -1266415354 1232260961 -574497712 1004572960 -965135061 1079270754 25902564 -2140493394 1830992480 -1838022791 -787161219
REM
CELL 1.54180   50.00000   50.00000   50.00000   90.00000   90.00000   90.00000
LATT -1
SFAC C  
C      1  0.5121410000000  0.4405600000000  0.5395950000000 1.0
C      1  0.5121410000000  0.5594400000000  0.4604050000000 1.0
C      1  0.4878590000000  0.5594400000000  0.5395950000000 1.0
C      1  0.4878590000000  0.4405600000000  0.4604050000000 1.0
C      1  0.5121410000000  0.5395950000000  0.4405600000000 1.0
C      1  0.5121410000000  0.4604050000000  0.5594400000000 1.0
C      1  0.4878590000000  0.5395950000000  0.5594400000000 1.0
C      1  0.4878590000000  0.4604050000000  0.4405600000000 1.0
C      1  0.5338900000000  0.4284110000000  0.4475540000000 1.0
C      1  0.5338900000000  0.5715890000000  0.5524460000000 1.0
C      1  0.4661100000000  0.5715890000000  0.4475540000000 1.0
C      1  0.4661100000000  0.4284110000000  0.5524460000000 1.0
C      1  0.5338900000000  0.4475540000000  0.4284110000000 1.0
C      1  0.5338900000000  0.5524460000000  0.5715890000000 1.0
C      1  0.4661100000000  0.4475540000000  0.5715890000000 1.0
C      1  0.4661100000000  0.5524460000000  0.4284110000000 1.0
C      1  0.4863100000000  0.5330940000000  0.4279850000000 1.0
C      1  0.4863100000000  0.4669060000000  0.5720150000000 1.0
C      1  0.5136900000000  0.4669060000000  0.4279850000000 1.0
C      1  0.5136900000000  0.5330940000000  0.5720150000000 1.0
C      1  0.4863100000000  0.4279850000000  0.5330940000000 1.0
C      1  0.4863100000000  0.5720150000000  0.4669060000000 1.0
C      1  0.5136900000000  0.4279850000000  0.4669060000000 1.0
C      1  0.5136900000000  0.5720150000000  0.5330940000000 1.0
C      1  0.5143060000000  0.4951990000000  0.4276030000000 1.0
C      1  0.5143050000000  0.5048010000000  0.5723970000000 1.0
C      1  0.4856950000000  0.5048010000000  0.4276030000000 1.0
C      1  0.4856940000000  0.4951990000000  0.5723970000000 1.0
C      1  0.5143060000000  0.4276030000000  0.4951990000000 1.0
C      1  0.5143060000000  0.5723970000000  0.5048010000000 1.0
C      1  0.4856940000000  0.4276030000000  0.5048010000000 1.0
C      1  0.4856940000000  0.5723970000000  0.4951990000000 1.0
C      1  0.5282690000000  0.5569000000000  0.4846950000000 1.0
C      1  0.5282690000000  0.4431000000000  0.5153050000000 1.0
C      1  0.4717310000000  0.4431000000000  0.4846950000000 1.0
C      1  0.4717310000000  0.5569000000000  0.5153050000000 1.0
C      1  0.5282690000000  0.4846950000000  0.5569000000000 1.0
C      1  0.5282690000000  0.5153050000000  0.4431000000000 1.0
C      1  0.4717310000000  0.4846950000000  0.4431000000000 1.0
C      1  0.4717310000000  0.5153050000000  0.5569000000000 1.0
C      1  0.5433880000000  0.4667730000000  0.5116410000000 1.0
C      1  0.5433880000000  0.5332270000000  0.4883590000000 1.0
C      1  0.4566120000000  0.5332270000000  0.5116410000000 1.0
C      1  0.4566120000000  0.4667730000000  0.4883590000000 1.0
C      1  0.5433880000000  0.5116410000000  0.4667730000000 1.0
C      1  0.5433880000000  0.4883590000000  0.5332270000000 1.0
C      1  0.4566120000000  0.5116410000000  0.5332270000000 1.0
C      1  0.4566120000000  0.4883590000000  0.4667730000000 1.0
C      1  0.4335170000000  0.4941660000000  0.5269130000000 1.0
C      1  0.4335180000000  0.5058340000000  0.4730870000000 1.0
C      1  0.5664820000000  0.5058340000000  0.5269130000000 1.0
C      1  0.5664830000000  0.4941660000000  0.4730870000000 1.0
C      1  0.4335180000000  0.5269130000000  0.4941660000000 1.0
C      1  0.4335170000000  0.4730870000000  0.5058330000000 1.0
C      1  0.5664820000000  0.5269130000000  0.5058340000000 1.0
C      1  0.5664830000000  0.4730870000000  0.4941670000000 1.0
C      1  0.5851630000000  0.4845850000000  0.5154150000000 1.0
C      1  0.5851630000000  0.5154150000000  0.4845850000000 1.0
C      1  0.4148370000000  0.5154150000000  0.5154150000000 1.0
C      1  0.4148370000000  0.4845850000000  0.4845850000000 1.0
END
