TITL C-2323489-8765-494 -8.86439685950283e-05 125000 -359.670109010173 0 0 60 (C1) n - 1
REM
REM in /home/bkarasulu/CARBON/AIRSS/Generating-Clusters/LCBOP/Higher-Symm/Only-C60/SD-CG/FIRE-HFTN
REM
REM
REM
REM
REM
REM ./C.cell (50c204cfd26239f34c78669fe23a5462)
REM
REM compiler GCC version 9.2.1 20190827 (Red Hat 9.2.1-1)
REM options -cpp -mtune=generic -march=x86-64 -g -O0 -fpre-include=/usr/include/finclude/math-vector-fortran.h
REM seed 415402552 298502111 565869357 1330143126 518212420 1788630944 1849106594 -1204954661 -179935946 966298050 -93641136 -1074999627 1609402899 1600387025 1871391855 1975368698 -1970748678 -1037391699 2021222463 -835159727 -556536376 591903040 -270721488 1313448880 -1883854586 -140132770 -1593139248 2048628496 1793758387 1826652676 1980168331 1502948683 1703622759
REM
CELL 1.54180   50.00000   50.00000   50.00000   90.00000   90.00000   90.00000
LATT -1
SFAC C  
C      1  0.5693810000000  0.4677890000000  0.5494600000000 1.0
C      1  0.4791870000000  0.5196490000000  0.5318850000000 1.0
C      1  0.5562890000000  0.4831100000000  0.5314330000000 1.0
C      1  0.4757710000000  0.4730660000000  0.4320580000000 1.0
C      1  0.5444750000000  0.5733060000000  0.5084730000000 1.0
C      1  0.5076610000000  0.5719410000000  0.4731780000000 1.0
C      1  0.5451880000000  0.4883160000000  0.4675620000000 1.0
C      1  0.5001480000000  0.5368410000000  0.5268340000000 1.0
C      1  0.5002070000000  0.4927930000000  0.4857450000000 1.0
C      1  0.4213620000000  0.4314120000000  0.4998860000000 1.0
C      1  0.5358260000000  0.4532130000000  0.4991190000000 1.0
C      1  0.4875370000000  0.4916890000000  0.5319250000000 1.0
C      1  0.4734790000000  0.4982280000000  0.4797900000000 1.0
C      1  0.4797560000000  0.5122660000000  0.3707710000000 1.0
C      1  0.5148000000000  0.5268260000000  0.4558280000000 1.0
C      1  0.5618970000000  0.6217340000000  0.5634600000000 1.0
C      1  0.4688880000000  0.5408550000000  0.4600010000000 1.0
C      1  0.4709160000000  0.5326930000000  0.3872150000000 1.0
C      1  0.5078720000000  0.4872690000000  0.5129010000000 1.0
C      1  0.4169600000000  0.5048140000000  0.4995580000000 1.0
C      1  0.5654910000000  0.5062630000000  0.4756890000000 1.0
C      1  0.5374910000000  0.5356100000000  0.5743820000000 1.0
C      1  0.4564170000000  0.5402240000000  0.4343930000000 1.0
C      1  0.5187020000000  0.4302400000000  0.5379360000000 1.0
C      1  0.4394040000000  0.5236680000000  0.5002780000000 1.0
C      1  0.5337850000000  0.4767130000000  0.5159520000000 1.0
C      1  0.4663210000000  0.5228010000000  0.4144060000000 1.0
C      1  0.4347790000000  0.5562470000000  0.4294250000000 1.0
C      1  0.4674910000000  0.4292310000000  0.5082870000000 1.0
C      1  0.4738300000000  0.4936540000000  0.4133660000000 1.0
C      1  0.5260940000000  0.5835220000000  0.4894360000000 1.0
C      1  0.5465710000000  0.5768200000000  0.5381780000000 1.0
C      1  0.4815790000000  0.4889340000000  0.3855360000000 1.0
C      1  0.4200490000000  0.4830860000000  0.5184160000000 1.0
C      1  0.4645460000000  0.4752060000000  0.5366440000000 1.0
C      1  0.4936430000000  0.4910120000000  0.6082660000000 1.0
C      1  0.5155450000000  0.4636890000000  0.5756440000000 1.0
C      1  0.5292140000000  0.4436410000000  0.5609410000000 1.0
C      1  0.4834990000000  0.4522000000000  0.4468570000000 1.0
C      1  0.4271140000000  0.4556890000000  0.5141290000000 1.0
C      1  0.5545220000000  0.5999630000000  0.5511840000000 1.0
C      1  0.5280610000000  0.5368680000000  0.5278550000000 1.0
C      1  0.4968620000000  0.5482760000000  0.4618220000000 1.0
C      1  0.5575580000000  0.4467570000000  0.5618750000000 1.0
C      1  0.5463820000000  0.4599890000000  0.4734160000000 1.0
C      1  0.5195700000000  0.5010520000000  0.4665690000000 1.0
C      1  0.4559580000000  0.4517450000000  0.5228870000000 1.0
C      1  0.5289210000000  0.5115700000000  0.5832340000000 1.0
C      1  0.5386840000000  0.5513060000000  0.5511010000000 1.0
C      1  0.5129680000000  0.4887030000000  0.5888720000000 1.0
C      1  0.4410860000000  0.4938560000000  0.5367580000000 1.0
C      1  0.5459300000000  0.5439380000000  0.5062580000000 1.0
C      1  0.4586340000000  0.5223570000000  0.4792870000000 1.0
C      1  0.4924970000000  0.4304980000000  0.4950370000000 1.0
C      1  0.5568540000000  0.4417360000000  0.4561030000000 1.0
C      1  0.5172030000000  0.4334990000000  0.5093750000000 1.0
C      1  0.5630460000000  0.5282880000000  0.4909760000000 1.0
C      1  0.4508790000000  0.5205930000000  0.5274600000000 1.0
C      1  0.4911030000000  0.4369480000000  0.4674640000000 1.0
C      1  0.4441160000000  0.4158010000000  0.4972210000000 1.0
END
