TITL C-2323482-8828-155 0.000170355642368585 125000 -361.130347719701 0 0 60 (C2) n - 1
REM
REM in /home/bkarasulu/CARBON/AIRSS/Generating-Clusters/LCBOP/Higher-Symm/Only-C60/SD-CG/FIRE-HFTN
REM
REM
REM
REM
REM
REM ./C.cell (50c204cfd26239f34c78669fe23a5462)
REM
REM compiler GCC version 9.2.1 20190827 (Red Hat 9.2.1-1)
REM options -cpp -mtune=generic -march=x86-64 -g -O0 -fpre-include=/usr/include/finclude/math-vector-fortran.h
REM seed 1090594491 -1140983924 -436148186 -1332573214 -1116474845 -670317851 38791530 -167338781 -1435508379 -1878184985 -1734244964 486526089 203249795 -1806454226 1442260980 1565656795 1798834072 1250023504 1016656203 665343911 -138904740 763215184 1966702836 1705948633 736334101 6422866 -154110483 243111586 -269130664 -2143612932 835643079 -699028433 1916122790
REM
CELL 1.54180   50.00000   50.00000   50.00000   90.00000   90.00000   90.00000
LATT -1
SFAC C  
C      1  0.4590770000000  0.4851430000000  0.5630620000000 1.0
C      1  0.5722430000000  0.4851340000000  0.5049900000000 1.0
C      1  0.4649270000000  0.4864440000000  0.4308810000000 1.0
C      1  0.4583410000000  0.5144290000000  0.5647560000000 1.0
C      1  0.5729810000000  0.5139470000000  0.5039630000000 1.0
C      1  0.4677670000000  0.5154740000000  0.4324080000000 1.0
C      1  0.4310370000000  0.4860730000000  0.5242190000000 1.0
C      1  0.5580980000000  0.4856510000000  0.5505540000000 1.0
C      1  0.5120630000000  0.4844290000000  0.4261150000000 1.0
C      1  0.4320270000000  0.5148860000000  0.5249590000000 1.0
C      1  0.5569130000000  0.5149340000000  0.5490940000000 1.0
C      1  0.5143570000000  0.5134560000000  0.4238150000000 1.0
C      1  0.4385880000000  0.5255400000000  0.4996100000000 1.0
C      1  0.5331410000000  0.5252180000000  0.5610720000000 1.0
C      1  0.5370750000000  0.5221320000000  0.4384030000000 1.0
C      1  0.4329410000000  0.4762700000000  0.4977190000000 1.0
C      1  0.5348450000000  0.4758610000000  0.5638360000000 1.0
C      1  0.5301330000000  0.4740190000000  0.4454380000000 1.0
C      1  0.4616760000000  0.5149630000000  0.4835190000000 1.0
C      1  0.5062110000000  0.5155690000000  0.5520910000000 1.0
C      1  0.5373440000000  0.5156090000000  0.4676810000000 1.0
C      1  0.4551150000000  0.4843550000000  0.4794260000000 1.0
C      1  0.5085960000000  0.4845030000000  0.5517720000000 1.0
C      1  0.5321950000000  0.4850080000000  0.4734860000000 1.0
C      1  0.5093410000000  0.4730770000000  0.5233800000000 1.0
C      1  0.5077520000000  0.4806860000000  0.4941460000000 1.0
C      1  0.4812630000000  0.4710060000000  0.4852720000000 1.0
C      1  0.4975590000000  0.5269560000000  0.5250220000000 1.0
C      1  0.5138690000000  0.5289700000000  0.4805840000000 1.0
C      1  0.4909170000000  0.5193080000000  0.4965200000000 1.0
C      1  0.4740880000000  0.5673220000000  0.5178840000000 1.0
C      1  0.5245360000000  0.5635520000000  0.5102370000000 1.0
C      1  0.4934430000000  0.5680840000000  0.4688180000000 1.0
C      1  0.4793150000000  0.4364670000000  0.5167720000000 1.0
C      1  0.5298900000000  0.4326970000000  0.5100210000000 1.0
C      1  0.4975950000000  0.4318730000000  0.4683200000000 1.0
C      1  0.4843780000000  0.5242320000000  0.5709980000000 1.0
C      1  0.5637450000000  0.5237140000000  0.4790380000000 1.0
C      1  0.4558150000000  0.5259130000000  0.4559970000000 1.0
C      1  0.4852510000000  0.4748710000000  0.5679340000000 1.0
C      1  0.5588610000000  0.4744470000000  0.4824990000000 1.0
C      1  0.4471930000000  0.4777920000000  0.4512480000000 1.0
C      1  0.4789550000000  0.4422290000000  0.4882020000000 1.0
C      1  0.5067540000000  0.4437380000000  0.5236740000000 1.0
C      1  0.5226630000000  0.4249780000000  0.4824170000000 1.0
C      1  0.4733120000000  0.5750020000000  0.4893490000000 1.0
C      1  0.5001200000000  0.5562950000000  0.5245420000000 1.0
C      1  0.5168980000000  0.5577510000000  0.4827130000000 1.0
C      1  0.5497670000000  0.5541650000000  0.5201490000000 1.0
C      1  0.4916230000000  0.5564480000000  0.4417780000000 1.0
C      1  0.4535860000000  0.5565470000000  0.5356600000000 1.0
C      1  0.5545410000000  0.4434920000000  0.5213460000000 1.0
C      1  0.4917840000000  0.4434720000000  0.4418330000000 1.0
C      1  0.4578570000000  0.4458720000000  0.5333260000000 1.0
C      1  0.5663410000000  0.4696550000000  0.5281220000000 1.0
C      1  0.4878950000000  0.4694020000000  0.4277050000000 1.0
C      1  0.4454030000000  0.4703000000000  0.5429840000000 1.0
C      1  0.5644280000000  0.5297480000000  0.5259750000000 1.0
C      1  0.4914140000000  0.5304980000000  0.4271610000000 1.0
C      1  0.4441550000000  0.5303950000000  0.5455000000000 1.0
END
