TITL C-2323490-8774-264 -488.185488204219 125000 -360.276404596969 0 0 60 (C1) n - 1
REM
REM in /home/bkarasulu/CARBON/AIRSS/Generating-Clusters/LCBOP/Higher-Symm/Only-C60/SD-CG/FIRE-HFTN
REM
REM
REM
REM
REM
REM ./C.cell (50c204cfd26239f34c78669fe23a5462)
REM
REM compiler GCC version 9.2.1 20190827 (Red Hat 9.2.1-1)
REM options -cpp -mtune=generic -march=x86-64 -g -O0 -fpre-include=/usr/include/finclude/math-vector-fortran.h
REM seed -1783029421 1492500341 -101506418 -1933552974 843892595 -295205109 1596700869 -1307527194 673215313 1777279900 740404424 745625847 -304031245 -1817926137 1033546337 -544275051 -1729027806 -398113683 1040528189 -756475627 882116259 677574673 -50474925 -1034641783 364575314 -1388084467 -1514847521 2016890546 1453427846 1091892450 -2060132139 -1935217433 -1383539833
REM
CELL 1.54180   50.00000   50.00000   50.00000   90.00000   90.00000   90.00000
LATT -1
SFAC C  
C      1  0.4658200000000  0.4848140000000  0.5625520000000 1.0
C      1  0.5390260000000  0.4815870000000  0.5742400000000 1.0
C      1  0.4994660000000  0.5475290000000  0.5625210000000 1.0
C      1  0.5059410000000  0.4579950000000  0.5347680000000 1.0
C      1  0.5189000000000  0.5230820000000  0.5248890000000 1.0
C      1  0.4721590000000  0.5086480000000  0.5214600000000 1.0
C      1  0.4844080000000  0.4318200000000  0.4978750000000 1.0
C      1  0.5685670000000  0.5190540000000  0.5047570000000 1.0
C      1  0.4511650000000  0.5496580000000  0.5040630000000 1.0
C      1  0.4841820000000  0.5698840000000  0.5525440000000 1.0
C      1  0.4589890000000  0.4576920000000  0.5535120000000 1.0
C      1  0.5590060000000  0.4777630000000  0.5566240000000 1.0
C      1  0.4584690000000  0.4457410000000  0.5016590000000 1.0
C      1  0.5681160000000  0.4901510000000  0.5090740000000 1.0
C      1  0.4757510000000  0.5661450000000  0.5032810000000 1.0
C      1  0.4881970000000  0.4969460000000  0.5759520000000 1.0
C      1  0.5130360000000  0.4841720000000  0.5805260000000 1.0
C      1  0.4897150000000  0.5254210000000  0.5766410000000 1.0
C      1  0.5284010000000  0.5805500000000  0.4518070000000 1.0
C      1  0.4115210000000  0.4808590000000  0.4555930000000 1.0
C      1  0.5639810000000  0.4468070000000  0.4517280000000 1.0
C      1  0.5400780000000  0.5645320000000  0.4334750000000 1.0
C      1  0.4123830000000  0.5016180000000  0.4382810000000 1.0
C      1  0.5475780000000  0.4384080000000  0.4318920000000 1.0
C      1  0.4534900000000  0.5009310000000  0.5413880000000 1.0
C      1  0.5258930000000  0.4405290000000  0.5399890000000 1.0
C      1  0.5205950000000  0.5447440000000  0.5424700000000 1.0
C      1  0.5552300000000  0.4549700000000  0.4769860000000 1.0
C      1  0.5189060000000  0.5729720000000  0.4769980000000 1.0
C      1  0.4281160000000  0.4783380000000  0.4780970000000 1.0
C      1  0.4757570000000  0.5233140000000  0.4599790000000 1.0
C      1  0.4997820000000  0.4770690000000  0.4590220000000 1.0
C      1  0.5204870000000  0.4985420000000  0.4534490000000 1.0
C      1  0.4960390000000  0.5312330000000  0.4782440000000 1.0
C      1  0.4763700000000  0.4803560000000  0.4763860000000 1.0
C      1  0.5246970000000  0.4890720000000  0.4963050000000 1.0
C      1  0.4525910000000  0.4635580000000  0.4785890000000 1.0
C      1  0.5506240000000  0.4807200000000  0.4878770000000 1.0
C      1  0.4940220000000  0.5596530000000  0.4819140000000 1.0
C      1  0.4465210000000  0.4569710000000  0.5265580000000 1.0
C      1  0.5637610000000  0.4691680000000  0.5297800000000 1.0
C      1  0.4918600000000  0.5763260000000  0.5252190000000 1.0
C      1  0.5053420000000  0.4758450000000  0.5132260000000 1.0
C      1  0.5141380000000  0.5166840000000  0.4971820000000 1.0
C      1  0.4817450000000  0.4886590000000  0.5038980000000 1.0
C      1  0.4477170000000  0.5258260000000  0.4625040000000 1.0
C      1  0.5076350000000  0.4490770000000  0.4577480000000 1.0
C      1  0.5397780000000  0.5212580000000  0.4582110000000 1.0
C      1  0.5214770000000  0.5674630000000  0.5235840000000 1.0
C      1  0.4343210000000  0.4855970000000  0.5247680000000 1.0
C      1  0.5479920000000  0.4440670000000  0.5223490000000 1.0
C      1  0.5104480000000  0.4355630000000  0.4841760000000 1.0
C      1  0.5517100000000  0.5365570000000  0.4884870000000 1.0
C      1  0.4388750000000  0.5261890000000  0.4905030000000 1.0
C      1  0.5206590000000  0.4386830000000  0.4349390000000 1.0
C      1  0.5451670000000  0.5381800000000  0.4362760000000 1.0
C      1  0.4292910000000  0.5224480000000  0.4415580000000 1.0
C      1  0.4283430000000  0.4987070000000  0.4992860000000 1.0
C      1  0.5392040000000  0.4379510000000  0.4945220000000 1.0
C      1  0.5365630000000  0.5619040000000  0.4978170000000 1.0
END
