TITL C-2323481-8605-500 6.19439878861647e-06 125000 -371.511582599227 0 0 60 (C1) n - 1
REM
REM in /home/bkarasulu/CARBON/AIRSS/Generating-Clusters/LCBOP/Higher-Symm/Only-C60/SD-CG/FIRE-HFTN
REM
REM
REM
REM
REM
REM ./C.cell (50c204cfd26239f34c78669fe23a5462)
REM
REM compiler GCC version 9.2.1 20190827 (Red Hat 9.2.1-1)
REM options -cpp -mtune=generic -march=x86-64 -g -O0 -fpre-include=/usr/include/finclude/math-vector-fortran.h
REM seed -287643425 -454312993 -934585902 -313883842 200836365 -1234101869 449086761 -1370074433 -1299174613 -1797323273 -1919836082 1022858977 -1983307766 663434031 -972650453 -317526323 -1485779885 667761892 -213302554 -1001939712 -550842611 1985910531 -664624916 -335119707 1888181354 294779260 1548303256 1997367427 1907520847 -47346090 -496053644 96141016 -1133894058
REM
CELL 1.54180   50.00000   50.00000   50.00000   90.00000   90.00000   90.00000
LATT -1
SFAC C  
C      1  0.5528590000000  0.5167000000000  0.5605790000000 1.0
C      1  0.5534250000000  0.5125760000000  0.4412010000000 1.0
C      1  0.5300700000000  0.5754140000000  0.4662120000000 1.0
C      1  0.5277320000000  0.5771640000000  0.5332890000000 1.0
C      1  0.5121850000000  0.5346980000000  0.5139330000000 1.0
C      1  0.5147490000000  0.5330390000000  0.4859440000000 1.0
C      1  0.5360720000000  0.5922300000000  0.4861820000000 1.0
C      1  0.5351560000000  0.5929470000000  0.5129500000000 1.0
C      1  0.4535110000000  0.4452620000000  0.4715150000000 1.0
C      1  0.4545700000000  0.4453400000000  0.5281040000000 1.0
C      1  0.4351230000000  0.5162720000000  0.5152370000000 1.0
C      1  0.4357590000000  0.5164070000000  0.4858810000000 1.0
C      1  0.4797960000000  0.5311320000000  0.5576340000000 1.0
C      1  0.4817120000000  0.5299850000000  0.4439970000000 1.0
C      1  0.4722890000000  0.4602390000000  0.4538210000000 1.0
C      1  0.4734380000000  0.4605380000000  0.5454230000000 1.0
C      1  0.4839110000000  0.5064190000000  0.4603720000000 1.0
C      1  0.4821240000000  0.5077790000000  0.5411950000000 1.0
C      1  0.5037520000000  0.4322100000000  0.5112380000000 1.0
C      1  0.5036520000000  0.4296190000000  0.4845430000000 1.0
C      1  0.5135990000000  0.4822900000000  0.4318270000000 1.0
C      1  0.5143470000000  0.4835080000000  0.5673930000000 1.0
C      1  0.5692140000000  0.5236870000000  0.5401370000000 1.0
C      1  0.5694740000000  0.5194500000000  0.4618940000000 1.0
C      1  0.5265620000000  0.4913230000000  0.5262450000000 1.0
C      1  0.5276760000000  0.4867100000000  0.4763840000000 1.0
C      1  0.5073620000000  0.5062200000000  0.4764900000000 1.0
C      1  0.5048080000000  0.5085500000000  0.5244350000000 1.0
C      1  0.5496190000000  0.4823860000000  0.5162780000000 1.0
C      1  0.5490600000000  0.4740320000000  0.4896670000000 1.0
C      1  0.5761600000000  0.5252740000000  0.4873730000000 1.0
C      1  0.5761320000000  0.5271610000000  0.5142710000000 1.0
C      1  0.4634770000000  0.4877040000000  0.5433530000000 1.0
C      1  0.4639980000000  0.4876400000000  0.4577560000000 1.0
C      1  0.5003840000000  0.4583170000000  0.4451380000000 1.0
C      1  0.5022970000000  0.4593310000000  0.5522570000000 1.0
C      1  0.5563970000000  0.4469380000000  0.4850330000000 1.0
C      1  0.5596660000000  0.4324940000000  0.5096410000000 1.0
C      1  0.4320410000000  0.5643190000000  0.4868330000000 1.0
C      1  0.4311090000000  0.5642440000000  0.5139420000000 1.0
C      1  0.5198390000000  0.5497370000000  0.4628700000000 1.0
C      1  0.5171860000000  0.5516430000000  0.5369930000000 1.0
C      1  0.5250970000000  0.5126100000000  0.5679800000000 1.0
C      1  0.5259310000000  0.5101580000000  0.4325520000000 1.0
C      1  0.4369260000000  0.4651020000000  0.5144930000000 1.0
C      1  0.4367210000000  0.4652730000000  0.4858880000000 1.0
C      1  0.5438760000000  0.4365120000000  0.4616570000000 1.0
C      1  0.5449900000000  0.4341440000000  0.5328240000000 1.0
C      1  0.4398130000000  0.4908600000000  0.5273940000000 1.0
C      1  0.4403990000000  0.4911860000000  0.4735670000000 1.0
C      1  0.5172430000000  0.4407270000000  0.5349600000000 1.0
C      1  0.5154800000000  0.4385440000000  0.4601960000000 1.0
C      1  0.4397920000000  0.5416270000000  0.4717090000000 1.0
C      1  0.4381980000000  0.5416280000000  0.5295470000000 1.0
C      1  0.5100110000000  0.5352630000000  0.4389250000000 1.0
C      1  0.5081760000000  0.5372330000000  0.5614100000000 1.0
C      1  0.4555390000000  0.4209920000000  0.4861170000000 1.0
C      1  0.4561960000000  0.4210460000000  0.5135170000000 1.0
C      1  0.4578060000000  0.5437940000000  0.4496470000000 1.0
C      1  0.4555140000000  0.5443710000000  0.5521590000000 1.0
END
