TITL C-2323479-8056-525 -1.09852859451387e-07 125000 -357.468061280783 0 0 60 (C3) n - 1
REM
REM in /home/bkarasulu/CARBON/AIRSS/Generating-Clusters/LCBOP/Higher-Symm/Only-C60/SD-CG/FIRE-HFTN
REM
REM
REM
REM
REM
REM ./C.cell (50c204cfd26239f34c78669fe23a5462)
REM
REM compiler GCC version 9.2.1 20190827 (Red Hat 9.2.1-1)
REM options -cpp -mtune=generic -march=x86-64 -g -O0 -fpre-include=/usr/include/finclude/math-vector-fortran.h
REM seed 1709829099 -1624753800 -1530510797 1153388739 930331447 1730303230 330587421 2074661135 283513680 460002362 1148835005 -1584524956 -1228822686 -1330058396 803115838 973225345 -1614400142 -1408480013 1867591185 -1336866938 -1990868384 -392621396 1356204118 610205140 -1297526640 89512195 -191560405 -1987694286 730757520 1613456102 -2089411588 769332820 1337079435
REM
CELL 1.54180   50.00000   50.00000   50.00000   90.00000   90.00000   90.00000
LATT -1
SFAC C  
C      1  0.5613290000000  0.4739060000000  0.5079180000000 1.0
C      1  0.5079500000000  0.5614430000000  0.4738990000000 1.0
C      1  0.4738530000000  0.5079480000000  0.5613350000000 1.0
C      1  0.5564890000000  0.5228220000000  0.4879410000000 1.0
C      1  0.4308250000000  0.5288510000000  0.5100980000000 1.0
C      1  0.4425220000000  0.4743340000000  0.4968520000000 1.0
C      1  0.5101530000000  0.4308570000000  0.5289680000000 1.0
C      1  0.4967280000000  0.4419960000000  0.4743460000000 1.0
C      1  0.4879250000000  0.5564660000000  0.5228310000000 1.0
C      1  0.4744180000000  0.4969930000000  0.4419520000000 1.0
C      1  0.5228630000000  0.4879450000000  0.5565740000000 1.0
C      1  0.5288640000000  0.5101700000000  0.4308250000000 1.0
C      1  0.5736070000000  0.5083070000000  0.4696900000000 1.0
C      1  0.5082850000000  0.4697290000000  0.5736800000000 1.0
C      1  0.4696570000000  0.5735800000000  0.5083390000000 1.0
C      1  0.5715990000000  0.4925190000000  0.5268790000000 1.0
C      1  0.4409460000000  0.5082960000000  0.5285660000000 1.0
C      1  0.4421770000000  0.4965450000000  0.4761430000000 1.0
C      1  0.5083650000000  0.5287280000000  0.4409170000000 1.0
C      1  0.4964330000000  0.4761510000000  0.4416940000000 1.0
C      1  0.4924880000000  0.5268910000000  0.5715980000000 1.0
C      1  0.4761910000000  0.4415610000000  0.4967200000000 1.0
C      1  0.5268880000000  0.5716830000000  0.4925530000000 1.0
C      1  0.5285930000000  0.4409580000000  0.5083440000000 1.0
C      1  0.5635530000000  0.4616740000000  0.4801020000000 1.0
C      1  0.4801060000000  0.5636560000000  0.4616810000000 1.0
C      1  0.4616310000000  0.4801220000000  0.5635990000000 1.0
C      1  0.5549610000000  0.5358770000000  0.5139920000000 1.0
C      1  0.4381640000000  0.5422940000000  0.4839690000000 1.0
C      1  0.4379580000000  0.4587170000000  0.5227380000000 1.0
C      1  0.4839780000000  0.4381400000000  0.5424480000000 1.0
C      1  0.5227160000000  0.4379980000000  0.4587470000000 1.0
C      1  0.5139770000000  0.5549750000000  0.5358810000000 1.0
C      1  0.4587380000000  0.5228710000000  0.4377950000000 1.0
C      1  0.5358890000000  0.5140150000000  0.5550220000000 1.0
C      1  0.5422370000000  0.4840230000000  0.4382260000000 1.0
C      1  0.5639290000000  0.4826380000000  0.4589440000000 1.0
C      1  0.4826060000000  0.4589660000000  0.5640340000000 1.0
C      1  0.4589290000000  0.5639660000000  0.4826390000000 1.0
C      1  0.5577830000000  0.5164550000000  0.5356560000000 1.0
C      1  0.4384920000000  0.4805910000000  0.5428450000000 1.0
C      1  0.4369650000000  0.5226150000000  0.4613890000000 1.0
C      1  0.4806130000000  0.5429950000000  0.4384910000000 1.0
C      1  0.5225590000000  0.4614620000000  0.4370240000000 1.0
C      1  0.5164350000000  0.5356560000000  0.5578000000000 1.0
C      1  0.4613720000000  0.4367730000000  0.5227700000000 1.0
C      1  0.5356380000000  0.5578020000000  0.5164590000000 1.0
C      1  0.5428140000000  0.4385370000000  0.4806110000000 1.0
C      1  0.4713310000000  0.5109870000000  0.5310680000000 1.0
C      1  0.4730010000000  0.4989410000000  0.4738310000000 1.0
C      1  0.4984360000000  0.4741330000000  0.4728960000000 1.0
C      1  0.5310990000000  0.4713360000000  0.5110310000000 1.0
C      1  0.5110840000000  0.5312100000000  0.4713090000000 1.0
C      1  0.4863540000000  0.5217500000000  0.4861850000000 1.0
C      1  0.4863100000000  0.4862500000000  0.5217540000000 1.0
C      1  0.5127920000000  0.4818630000000  0.5306720000000 1.0
C      1  0.5215800000000  0.4862400000000  0.4862750000000 1.0
C      1  0.4818690000000  0.5305730000000  0.5126920000000 1.0
C      1  0.4743530000000  0.4724900000000  0.4989590000000 1.0
C      1  0.5306000000000  0.5127290000000  0.4818040000000 1.0
END
