TITL C-2323479-8056-224 -1.06623008044674e-07 125000 -367.73264568254 0 0 60 (C1) n - 1
REM
REM in /home/bkarasulu/CARBON/AIRSS/Generating-Clusters/LCBOP/Higher-Symm/Only-C60/SD-CG/FIRE-HFTN
REM
REM
REM
REM
REM
REM ./C.cell (50c204cfd26239f34c78669fe23a5462)
REM
REM compiler GCC version 9.2.1 20190827 (Red Hat 9.2.1-1)
REM options -cpp -mtune=generic -march=x86-64 -g -O0 -fpre-include=/usr/include/finclude/math-vector-fortran.h
REM seed -2077644411 1933466196 713327057 -1793943182 -1873707013 1013888976 -93330111 -182731061 -1771981164 249461357 -1583939617 547341962 -1532528564 1834628806 -1671094069 -1789636316 -604117754 -1833896729 -540989754 -1726151581 -2114959637 858114730 -1628152803 -1996953217 -1484027788 1976378957 1149038711 1147892135 -310773619 -319813175 27289141 -1611033948 474495386
REM
CELL 1.54180   50.00000   50.00000   50.00000   90.00000   90.00000   90.00000
LATT -1
SFAC C  
C      1  0.5047550000000  0.6209520000000  0.4384510000000 1.0
C      1  0.4922470000000  0.3591800000000  0.5400270000000 1.0
C      1  0.5345510000000  0.5711960000000  0.5285210000000 1.0
C      1  0.5396360000000  0.4385370000000  0.4738070000000 1.0
C      1  0.5303450000000  0.5471760000000  0.4852500000000 1.0
C      1  0.5392080000000  0.4406170000000  0.5233400000000 1.0
C      1  0.4374280000000  0.5461820000000  0.5219270000000 1.0
C      1  0.4300700000000  0.4612870000000  0.4660790000000 1.0
C      1  0.4242920000000  0.4863890000000  0.4589830000000 1.0
C      1  0.4505190000000  0.5231020000000  0.5198400000000 1.0
C      1  0.4862900000000  0.5565020000000  0.4726520000000 1.0
C      1  0.4940310000000  0.4359540000000  0.5250340000000 1.0
C      1  0.4773870000000  0.5050280000000  0.5549540000000 1.0
C      1  0.4437970000000  0.5042590000000  0.4191100000000 1.0
C      1  0.4537060000000  0.5933870000000  0.5151620000000 1.0
C      1  0.4620910000000  0.4197960000000  0.4735800000000 1.0
C      1  0.4706620000000  0.5054490000000  0.5276570000000 1.0
C      1  0.4322190000000  0.5092150000000  0.4445600000000 1.0
C      1  0.5574960000000  0.5294290000000  0.5400010000000 1.0
C      1  0.5274060000000  0.4831630000000  0.4888470000000 1.0
C      1  0.4438080000000  0.4385790000000  0.4686920000000 1.0
C      1  0.4380990000000  0.5728360000000  0.5221750000000 1.0
C      1  0.5185470000000  0.4191470000000  0.5647550000000 1.0
C      1  0.5197800000000  0.5532340000000  0.4367500000000 1.0
C      1  0.5175020000000  0.4356510000000  0.5423740000000 1.0
C      1  0.5121590000000  0.5469160000000  0.4628960000000 1.0
C      1  0.5029350000000  0.3710400000000  0.5614210000000 1.0
C      1  0.5149340000000  0.6015860000000  0.4231510000000 1.0
C      1  0.5561750000000  0.5197290000000  0.5658980000000 1.0
C      1  0.4994510000000  0.4890660000000  0.4883060000000 1.0
C      1  0.5531840000000  0.5145410000000  0.5150060000000 1.0
C      1  0.5448540000000  0.4880130000000  0.5108160000000 1.0
C      1  0.5128360000000  0.3938280000000  0.5712330000000 1.0
C      1  0.5207050000000  0.5755140000000  0.4219040000000 1.0
C      1  0.5150330000000  0.5035980000000  0.5896090000000 1.0
C      1  0.4869340000000  0.4913880000000  0.4358240000000 1.0
C      1  0.4925880000000  0.5733610000000  0.4956990000000 1.0
C      1  0.5019400000000  0.4211340000000  0.5010120000000 1.0
C      1  0.4823520000000  0.4854530000000  0.5111380000000 1.0
C      1  0.4405780000000  0.5328960000000  0.4572350000000 1.0
C      1  0.4931880000000  0.6275220000000  0.4615810000000 1.0
C      1  0.4838850000000  0.3620810000000  0.5148470000000 1.0
C      1  0.4791980000000  0.4591370000000  0.5209180000000 1.0
C      1  0.4609300000000  0.5486320000000  0.4643870000000 1.0
C      1  0.4772950000000  0.5966830000000  0.5004150000000 1.0
C      1  0.4823160000000  0.4061480000000  0.4874930000000 1.0
C      1  0.5784370000000  0.4650770000000  0.5380320000000 1.0
C      1  0.5729040000000  0.5550620000000  0.5056130000000 1.0
C      1  0.4693230000000  0.4959620000000  0.4160900000000 1.0
C      1  0.4914700000000  0.5024890000000  0.5772950000000 1.0
C      1  0.5404840000000  0.5101140000000  0.5851260000000 1.0
C      1  0.4893140000000  0.4921910000000  0.4623790000000 1.0
C      1  0.5185450000000  0.5659270000000  0.5055780000000 1.0
C      1  0.5302200000000  0.4276830000000  0.4980120000000 1.0
C      1  0.5374110000000  0.4651260000000  0.4692130000000 1.0
C      1  0.5597290000000  0.5578530000000  0.5320910000000 1.0
C      1  0.5549130000000  0.5350360000000  0.4931790000000 1.0
C      1  0.5545980000000  0.4646470000000  0.5246040000000 1.0
C      1  0.4831600000000  0.6192590000000  0.4849000000000 1.0
C      1  0.4801550000000  0.3790630000000  0.4945700000000 1.0
END
