TITL C-2323479-8056-219 4.88680490251826 125000 -352.040869431702 0 0 60 (C1) n - 1
REM
REM in /home/bkarasulu/CARBON/AIRSS/Generating-Clusters/LCBOP/Higher-Symm/Only-C60/SD-CG/FIRE-HFTN
REM
REM
REM
REM
REM
REM ./C.cell (50c204cfd26239f34c78669fe23a5462)
REM
REM compiler GCC version 9.2.1 20190827 (Red Hat 9.2.1-1)
REM options -cpp -mtune=generic -march=x86-64 -g -O0 -fpre-include=/usr/include/finclude/math-vector-fortran.h
REM seed -755100771 1862002247 1960234327 445017271 -1850603758 -317461717 956897494 -1219373228 -2066794066 1377991583 -2069293011 -1131138751 293727326 902523853 873475681 1096410885 -546499868 -554448319 -250349421 -1596946931 -655870506 1732390360 308773044 2047160104 -628850719 -539624158 289558130 1010351936 -1679093751 -1083638228 556678192 -1449568992 2137145945
REM
CELL 1.54180   50.00000   50.00000   50.00000   90.00000   90.00000   90.00000
LATT -1
SFAC C  
C      1  0.4489610000000  0.4649130000000  0.5000190000000 1.0
C      1  0.4193470000000  0.5460970000000  0.5332010000000 1.0
C      1  0.5280720000000  0.5227310000000  0.5565790000000 1.0
C      1  0.5058730000000  0.4901630000000  0.4520400000000 1.0
C      1  0.4784520000000  0.6478250000000  0.3777700000000 1.0
C      1  0.4359180000000  0.4093290000000  0.3963200000000 1.0
C      1  0.5477790000000  0.4212200000000  0.5269630000000 1.0
C      1  0.4197710000000  0.5189320000000  0.5414090000000 1.0
C      1  0.5775320000000  0.4634100000000  0.5335700000000 1.0
C      1  0.5293650000000  0.4108880000000  0.5106450000000 1.0
C      1  0.4896370000000  0.4955460000000  0.5502400000000 1.0
C      1  0.5645330000000  0.4401800000000  0.5354290000000 1.0
C      1  0.4660910000000  0.5089610000000  0.5582770000000 1.0
C      1  0.4396350000000  0.5029020000000  0.5503780000000 1.0
C      1  0.4892080000000  0.4385430000000  0.4491300000000 1.0
C      1  0.4709270000000  0.4282790000000  0.4306450000000 1.0
C      1  0.5105820000000  0.4717750000000  0.5081080000000 1.0
C      1  0.5747340000000  0.5229780000000  0.4904950000000 1.0
C      1  0.5282190000000  0.5784550000000  0.4863340000000 1.0
C      1  0.4345190000000  0.5523650000000  0.4861130000000 1.0
C      1  0.5539380000000  0.5397340000000  0.4830480000000 1.0
C      1  0.5536840000000  0.5684780000000  0.4826850000000 1.0
C      1  0.5078440000000  0.5553740000000  0.4917330000000 1.0
C      1  0.5050660000000  0.5551470000000  0.5218450000000 1.0
C      1  0.5123500000000  0.4114160000000  0.4900980000000 1.0
C      1  0.4814010000000  0.4298960000000  0.5598320000000 1.0
C      1  0.5240260000000  0.5417780000000  0.5380840000000 1.0
C      1  0.5159330000000  0.4529560000000  0.5850350000000 1.0
C      1  0.4595590000000  0.5407380000000  0.4804390000000 1.0
C      1  0.4601760000000  0.5126760000000  0.4808990000000 1.0
C      1  0.4532880000000  0.4187240000000  0.4133390000000 1.0
C      1  0.4790350000000  0.6301820000000  0.3969550000000 1.0
C      1  0.5305590000000  0.4640900000000  0.4923850000000 1.0
C      1  0.5256850000000  0.5316310000000  0.4812600000000 1.0
C      1  0.4802590000000  0.5943240000000  0.4359710000000 1.0
C      1  0.4823160000000  0.5573880000000  0.4760880000000 1.0
C      1  0.5160320000000  0.5111550000000  0.4649490000000 1.0
C      1  0.4691780000000  0.5355540000000  0.5679890000000 1.0
C      1  0.4940510000000  0.4825690000000  0.5258900000000 1.0
C      1  0.4970060000000  0.4654860000000  0.4472380000000 1.0
C      1  0.5218740000000  0.4787070000000  0.5811970000000 1.0
C      1  0.4165330000000  0.5524100000000  0.5059840000000 1.0
C      1  0.4531460000000  0.4462750000000  0.5186240000000 1.0
C      1  0.5015770000000  0.4294580000000  0.5794220000000 1.0
C      1  0.4796280000000  0.6122430000000  0.4164600000000 1.0
C      1  0.5490210000000  0.4575950000000  0.4743430000000 1.0
C      1  0.4360470000000  0.5635820000000  0.5481760000000 1.0
C      1  0.4647940000000  0.4346020000000  0.5395640000000 1.0
C      1  0.5138480000000  0.5000340000000  0.5650550000000 1.0
C      1  0.5854130000000  0.4850770000000  0.5200670000000 1.0
C      1  0.4832390000000  0.5671440000000  0.5350820000000 1.0
C      1  0.5899450000000  0.4810480000000  0.4726250000000 1.0
C      1  0.5860150000000  0.4977960000000  0.4949870000000 1.0
C      1  0.5072700000000  0.4062980000000  0.5928100000000 1.0
C      1  0.4811790000000  0.5764970000000  0.4555360000000 1.0
C      1  0.4992530000000  0.4217550000000  0.4693150000000 1.0
C      1  0.5810610000000  0.4464970000000  0.4396010000000 1.0
C      1  0.4525390000000  0.4878810000000  0.4869770000000 1.0
C      1  0.4634570000000  0.5592000000000  0.5534130000000 1.0
C      1  0.5736210000000  0.4611140000000  0.4613330000000 1.0
END
