TITL C-2323480-5884-293 0.210358380498188 125000 -357.530421205386 0 0 60 (C1) n - 1
REM
REM in /home/bkarasulu/CARBON/AIRSS/Generating-Clusters/LCBOP/Higher-Symm/Only-C60/SD-CG/FIRE-HFTN
REM
REM
REM
REM
REM
REM ./C.cell (50c204cfd26239f34c78669fe23a5462)
REM
REM compiler GCC version 9.2.1 20190827 (Red Hat 9.2.1-1)
REM options -cpp -mtune=generic -march=x86-64 -g -O0 -fpre-include=/usr/include/finclude/math-vector-fortran.h
REM seed -1415128136 -856864991 358693813 -185081649 -180309164 -53853001 -185169285 1223306955 -2081819907 1568729385 457205443 -7043884 1884478872 1144782943 1212741673 2077632248 -1102654481 890268309 1816473886 1648215642 -552770060 -1109806566 -1466962471 -2138735494 1829791152 -414367794 -1464448003 -1543288978 -1850258562 -170631028 -468327191 -734445606 1855256484
REM
CELL 1.54180   50.00000   50.00000   50.00000   90.00000   90.00000   90.00000
LATT -1
SFAC C  
C      1  0.4408280000000  0.5173720000000  0.5922010000000 1.0
C      1  0.5265410000000  0.4562410000000  0.4673690000000 1.0
C      1  0.5391400000000  0.5462700000000  0.5578550000000 1.0
C      1  0.4874610000000  0.5232260000000  0.4813080000000 1.0
C      1  0.4448950000000  0.5021060000000  0.4489300000000 1.0
C      1  0.4896970000000  0.5059620000000  0.4590250000000 1.0
C      1  0.5098260000000  0.5210650000000  0.4987720000000 1.0
C      1  0.4920300000000  0.4694530000000  0.5756960000000 1.0
C      1  0.4453940000000  0.4741470000000  0.6053780000000 1.0
C      1  0.4302920000000  0.4433390000000  0.5184600000000 1.0
C      1  0.5283830000000  0.5008930000000  0.4894220000000 1.0
C      1  0.5525390000000  0.5210500000000  0.5614700000000 1.0
C      1  0.4883280000000  0.5140550000000  0.5641500000000 1.0
C      1  0.5061240000000  0.5449030000000  0.4325790000000 1.0
C      1  0.5535560000000  0.5643940000000  0.4862220000000 1.0
C      1  0.4662870000000  0.4742180000000  0.4852390000000 1.0
C      1  0.5296760000000  0.5710120000000  0.4722400000000 1.0
C      1  0.4112870000000  0.4538610000000  0.5004350000000 1.0
C      1  0.4197280000000  0.4710630000000  0.4796850000000 1.0
C      1  0.4778640000000  0.4299440000000  0.5412840000000 1.0
C      1  0.5356380000000  0.4992630000000  0.5678490000000 1.0
C      1  0.4932640000000  0.4105080000000  0.5282320000000 1.0
C      1  0.5272910000000  0.4100960000000  0.4899620000000 1.0
C      1  0.5307650000000  0.4644180000000  0.4170120000000 1.0
C      1  0.4787890000000  0.5369020000000  0.4276330000000 1.0
C      1  0.4652510000000  0.5396150000000  0.4881440000000 1.0
C      1  0.4683410000000  0.4793610000000  0.5887320000000 1.0
C      1  0.4900020000000  0.4457520000000  0.5611300000000 1.0
C      1  0.4906350000000  0.4703120000000  0.4959540000000 1.0
C      1  0.5097020000000  0.5366370000000  0.5222070000000 1.0
C      1  0.5304020000000  0.5113550000000  0.4027550000000 1.0
C      1  0.6022400000000  0.5448660000000  0.5079930000000 1.0
C      1  0.5548140000000  0.5541570000000  0.5131730000000 1.0
C      1  0.5454700000000  0.5088160000000  0.4681790000000 1.0
C      1  0.3590950000000  0.4411710000000  0.5056180000000 1.0
C      1  0.5286440000000  0.5281470000000  0.4252570000000 1.0
C      1  0.3842970000000  0.4473120000000  0.5030990000000 1.0
C      1  0.5767100000000  0.5586350000000  0.4695250000000 1.0
C      1  0.5754110000000  0.5212760000000  0.5443010000000 1.0
C      1  0.5323250000000  0.5515420000000  0.5305320000000 1.0
C      1  0.5179810000000  0.4738090000000  0.4887980000000 1.0
C      1  0.5787410000000  0.5397160000000  0.5226810000000 1.0
C      1  0.4639630000000  0.5656650000000  0.4797440000000 1.0
C      1  0.4453760000000  0.5297260000000  0.5042730000000 1.0
C      1  0.4517660000000  0.4355780000000  0.5322690000000 1.0
C      1  0.4907810000000  0.5310560000000  0.5422960000000 1.0
C      1  0.5114860000000  0.4031970000000  0.5102760000000 1.0
C      1  0.4569480000000  0.5214920000000  0.4337660000000 1.0
C      1  0.6012780000000  0.5555300000000  0.4830980000000 1.0
C      1  0.4294530000000  0.4968470000000  0.6070910000000 1.0
C      1  0.5082830000000  0.4925690000000  0.5680060000000 1.0
C      1  0.5705810000000  0.5435380000000  0.4465420000000 1.0
C      1  0.5129880000000  0.5648920000000  0.4518590000000 1.0
C      1  0.4974590000000  0.4852040000000  0.4439190000000 1.0
C      1  0.4435460000000  0.4827160000000  0.4702350000000 1.0
C      1  0.5493610000000  0.5249480000000  0.4451220000000 1.0
C      1  0.5338820000000  0.4300590000000  0.4735250000000 1.0
C      1  0.5340590000000  0.4848360000000  0.3996420000000 1.0
C      1  0.5177730000000  0.4654920000000  0.4418850000000 1.0
C      1  0.4653350000000  0.5084120000000  0.5799660000000 1.0
END
