TITL C-2323487-9546-214 0.0308392220073527 125000 -355.967729075524 0 0 60 (C1) n - 1
REM
REM in /home/bkarasulu/CARBON/AIRSS/Generating-Clusters/LCBOP/Higher-Symm/Only-C60/SD-CG/FIRE-HFTN
REM
REM
REM
REM
REM
REM ./C.cell (50c204cfd26239f34c78669fe23a5462)
REM
REM compiler GCC version 9.2.1 20190827 (Red Hat 9.2.1-1)
REM options -cpp -mtune=generic -march=x86-64 -g -O0 -fpre-include=/usr/include/finclude/math-vector-fortran.h
REM seed -1034773080 659449166 -586678834 753227743 -747621821 -2100244199 -1373325863 110382906 75563391 -263674418 823904464 -626730100 1200699949 1182688346 -82409435 1569359356 -558757916 -523302088 398133849 1739249602 -963229848 -1890444525 524693239 -777412148 1939974578 1077095236 1423081365 160450639 126995215 738556372 180830035 -1189509168 1302835765
REM
CELL 1.54180   50.00000   50.00000   50.00000   90.00000   90.00000   90.00000
LATT -1
SFAC C  
C      1  0.5082700000000  0.5278740000000  0.5731870000000 1.0
C      1  0.5287710000000  0.5691090000000  0.5090540000000 1.0
C      1  0.5656530000000  0.5102620000000  0.5293270000000 1.0
C      1  0.5093260000000  0.4707410000000  0.4317870000000 1.0
C      1  0.4922320000000  0.5277710000000  0.4290720000000 1.0
C      1  0.4906540000000  0.4707580000000  0.5682690000000 1.0
C      1  0.5283830000000  0.4294240000000  0.4913300000000 1.0
C      1  0.4710760000000  0.5725040000000  0.4925950000000 1.0
C      1  0.4748830000000  0.4420230000000  0.5080470000000 1.0
C      1  0.5745080000000  0.4928450000000  0.4719580000000 1.0
C      1  0.4291780000000  0.5084390000000  0.4708750000000 1.0
C      1  0.4296570000000  0.4911600000000  0.5288110000000 1.0
C      1  0.5383390000000  0.4823270000000  0.5619500000000 1.0
C      1  0.4832890000000  0.5596160000000  0.5398650000000 1.0
C      1  0.5593860000000  0.5386380000000  0.4830120000000 1.0
C      1  0.5403810000000  0.5170240000000  0.4399680000000 1.0
C      1  0.4597740000000  0.4806610000000  0.4386180000000 1.0
C      1  0.4621200000000  0.5164030000000  0.5590030000000 1.0
C      1  0.4822230000000  0.4394120000000  0.4618790000000 1.0
C      1  0.5184810000000  0.5615680000000  0.4599740000000 1.0
C      1  0.5174380000000  0.4401170000000  0.5385950000000 1.0
C      1  0.5595180000000  0.4631320000000  0.5173280000000 1.0
C      1  0.4385890000000  0.5401780000000  0.5187150000000 1.0
C      1  0.4380860000000  0.4608010000000  0.4820610000000 1.0
C      1  0.5088560000000  0.5157050000000  0.4741630000000 1.0
C      1  0.5106630000000  0.4735240000000  0.5108660000000 1.0
C      1  0.4639880000000  0.5096590000000  0.5009340000000 1.0
C      1  0.5133270000000  0.4938300000000  0.5288410000000 1.0
C      1  0.5024980000000  0.5174310000000  0.5293640000000 1.0
C      1  0.4876700000000  0.5002730000000  0.4655480000000 1.0
C      1  0.4977510000000  0.5364980000000  0.4888730000000 1.0
C      1  0.4847060000000  0.4683310000000  0.5041320000000 1.0
C      1  0.4847220000000  0.5260990000000  0.5105290000000 1.0
C      1  0.4741280000000  0.4878730000000  0.4873660000000 1.0
C      1  0.5300880000000  0.4997940000000  0.4801250000000 1.0
C      1  0.5280320000000  0.4753020000000  0.4894870000000 1.0
C      1  0.4912020000000  0.4297870000000  0.5286270000000 1.0
C      1  0.4396750000000  0.5231320000000  0.4940730000000 1.0
C      1  0.5292770000000  0.4902090000000  0.4315980000000 1.0
C      1  0.4933620000000  0.5616890000000  0.4764140000000 1.0
C      1  0.5081020000000  0.4294850000000  0.4724700000000 1.0
C      1  0.5095960000000  0.5686970000000  0.5290460000000 1.0
C      1  0.4289710000000  0.4718940000000  0.5086740000000 1.0
C      1  0.5666770000000  0.5286450000000  0.5093450000000 1.0
C      1  0.5727820000000  0.4736010000000  0.4922690000000 1.0
C      1  0.5277840000000  0.5080000000000  0.5732880000000 1.0
C      1  0.4716340000000  0.4902540000000  0.5674750000000 1.0
C      1  0.4762420000000  0.5054830000000  0.4399540000000 1.0
C      1  0.4825490000000  0.4596550000000  0.4403640000000 1.0
C      1  0.4597960000000  0.4397900000000  0.4826360000000 1.0
C      1  0.4380210000000  0.4814530000000  0.4601890000000 1.0
C      1  0.4825980000000  0.5381670000000  0.5615780000000 1.0
C      1  0.5168630000000  0.4612080000000  0.5596890000000 1.0
C      1  0.5188340000000  0.5390540000000  0.4387630000000 1.0
C      1  0.4606930000000  0.5616350000000  0.5190870000000 1.0
C      1  0.5386640000000  0.4406070000000  0.5169580000000 1.0
C      1  0.5394050000000  0.5601190000000  0.4825220000000 1.0
C      1  0.4396570000000  0.5174960000000  0.5399060000000 1.0
C      1  0.5574770000000  0.4840600000000  0.5388080000000 1.0
C      1  0.5634990000000  0.5187720000000  0.4607630000000 1.0
END
