TITL C-2323478-8180-148 1.66030171063599 125000 -352.89156912909 0 0 60 (C1) n - 1
REM
REM in /home/bkarasulu/CARBON/AIRSS/Generating-Clusters/LCBOP/Higher-Symm/Only-C60/SD-CG/FIRE-HFTN
REM
REM
REM
REM
REM
REM ./C.cell (50c204cfd26239f34c78669fe23a5462)
REM
REM compiler GCC version 9.2.1 20190827 (Red Hat 9.2.1-1)
REM options -cpp -mtune=generic -march=x86-64 -g -O0 -fpre-include=/usr/include/finclude/math-vector-fortran.h
REM seed 892431668 -1446369448 -1086984611 1517238097 -394600109 -1853439578 573650284 620603807 1129734998 -216028722 1133246265 -1430657 114064530 -2060646946 -157268581 1177822687 -1350236898 1746668398 929727424 295042158 -608260337 1418021801 -2114947911 2014399112 863216692 -233903568 -1538593829 -852547151 -1845513209 874731871 -1815931093 1029715151 132025831
REM
CELL 1.54180   50.00000   50.00000   50.00000   90.00000   90.00000   90.00000
LATT -1
SFAC C  
C      1  0.4845430000000  0.5181680000000  0.4848320000000 1.0
C      1  0.5121600000000  0.5058980000000  0.4865200000000 1.0
C      1  0.4616190000000  0.5106520000000  0.4424790000000 1.0
C      1  0.5281950000000  0.5128990000000  0.4403760000000 1.0
C      1  0.5480210000000  0.5651710000000  0.4531610000000 1.0
C      1  0.4796720000000  0.5623470000000  0.4377440000000 1.0
C      1  0.4380050000000  0.4997530000000  0.5241100000000 1.0
C      1  0.5570530000000  0.4905180000000  0.5138680000000 1.0
C      1  0.4903820000000  0.3568840000000  0.4989730000000 1.0
C      1  0.5240130000000  0.4275650000000  0.4857880000000 1.0
C      1  0.5289720000000  0.5396850000000  0.5517350000000 1.0
C      1  0.4713780000000  0.5544000000000  0.5473240000000 1.0
C      1  0.5752650000000  0.5321240000000  0.4974820000000 1.0
C      1  0.4249620000000  0.5365860000000  0.4941180000000 1.0
C      1  0.5136660000000  0.5750600000000  0.5052440000000 1.0
C      1  0.4873860000000  0.5790120000000  0.5001040000000 1.0
C      1  0.5582480000000  0.4585280000000  0.4696920000000 1.0
C      1  0.4533540000000  0.4841200000000  0.4486880000000 1.0
C      1  0.5354740000000  0.5176900000000  0.4707940000000 1.0
C      1  0.4674570000000  0.5273590000000  0.4645770000000 1.0
C      1  0.4631630000000  0.5683850000000  0.4891090000000 1.0
C      1  0.5370950000000  0.5601690000000  0.4997970000000 1.0
C      1  0.5620740000000  0.5067890000000  0.5380040000000 1.0
C      1  0.4355830000000  0.5230670000000  0.5424050000000 1.0
C      1  0.4940130000000  0.5423880000000  0.4226060000000 1.0
C      1  0.5224970000000  0.5378430000000  0.4254060000000 1.0
C      1  0.5117340000000  0.4754930000000  0.4794260000000 1.0
C      1  0.4839370000000  0.4655230000000  0.4830060000000 1.0
C      1  0.4642610000000  0.4429070000000  0.5661520000000 1.0
C      1  0.5347590000000  0.4300370000000  0.5558090000000 1.0
C      1  0.4665620000000  0.5560720000000  0.4626820000000 1.0
C      1  0.5380670000000  0.5491020000000  0.4729910000000 1.0
C      1  0.5150130000000  0.5043880000000  0.5181200000000 1.0
C      1  0.4746200000000  0.5240180000000  0.5102320000000 1.0
C      1  0.4523040000000  0.4601560000000  0.5496600000000 1.0
C      1  0.5459200000000  0.4442270000000  0.5360680000000 1.0
C      1  0.4563770000000  0.4768240000000  0.5270880000000 1.0
C      1  0.5381690000000  0.4645960000000  0.5162570000000 1.0
C      1  0.5134340000000  0.4034490000000  0.4885240000000 1.0
C      1  0.5019810000000  0.3800720000000  0.4934680000000 1.0
C      1  0.4809090000000  0.4696160000000  0.5121770000000 1.0
C      1  0.5091700000000  0.4759810000000  0.5230580000000 1.0
C      1  0.5162480000000  0.5610470000000  0.5659000000000 1.0
C      1  0.4896500000000  0.5682230000000  0.5640450000000 1.0
C      1  0.4448280000000  0.5508020000000  0.5360940000000 1.0
C      1  0.5545580000000  0.5351610000000  0.5401970000000 1.0
C      1  0.4864530000000  0.4299230000000  0.5732130000000 1.0
C      1  0.5123820000000  0.4250030000000  0.5694330000000 1.0
C      1  0.4962540000000  0.4690320000000  0.4366630000000 1.0
C      1  0.4741960000000  0.4660160000000  0.4558810000000 1.0
C      1  0.5592800000000  0.5490540000000  0.5151500000000 1.0
C      1  0.4416620000000  0.5569470000000  0.5066340000000 1.0
C      1  0.5102280000000  0.5232860000000  0.5382020000000 1.0
C      1  0.4847890000000  0.5329300000000  0.5344070000000 1.0
C      1  0.5602460000000  0.5081660000000  0.4892200000000 1.0
C      1  0.4256100000000  0.5096070000000  0.4998530000000 1.0
C      1  0.4789660000000  0.3340930000000  0.5044420000000 1.0
C      1  0.5337310000000  0.4555640000000  0.4868560000000 1.0
C      1  0.4835420000000  0.5144210000000  0.4239520000000 1.0
C      1  0.5059110000000  0.4952070000000  0.4302020000000 1.0
END
