TITL C-2323486-8761-141 0.417459689226731 125000 -353.759753851512 0 0 60 (C1) n - 1
REM
REM in /home/bkarasulu/CARBON/AIRSS/Generating-Clusters/LCBOP/Higher-Symm/Only-C60/SD-CG/FIRE-HFTN
REM
REM
REM
REM
REM
REM ./C.cell (50c204cfd26239f34c78669fe23a5462)
REM
REM compiler GCC version 9.2.1 20190827 (Red Hat 9.2.1-1)
REM options -cpp -mtune=generic -march=x86-64 -g -O0 -fpre-include=/usr/include/finclude/math-vector-fortran.h
REM seed 1231897447 2126211878 1007082315 -1731889579 -1308805567 -1095853840 -1869104121 -916636498 -986061542 -1660532048 1374606833 -1647415493 -685777009 -1481130218 1407129555 -506524617 -308455572 2054959903 -1804242052 -1741526870 1330558861 837406081 359007618 834859356 1042173649 1639907198 -1048962107 972383428 -1843502183 -625675318 -698520873 1970386418 1901716432
REM
CELL 1.54180   50.00000   50.00000   50.00000   90.00000   90.00000   90.00000
LATT -1
SFAC C  
C      1  0.5793810000000  0.5278080000000  0.5000330000000 1.0
C      1  0.5739340000000  0.4854420000000  0.5262520000000 1.0
C      1  0.5829020000000  0.4833260000000  0.4770070000000 1.0
C      1  0.5597830000000  0.3779770000000  0.5083750000000 1.0
C      1  0.5355930000000  0.5676590000000  0.3863430000000 1.0
C      1  0.5344260000000  0.5612410000000  0.6148560000000 1.0
C      1  0.5539780000000  0.4755770000000  0.5429690000000 1.0
C      1  0.5703460000000  0.4708080000000  0.4555160000000 1.0
C      1  0.5639930000000  0.5508150000000  0.4968190000000 1.0
C      1  0.4667870000000  0.5461190000000  0.5360410000000 1.0
C      1  0.4833070000000  0.3919840000000  0.4664270000000 1.0
C      1  0.4749550000000  0.5081960000000  0.4444710000000 1.0
C      1  0.5377710000000  0.5601470000000  0.4936610000000 1.0
C      1  0.5267240000000  0.4755080000000  0.5493580000000 1.0
C      1  0.5452550000000  0.4624560000000  0.4462990000000 1.0
C      1  0.5224810000000  0.5684040000000  0.5161050000000 1.0
C      1  0.5101010000000  0.4532340000000  0.5431170000000 1.0
C      1  0.5291530000000  0.4797720000000  0.4305890000000 1.0
C      1  0.4719480000000  0.4383400000000  0.4608610000000 1.0
C      1  0.4663930000000  0.5496540000000  0.4674620000000 1.0
C      1  0.4575410000000  0.5099440000000  0.5671500000000 1.0
C      1  0.4605520000000  0.4609830000000  0.4489470000000 1.0
C      1  0.4549470000000  0.5610110000000  0.4903710000000 1.0
C      1  0.4477430000000  0.4844950000000  0.5735570000000 1.0
C      1  0.5246210000000  0.5555620000000  0.4693190000000 1.0
C      1  0.5151470000000  0.4990680000000  0.5591170000000 1.0
C      1  0.5333830000000  0.4398380000000  0.4579130000000 1.0
C      1  0.3777960000000  0.4753950000000  0.6121890000000 1.0
C      1  0.3809360000000  0.4707350000000  0.4430680000000 1.0
C      1  0.3794130000000  0.5885860000000  0.4911920000000 1.0
C      1  0.4235240000000  0.4813140000000  0.5869500000000 1.0
C      1  0.4328860000000  0.4637000000000  0.4468910000000 1.0
C      1  0.4288080000000  0.5706340000000  0.4902860000000 1.0
C      1  0.5821570000000  0.4714420000000  0.5029060000000 1.0
C      1  0.5867500000000  0.5115250000000  0.4778520000000 1.0
C      1  0.5789900000000  0.5134250000000  0.5246150000000 1.0
C      1  0.4849670000000  0.4515290000000  0.5553580000000 1.0
C      1  0.5020970000000  0.4732160000000  0.4267490000000 1.0
C      1  0.4956670000000  0.5759270000000  0.5122730000000 1.0
C      1  0.4903910000000  0.4183900000000  0.4676460000000 1.0
C      1  0.4839450000000  0.5333950000000  0.4529080000000 1.0
C      1  0.4756260000000  0.5276300000000  0.5551880000000 1.0
C      1  0.5358540000000  0.5065160000000  0.4255050000000 1.0
C      1  0.5294800000000  0.5613070000000  0.5423130000000 1.0
C      1  0.5176940000000  0.4348020000000  0.5235710000000 1.0
C      1  0.4039120000000  0.5796850000000  0.4907200000000 1.0
C      1  0.4004750000000  0.4783300000000  0.5996710000000 1.0
C      1  0.4066950000000  0.4672000000000  0.4449670000000 1.0
C      1  0.5259270000000  0.4194980000000  0.5016900000000 1.0
C      1  0.5263150000000  0.5328930000000  0.4265340000000 1.0
C      1  0.5205180000000  0.5470230000000  0.5647340000000 1.0
C      1  0.5035690000000  0.5245220000000  0.5603710000000 1.0
C      1  0.5167360000000  0.4258020000000  0.4755140000000 1.0
C      1  0.5112470000000  0.5411870000000  0.4493080000000 1.0
C      1  0.4710290000000  0.5624850000000  0.5136780000000 1.0
C      1  0.4631740000000  0.4623670000000  0.5660120000000 1.0
C      1  0.4779410000000  0.4809340000000  0.4388050000000 1.0
C      1  0.5277920000000  0.5545730000000  0.5905520000000 1.0
C      1  0.5433250000000  0.3979630000000  0.5054020000000 1.0
C      1  0.5312180000000  0.5507030000000  0.4056440000000 1.0
END
