TITL C-2323485-8600-211 -0.000201118879156261 125000 -363.582853665526 0 0 60 (Cs) n - 1
REM
REM in /home/bkarasulu/CARBON/AIRSS/Generating-Clusters/LCBOP/Higher-Symm/Only-C60/SD-CG/FIRE-HFTN
REM
REM
REM
REM
REM
REM ./C.cell (50c204cfd26239f34c78669fe23a5462)
REM
REM compiler GCC version 9.2.1 20190827 (Red Hat 9.2.1-1)
REM options -cpp -mtune=generic -march=x86-64 -g -O0 -fpre-include=/usr/include/finclude/math-vector-fortran.h
REM seed -69465202 -1653832230 -1950677950 384505387 1612015448 -405569201 -1760355300 -279820624 1177828672 699515121 -132786122 -989774414 -405463212 -2025444772 1325020425 692364139 1013197541 1713443543 -1348994545 -886125943 467163914 -548688803 -1814617544 -102286767 1902440950 1341123504 -1572456490 245879885 1047692674 1326464333 557190068 180627864 933355179
REM
CELL 1.54180   50.00000   50.00000   50.00000   90.00000   90.00000   90.00000
LATT -1
SFAC C  
C      1  0.4615660000000  0.5704700000000  0.4864480000000 1.0
C      1  0.4675460000000  0.4292060000000  0.5136110000000 1.0
C      1  0.5306210000000  0.5722550000000  0.4863890000000 1.0
C      1  0.5371200000000  0.4294680000000  0.5135440000000 1.0
C      1  0.4675460000000  0.4292060000000  0.4863900000000 1.0
C      1  0.4615660000000  0.5704710000000  0.5135510000000 1.0
C      1  0.5371200000000  0.4294680000000  0.4864570000000 1.0
C      1  0.5306210000000  0.5722550000000  0.5136100000000 1.0
C      1  0.5227970000000  0.4756090000000  0.4864320000000 1.0
C      1  0.5217470000000  0.5252820000000  0.5139120000000 1.0
C      1  0.4776400000000  0.4758970000000  0.4860910000000 1.0
C      1  0.4765400000000  0.5246140000000  0.5135370000000 1.0
C      1  0.5217470000000  0.5252820000000  0.4860880000000 1.0
C      1  0.5227970000000  0.4756090000000  0.5135680000000 1.0
C      1  0.4765400000000  0.5246140000000  0.4864630000000 1.0
C      1  0.4776400000000  0.4758970000000  0.5139090000000 1.0
C      1  0.4309270000000  0.5110370000000  0.4604680000000 1.0
C      1  0.4237200000000  0.5106610000000  0.5135000000000 1.0
C      1  0.5757110000000  0.4877320000000  0.4864920000000 1.0
C      1  0.5684950000000  0.4874150000000  0.5395560000000 1.0
C      1  0.4237200000000  0.5106610000000  0.4865000000000 1.0
C      1  0.4309270000000  0.5110380000000  0.5395320000000 1.0
C      1  0.5684950000000  0.4874150000000  0.4604440000000 1.0
C      1  0.5757110000000  0.4877320000000  0.5135080000000 1.0
C      1  0.4775270000000  0.4720990000000  0.5711360000000 1.0
C      1  0.4718040000000  0.5227480000000  0.4343540000000 1.0
C      1  0.5274050000000  0.4765210000000  0.5661190000000 1.0
C      1  0.5220230000000  0.5272850000000  0.4297880000000 1.0
C      1  0.4718030000000  0.5227480000000  0.5656450000000 1.0
C      1  0.4775270000000  0.4720990000000  0.4288640000000 1.0
C      1  0.5220220000000  0.5272860000000  0.5702120000000 1.0
C      1  0.5274050000000  0.4765200000000  0.4338810000000 1.0
C      1  0.5513930000000  0.4910420000000  0.4379510000000 1.0
C      1  0.5479010000000  0.5173260000000  0.5725680000000 1.0
C      1  0.4519440000000  0.4822860000000  0.4265310000000 1.0
C      1  0.4481040000000  0.5080240000000  0.5620110000000 1.0
C      1  0.5479020000000  0.5173250000000  0.4274320000000 1.0
C      1  0.5513920000000  0.4910420000000  0.5620500000000 1.0
C      1  0.4481040000000  0.5080240000000  0.4379890000000 1.0
C      1  0.4519440000000  0.4822870000000  0.5734690000000 1.0
C      1  0.5235010000000  0.5496330000000  0.4710400000000 1.0
C      1  0.5275560000000  0.4515520000000  0.5279700000000 1.0
C      1  0.4713760000000  0.5485240000000  0.4719580000000 1.0
C      1  0.4753630000000  0.4516270000000  0.5289440000000 1.0
C      1  0.5275560000000  0.4515520000000  0.4720310000000 1.0
C      1  0.5235010000000  0.5496330000000  0.5289590000000 1.0
C      1  0.4753630000000  0.4516270000000  0.4710560000000 1.0
C      1  0.4713760000000  0.5485250000000  0.5280420000000 1.0
C      1  0.4881240000000  0.4526070000000  0.4453720000000 1.0
C      1  0.4818350000000  0.5463630000000  0.5540530000000 1.0
C      1  0.5170570000000  0.4536610000000  0.4461010000000 1.0
C      1  0.5110180000000  0.5479020000000  0.5547570000000 1.0
C      1  0.4818350000000  0.5463630000000  0.4459460000000 1.0
C      1  0.4881240000000  0.4526080000000  0.5546280000000 1.0
C      1  0.5110180000000  0.5479020000000  0.4452420000000 1.0
C      1  0.5170570000000  0.4536610000000  0.5539000000000 1.0
C      1  0.5002830000000  0.5007950000000  0.5619280000000 1.0
C      1  0.5002830000000  0.5007940000000  0.4380720000000 1.0
C      1  0.5002430000000  0.5003580000000  0.5273700000000 1.0
C      1  0.5002430000000  0.5003580000000  0.4726300000000 1.0
END
