TITL C-2323489-8765-92 -3342.24228039639 125000 -354.690754191905 0 0 60 (C1) n - 1
REM
REM in /home/bkarasulu/CARBON/AIRSS/Generating-Clusters/LCBOP/Higher-Symm/Only-C60/SD-CG/FIRE-HFTN
REM
REM
REM
REM
REM
REM ./C.cell (50c204cfd26239f34c78669fe23a5462)
REM
REM compiler GCC version 9.2.1 20190827 (Red Hat 9.2.1-1)
REM options -cpp -mtune=generic -march=x86-64 -g -O0 -fpre-include=/usr/include/finclude/math-vector-fortran.h
REM seed 438421695 1811555621 582436534 -289210379 -1265963675 1150164206 38069801 416415328 -1560723279 1344195638 -2054077022 -497682977 -762225302 1575741143 -879143311 -1305176347 502237781 600082780 -1135042961 -24674617 -809461770 -1234850397 1781724054 1336825616 -513402352 1851431570 -1247632080 1252399942 1970513239 -1632055391 118214290 2092137799 1880268348
REM
CELL 1.54180   50.00000   50.00000   50.00000   90.00000   90.00000   90.00000
LATT -1
SFAC C  
C      1  0.4899340000000  0.4908830000000  0.5343610000000 1.0
C      1  0.4894050000000  0.5314750000000  0.4960080000000 1.0
C      1  0.4961030000000  0.4677880000000  0.4640630000000 1.0
C      1  0.4945980000000  0.4087100000000  0.5122810000000 1.0
C      1  0.5090380000000  0.5498960000000  0.5716590000000 1.0
C      1  0.5000770000000  0.5295680000000  0.4191290000000 1.0
C      1  0.4951720000000  0.4174220000000  0.4852080000000 1.0
C      1  0.4848420000000  0.5375700000000  0.5801470000000 1.0
C      1  0.4972140000000  0.5534350000000  0.4345880000000 1.0
C      1  0.5114410000000  0.5696220000000  0.5530350000000 1.0
C      1  0.4982080000000  0.5052410000000  0.4075420000000 1.0
C      1  0.4973330000000  0.4146130000000  0.5385050000000 1.0
C      1  0.4593650000000  0.4557300000000  0.5360080000000 1.0
C      1  0.4594610000000  0.5543390000000  0.5231470000000 1.0
C      1  0.4615120000000  0.4907680000000  0.4426320000000 1.0
C      1  0.5847520000000  0.5009650000000  0.5231500000000 1.0
C      1  0.5821570000000  0.5189200000000  0.4901700000000 1.0
C      1  0.5865300000000  0.4833340000000  0.4916570000000 1.0
C      1  0.5002610000000  0.5806490000000  0.5309430000000 1.0
C      1  0.4882220000000  0.4798620000000  0.4067870000000 1.0
C      1  0.4931800000000  0.4317810000000  0.5591690000000 1.0
C      1  0.4534990000000  0.4427480000000  0.4887280000000 1.0
C      1  0.4497770000000  0.5184560000000  0.5549220000000 1.0
C      1  0.4551680000000  0.5385120000000  0.4563500000000 1.0
C      1  0.5498280000000  0.5178760000000  0.4558350000000 1.0
C      1  0.5576560000000  0.4508970000000  0.5105080000000 1.0
C      1  0.5581320000000  0.5340770000000  0.5437480000000 1.0
C      1  0.4524330000000  0.4709050000000  0.4835790000000 1.0
C      1  0.4427250000000  0.5004870000000  0.5344480000000 1.0
C      1  0.4436210000000  0.5331560000000  0.4819880000000 1.0
C      1  0.5662180000000  0.4651310000000  0.4874380000000 1.0
C      1  0.5624390000000  0.5064890000000  0.5386130000000 1.0
C      1  0.5576730000000  0.5281050000000  0.4808620000000 1.0
C      1  0.4863420000000  0.4848440000000  0.5635210000000 1.0
C      1  0.4896000000000  0.5594090000000  0.4853530000000 1.0
C      1  0.4809260000000  0.4474850000000  0.4472740000000 1.0
C      1  0.5463850000000  0.4694860000000  0.4671930000000 1.0
C      1  0.5392370000000  0.4896570000000  0.5347700000000 1.0
C      1  0.5382840000000  0.5362030000000  0.5002220000000 1.0
C      1  0.4808240000000  0.5729710000000  0.5114270000000 1.0
C      1  0.4712530000000  0.4671200000000  0.4263110000000 1.0
C      1  0.4773840000000  0.4554890000000  0.5601480000000 1.0
C      1  0.5198260000000  0.4292710000000  0.4771660000000 1.0
C      1  0.4631180000000  0.5565930000000  0.5736650000000 1.0
C      1  0.5113910000000  0.5757800000000  0.4273710000000 1.0
C      1  0.4610260000000  0.5314030000000  0.5042840000000 1.0
C      1  0.4728750000000  0.4849320000000  0.4693780000000 1.0
C      1  0.4630310000000  0.4828910000000  0.5257530000000 1.0
C      1  0.5485180000000  0.5493130000000  0.5233570000000 1.0
C      1  0.5480090000000  0.4916670000000  0.4499410000000 1.0
C      1  0.5445760000000  0.4620600000000  0.5313640000000 1.0
C      1  0.4722480000000  0.4291060000000  0.4705150000000 1.0
C      1  0.4738880000000  0.5104730000000  0.5726050000000 1.0
C      1  0.4798210000000  0.5547180000000  0.4575020000000 1.0
C      1  0.5140130000000  0.5211540000000  0.5048700000000 1.0
C      1  0.5215270000000  0.4568030000000  0.4702580000000 1.0
C      1  0.5144300000000  0.5001450000000  0.5243330000000 1.0
C      1  0.4524150000000  0.5169270000000  0.4381940000000 1.0
C      1  0.4505180000000  0.4372100000000  0.5165330000000 1.0
C      1  0.4505600000000  0.5474800000000  0.5494820000000 1.0
END
