TITL C-2323487-9546-421 -0.000465704414753031 125000 -368.103104827943 0 0 60 (C1) n - 1
REM
REM in /home/bkarasulu/CARBON/AIRSS/Generating-Clusters/LCBOP/Higher-Symm/Only-C60/SD-CG/FIRE-HFTN
REM
REM
REM
REM
REM
REM ./C.cell (50c204cfd26239f34c78669fe23a5462)
REM
REM compiler GCC version 9.2.1 20190827 (Red Hat 9.2.1-1)
REM options -cpp -mtune=generic -march=x86-64 -g -O0 -fpre-include=/usr/include/finclude/math-vector-fortran.h
REM seed 1555369548 -1423505643 -480382078 1012234102 338145049 -598037396 -1672057841 225380559 608557889 -860538293 -2008030849 -1542645448 1825225570 -518011640 -118976759 -2044677486 1696855083 1247655191 607769052 833212616 3630321 -1899362586 1280872465 -420094574 -1155701912 -1518187749 2124856947 680874922 -1445957547 188967193 -1396916373 -703985425 -1076645979
REM
CELL 1.54180   50.00000   50.00000   50.00000   90.00000   90.00000   90.00000
LATT -1
SFAC C  
C      1  0.4601970000000  0.5466940000000  0.5124880000000 1.0
C      1  0.5143640000000  0.5457840000000  0.4050040000000 1.0
C      1  0.5612670000000  0.5438470000000  0.4187020000000 1.0
C      1  0.4853460000000  0.4242660000000  0.5503350000000 1.0
C      1  0.4843470000000  0.4965830000000  0.5727870000000 1.0
C      1  0.4984190000000  0.5753190000000  0.5050260000000 1.0
C      1  0.4601410000000  0.4986980000000  0.4360780000000 1.0
C      1  0.5848090000000  0.5286570000000  0.6044320000000 1.0
C      1  0.5333850000000  0.4918710000000  0.5178490000000 1.0
C      1  0.4462950000000  0.5320650000000  0.4690490000000 1.0
C      1  0.4394430000000  0.5353400000000  0.4964330000000 1.0
C      1  0.5295280000000  0.5106530000000  0.4346900000000 1.0
C      1  0.5284100000000  0.4630040000000  0.5220510000000 1.0
C      1  0.4996390000000  0.5335090000000  0.3840630000000 1.0
C      1  0.5055780000000  0.4072530000000  0.5596870000000 1.0
C      1  0.5321000000000  0.4110350000000  0.5607510000000 1.0
C      1  0.5173270000000  0.5010700000000  0.4562440000000 1.0
C      1  0.4598610000000  0.5080710000000  0.4622650000000 1.0
C      1  0.5708530000000  0.4827080000000  0.5801200000000 1.0
C      1  0.4675690000000  0.4030360000000  0.4867030000000 1.0
C      1  0.5216530000000  0.5935280000000  0.4610790000000 1.0
C      1  0.5504630000000  0.4320610000000  0.5592630000000 1.0
C      1  0.5184980000000  0.5233600000000  0.5485700000000 1.0
C      1  0.5438630000000  0.4565840000000  0.5461810000000 1.0
C      1  0.4391740000000  0.4373890000000  0.5062820000000 1.0
C      1  0.4643220000000  0.4234480000000  0.5046950000000 1.0
C      1  0.5814520000000  0.4573710000000  0.5870270000000 1.0
C      1  0.5744680000000  0.5640590000000  0.4301850000000 1.0
C      1  0.5700410000000  0.5849320000000  0.4463240000000 1.0
C      1  0.5072730000000  0.5310960000000  0.5223890000000 1.0
C      1  0.4110490000000  0.4715660000000  0.4793890000000 1.0
C      1  0.5169520000000  0.5105240000000  0.5038600000000 1.0
C      1  0.5725360000000  0.4339190000000  0.5768780000000 1.0
C      1  0.5359300000000  0.5318530000000  0.4175610000000 1.0
C      1  0.5011110000000  0.4553220000000  0.5185950000000 1.0
C      1  0.4404290000000  0.4949660000000  0.5212300000000 1.0
C      1  0.5495090000000  0.5967500000000  0.4587920000000 1.0
C      1  0.5078250000000  0.5865790000000  0.4375790000000 1.0
C      1  0.4250070000000  0.4488610000000  0.4843420000000 1.0
C      1  0.5004330000000  0.5179970000000  0.5695880000000 1.0
C      1  0.4292540000000  0.4743780000000  0.5370920000000 1.0
C      1  0.4669140000000  0.5017260000000  0.4105550000000 1.0
C      1  0.4832200000000  0.4758900000000  0.5285180000000 1.0
C      1  0.5040760000000  0.5399150000000  0.3579020000000 1.0
C      1  0.4667420000000  0.4901050000000  0.5105720000000 1.0
C      1  0.5094520000000  0.5902390000000  0.4859910000000 1.0
C      1  0.4769370000000  0.4467790000000  0.5660760000000 1.0
C      1  0.5399040000000  0.5037630000000  0.5446580000000 1.0
C      1  0.5785210000000  0.5061260000000  0.5929430000000 1.0
C      1  0.4304700000000  0.4479250000000  0.5312610000000 1.0
C      1  0.5038030000000  0.5025010000000  0.4805630000000 1.0
C      1  0.4245740000000  0.5123260000000  0.5054770000000 1.0
C      1  0.4077340000000  0.4971850000000  0.4879610000000 1.0
C      1  0.5060370000000  0.5697890000000  0.4169430000000 1.0
C      1  0.4804610000000  0.5144850000000  0.3915690000000 1.0
C      1  0.5516940000000  0.4821190000000  0.5592180000000 1.0
C      1  0.4758770000000  0.4974220000000  0.4836620000000 1.0
C      1  0.4860520000000  0.4307050000000  0.5220560000000 1.0
C      1  0.4791330000000  0.4738450000000  0.5572090000000 1.0
C      1  0.4882840000000  0.5511490000000  0.5152080000000 1.0
END
