TITL C-2323482-8828-363 -2.6367871192598e-07 125000 -355.840307363252 0 0 60 (C1) n - 1
REM
REM in /home/bkarasulu/CARBON/AIRSS/Generating-Clusters/LCBOP/Higher-Symm/Only-C60/SD-CG/FIRE-HFTN
REM
REM
REM
REM
REM
REM ./C.cell (50c204cfd26239f34c78669fe23a5462)
REM
REM compiler GCC version 9.2.1 20190827 (Red Hat 9.2.1-1)
REM options -cpp -mtune=generic -march=x86-64 -g -O0 -fpre-include=/usr/include/finclude/math-vector-fortran.h
REM seed -1918518855 307116119 -2104678695 418472978 1574611848 -1131932081 -97859432 1734886782 -1333989374 1921683739 -930318691 -1681527983 1165519041 839982483 1886492949 680784957 966322265 794656044 844262497 588459744 999761473 -622058122 1153389997 -946698453 -790880025 -767983287 -1398977144 610360266 -542451727 -1462233209 876074019 -1302716818 68641685
REM
CELL 1.54180   50.00000   50.00000   50.00000   90.00000   90.00000   90.00000
LATT -1
SFAC C  
C      1  0.4275430000000  0.4889940000000  0.4596510000000 1.0
C      1  0.5732030000000  0.5200790000000  0.4613890000000 1.0
C      1  0.5194240000000  0.5753970000000  0.5016970000000 1.0
C      1  0.4795440000000  0.4229760000000  0.5002410000000 1.0
C      1  0.4896080000000  0.5366090000000  0.4519340000000 1.0
C      1  0.5102720000000  0.4610980000000  0.4525300000000 1.0
C      1  0.4381650000000  0.4450270000000  0.5155790000000 1.0
C      1  0.5565780000000  0.5482930000000  0.5203120000000 1.0
C      1  0.4886860000000  0.4775140000000  0.5039740000000 1.0
C      1  0.5067690000000  0.5232000000000  0.4995800000000 1.0
C      1  0.5298760000000  0.5867740000000  0.5265540000000 1.0
C      1  0.4671640000000  0.4086140000000  0.5224420000000 1.0
C      1  0.4690190000000  0.4797210000000  0.4397040000000 1.0
C      1  0.5309200000000  0.5174590000000  0.4379290000000 1.0
C      1  0.4676080000000  0.4684330000000  0.4860650000000 1.0
C      1  0.5295390000000  0.5318730000000  0.4830760000000 1.0
C      1  0.5431420000000  0.4870690000000  0.5740570000000 1.0
C      1  0.4858590000000  0.5276970000000  0.5821020000000 1.0
C      1  0.4339360000000  0.5558020000000  0.4468920000000 1.0
C      1  0.5612310000000  0.4633430000000  0.4825690000000 1.0
C      1  0.4854420000000  0.4850980000000  0.5324760000000 1.0
C      1  0.5142220000000  0.5205330000000  0.5272190000000 1.0
C      1  0.4501340000000  0.5187870000000  0.5012390000000 1.0
C      1  0.5449300000000  0.4800060000000  0.4991070000000 1.0
C      1  0.4915310000000  0.5690330000000  0.4956480000000 1.0
C      1  0.5071610000000  0.4299910000000  0.4960980000000 1.0
C      1  0.5505040000000  0.5711880000000  0.5372060000000 1.0
C      1  0.4439630000000  0.4213970000000  0.5312660000000 1.0
C      1  0.4706950000000  0.5270840000000  0.5581890000000 1.0
C      1  0.5368300000000  0.4802830000000  0.5458970000000 1.0
C      1  0.5079980000000  0.5181950000000  0.5939160000000 1.0
C      1  0.5298690000000  0.5028150000000  0.5915560000000 1.0
C      1  0.4187950000000  0.5348220000000  0.4391470000000 1.0
C      1  0.5851550000000  0.4743680000000  0.4729000000000 1.0
C      1  0.5033830000000  0.5127770000000  0.4414590000000 1.0
C      1  0.4964660000000  0.4844620000000  0.4421300000000 1.0
C      1  0.4693870000000  0.5502510000000  0.5416170000000 1.0
C      1  0.5323610000000  0.4510020000000  0.5393010000000 1.0
C      1  0.4534110000000  0.4785080000000  0.4629750000000 1.0
C      1  0.5454930000000  0.5239180000000  0.4608420000000 1.0
C      1  0.4343610000000  0.4973370000000  0.5119870000000 1.0
C      1  0.5544920000000  0.4931430000000  0.5236450000000 1.0
C      1  0.4785930000000  0.5186080000000  0.4958290000000 1.0
C      1  0.5163320000000  0.4793600000000  0.4954850000000 1.0
C      1  0.4663860000000  0.5007530000000  0.5471420000000 1.0
C      1  0.5112000000000  0.4956540000000  0.5404850000000 1.0
C      1  0.5221840000000  0.4342070000000  0.5205890000000 1.0
C      1  0.4760990000000  0.5651350000000  0.5200490000000 1.0
C      1  0.5631380000000  0.5207240000000  0.5249700000000 1.0
C      1  0.4284910000000  0.4715680000000  0.5187490000000 1.0
C      1  0.4496110000000  0.5574140000000  0.4703130000000 1.0
C      1  0.5489440000000  0.4398030000000  0.4721030000000 1.0
C      1  0.5200050000000  0.4409100000000  0.4713470000000 1.0
C      1  0.4789390000000  0.5575130000000  0.4702230000000 1.0
C      1  0.5396460000000  0.5544540000000  0.4965500000000 1.0
C      1  0.4589070000000  0.4431840000000  0.4945910000000 1.0
C      1  0.5900660000000  0.4994900000000  0.4646850000000 1.0
C      1  0.4154790000000  0.5093160000000  0.4469020000000 1.0
C      1  0.4383730000000  0.5429460000000  0.4922880000000 1.0
C      1  0.5629370000000  0.4179890000000  0.4636050000000 1.0
END
