TITL C-2323492-8884-622 0.00159642329391172 125000 -354.648343698444 0 0 60 (C1) n - 1
REM
REM in /home/bkarasulu/CARBON/AIRSS/Generating-Clusters/LCBOP/Higher-Symm/Only-C60/SD-CG/FIRE-HFTN
REM
REM
REM
REM
REM
REM ./C.cell (50c204cfd26239f34c78669fe23a5462)
REM
REM compiler GCC version 9.2.1 20190827 (Red Hat 9.2.1-1)
REM options -cpp -mtune=generic -march=x86-64 -g -O0 -fpre-include=/usr/include/finclude/math-vector-fortran.h
REM seed -185489214 864820893 -1267495861 953951190 -1947968735 370643155 -297843891 1726339750 -966409442 -1571567527 -606853237 173611583 275711436 -626801846 -606369473 -45922685 -2003551596 353743569 -425545615 2065842274 -2104440262 -803270987 -1972335355 -1966207247 833583656 -1015026545 -1690406253 -376493066 367180216 685770649 -2015859367 -1575614721 2099251737
REM
CELL 1.54180   50.00000   50.00000   50.00000   90.00000   90.00000   90.00000
LATT -1
SFAC C  
C      1  0.5094990000000  0.5180200000000  0.4246170000000 1.0
C      1  0.5515880000000  0.4361080000000  0.5354580000000 1.0
C      1  0.5221350000000  0.5356430000000  0.5155580000000 1.0
C      1  0.4530570000000  0.5167770000000  0.4838150000000 1.0
C      1  0.4995230000000  0.5713650000000  0.4865730000000 1.0
C      1  0.4230420000000  0.4594160000000  0.4956590000000 1.0
C      1  0.4869650000000  0.4675050000000  0.5517080000000 1.0
C      1  0.4919600000000  0.4942430000000  0.5375550000000 1.0
C      1  0.5564140000000  0.4793860000000  0.4645980000000 1.0
C      1  0.5577190000000  0.5265850000000  0.4889590000000 1.0
C      1  0.5640220000000  0.4849960000000  0.5095280000000 1.0
C      1  0.4648890000000  0.5051790000000  0.5276040000000 1.0
C      1  0.5006230000000  0.5187220000000  0.5553310000000 1.0
C      1  0.4910310000000  0.5636190000000  0.5373990000000 1.0
C      1  0.5086010000000  0.5162790000000  0.4999020000000 1.0
C      1  0.4793330000000  0.5280040000000  0.4244350000000 1.0
C      1  0.5153730000000  0.5624110000000  0.4394570000000 1.0
C      1  0.4884680000000  0.5519090000000  0.4665150000000 1.0
C      1  0.4706260000000  0.4235500000000  0.4943930000000 1.0
C      1  0.4561740000000  0.5526570000000  0.5440520000000 1.0
C      1  0.4292060000000  0.4515310000000  0.4705300000000 1.0
C      1  0.4305190000000  0.4777840000000  0.5157110000000 1.0
C      1  0.4717950000000  0.5477790000000  0.4418450000000 1.0
C      1  0.5411310000000  0.5489520000000  0.4981790000000 1.0
C      1  0.5398580000000  0.4353530000000  0.4843550000000 1.0
C      1  0.5373370000000  0.4527890000000  0.5552770000000 1.0
C      1  0.5077130000000  0.4885050000000  0.5111710000000 1.0
C      1  0.4889200000000  0.4417380000000  0.5030440000000 1.0
C      1  0.5694930000000  0.5129050000000  0.5129870000000 1.0
C      1  0.5216500000000  0.5461670000000  0.4214200000000 1.0
C      1  0.4749240000000  0.5056760000000  0.4695380000000 1.0
C      1  0.4456240000000  0.5061620000000  0.5501930000000 1.0
C      1  0.4805020000000  0.4780890000000  0.4695940000000 1.0
C      1  0.5283920000000  0.5718660000000  0.4875550000000 1.0
C      1  0.5611530000000  0.5004000000000  0.5603790000000 1.0
C      1  0.4556370000000  0.5445390000000  0.4873410000000 1.0
C      1  0.5209990000000  0.5134160000000  0.4534590000000 1.0
C      1  0.5700120000000  0.5177070000000  0.5411340000000 1.0
C      1  0.5363400000000  0.4797820000000  0.5147090000000 1.0
C      1  0.5754070000000  0.4752390000000  0.4858270000000 1.0
C      1  0.4801990000000  0.5255740000000  0.5748330000000 1.0
C      1  0.4723980000000  0.4639220000000  0.4463640000000 1.0
C      1  0.5092830000000  0.5419400000000  0.5397980000000 1.0
C      1  0.4845870000000  0.5731870000000  0.5108640000000 1.0
C      1  0.5492750000000  0.4765130000000  0.5652800000000 1.0
C      1  0.4585930000000  0.4616310000000  0.5553690000000 1.0
C      1  0.4544810000000  0.5308310000000  0.5623410000000 1.0
C      1  0.5419720000000  0.4542410000000  0.4644850000000 1.0
C      1  0.5086690000000  0.4489770000000  0.5480260000000 1.0
C      1  0.4470050000000  0.4518380000000  0.4500490000000 1.0
C      1  0.4578300000000  0.5610500000000  0.5093130000000 1.0
C      1  0.4921410000000  0.4684920000000  0.4935870000000 1.0
C      1  0.4995050000000  0.5228630000000  0.4722540000000 1.0
C      1  0.5353980000000  0.4297930000000  0.5120310000000 1.0
C      1  0.5468750000000  0.5077270000000  0.4655640000000 1.0
C      1  0.4358060000000  0.4780510000000  0.5463180000000 1.0
C      1  0.4881420000000  0.4700010000000  0.4234120000000 1.0
C      1  0.5051010000000  0.4896680000000  0.4147450000000 1.0
C      1  0.4468710000000  0.5004890000000  0.5057220000000 1.0
C      1  0.5082140000000  0.4344610000000  0.5222780000000 1.0
END
