TITL C-2323479-8056-456 -49416.7462396301 125000 -346.29983674631 0 0 60 (C2) n - 1
REM
REM in /home/bkarasulu/CARBON/AIRSS/Generating-Clusters/LCBOP/Higher-Symm/Only-C60/SD-CG/FIRE-HFTN
REM
REM
REM
REM
REM
REM ./C.cell (50c204cfd26239f34c78669fe23a5462)
REM
REM compiler GCC version 9.2.1 20190827 (Red Hat 9.2.1-1)
REM options -cpp -mtune=generic -march=x86-64 -g -O0 -fpre-include=/usr/include/finclude/math-vector-fortran.h
REM seed 771474710 1735398386 180328691 -1528222819 501074857 2126097278 1600384709 506573099 -1664245263 -1682960219 1141304826 1132870425 475850670 -1289483762 1973055522 1419357375 -1611951924 -1325279978 2115815218 488961669 -1000204288 -1793279674 -1921607442 -1351442269 -481666947 1170386266 532304293 -1505526980 1663229060 1475782691 -18099400 300891184 -1257410639
REM
CELL 1.54180   50.00000   50.00000   50.00000   90.00000   90.00000   90.00000
LATT -1
SFAC C  
C      1  0.6015320000000  0.5146950000000  0.4730140000000 1.0
C      1  0.3957360000000  0.4741180000000  0.4829490000000 1.0
C      1  0.6015690000000  0.4854040000000  0.5269570000000 1.0
C      1  0.3957290000000  0.5258080000000  0.5170030000000 1.0
C      1  0.5525440000000  0.4643180000000  0.4799290000000 1.0
C      1  0.4410410000000  0.4787120000000  0.5396540000000 1.0
C      1  0.5525200000000  0.5357400000000  0.5200830000000 1.0
C      1  0.4410450000000  0.5212060000000  0.4603120000000 1.0
C      1  0.4959710000000  0.5739770000000  0.4817250000000 1.0
C      1  0.5045660000000  0.4842020000000  0.4214740000000 1.0
C      1  0.4960620000000  0.4260280000000  0.5182900000000 1.0
C      1  0.5045530000000  0.5158110000000  0.5785370000000 1.0
C      1  0.5077620000000  0.4821850000000  0.5144410000000 1.0
C      1  0.4961020000000  0.5128320000000  0.5174890000000 1.0
C      1  0.5077440000000  0.5178290000000  0.4855660000000 1.0
C      1  0.4961310000000  0.4871600000000  0.4825250000000 1.0
C      1  0.4823260000000  0.4375020000000  0.4964070000000 1.0
C      1  0.5190120000000  0.4933270000000  0.5696020000000 1.0
C      1  0.4822380000000  0.5624770000000  0.5035950000000 1.0
C      1  0.5189940000000  0.5067030000000  0.4304140000000 1.0
C      1  0.5108530000000  0.4667920000000  0.5744470000000 1.0
C      1  0.4907500000000  0.5672120000000  0.5299440000000 1.0
C      1  0.5108040000000  0.5332300000000  0.4255730000000 1.0
C      1  0.4908600000000  0.4327760000000  0.4700640000000 1.0
C      1  0.4955040000000  0.4421420000000  0.4454260000000 1.0
C      1  0.5082980000000  0.4428270000000  0.5626600000000 1.0
C      1  0.4954130000000  0.5578520000000  0.5545800000000 1.0
C      1  0.5082280000000  0.5571940000000  0.4373580000000 1.0
C      1  0.4409950000000  0.4927990000000  0.4701150000000 1.0
C      1  0.5575400000000  0.4690210000000  0.5091830000000 1.0
C      1  0.4409770000000  0.5071240000000  0.5298670000000 1.0
C      1  0.5575080000000  0.5310470000000  0.4908270000000 1.0
C      1  0.5373830000000  0.4971950000000  0.5479560000000 1.0
C      1  0.4630510000000  0.5417260000000  0.4981130000000 1.0
C      1  0.5373730000000  0.5028530000000  0.4520560000000 1.0
C      1  0.4631010000000  0.4582230000000  0.5018720000000 1.0
C      1  0.4872340000000  0.4631840000000  0.4285710000000 1.0
C      1  0.5148250000000  0.4285080000000  0.5391980000000 1.0
C      1  0.4871810000000  0.5367930000000  0.5714330000000 1.0
C      1  0.5147400000000  0.5715190000000  0.4608200000000 1.0
C      1  0.4162870000000  0.4912750000000  0.4884360000000 1.0
C      1  0.5808620000000  0.4889520000000  0.5093260000000 1.0
C      1  0.4162790000000  0.5086440000000  0.5115330000000 1.0
C      1  0.5808460000000  0.5111370000000  0.4906690000000 1.0
C      1  0.4652190000000  0.5129220000000  0.5108500000000 1.0
C      1  0.5335220000000  0.5192030000000  0.4755930000000 1.0
C      1  0.4652410000000  0.4870290000000  0.4891410000000 1.0
C      1  0.5335440000000  0.4808430000000  0.5244190000000 1.0
C      1  0.4593770000000  0.4673890000000  0.4282100000000 1.0
C      1  0.5423700000000  0.4260640000000  0.5331280000000 1.0
C      1  0.4593320000000  0.5325340000000  0.5717860000000 1.0
C      1  0.5422820000000  0.5739910000000  0.4668920000000 1.0
C      1  0.4478210000000  0.5428850000000  0.4745460000000 1.0
C      1  0.5492020000000  0.4778770000000  0.4570800000000 1.0
C      1  0.4478480000000  0.4570420000000  0.5254220000000 1.0
C      1  0.5491950000000  0.5221800000000  0.5429340000000 1.0
C      1  0.5611520000000  0.4424830000000  0.5228050000000 1.0
C      1  0.4413530000000  0.5251210000000  0.5533200000000 1.0
C      1  0.5610850000000  0.5575910000000  0.4772090000000 1.0
C      1  0.4413870000000  0.4747880000000  0.4466710000000 1.0
END
