TITL C-2323482-8828-28 5.18094201332625e-05 125000 -373.30866265176 0 0 60 (C2v) n - 1
REM
REM in /home/bkarasulu/CARBON/AIRSS/Generating-Clusters/LCBOP/Higher-Symm/Only-C60/SD-CG/FIRE-HFTN
REM
REM
REM
REM
REM
REM ./C.cell (50c204cfd26239f34c78669fe23a5462)
REM
REM compiler GCC version 9.2.1 20190827 (Red Hat 9.2.1-1)
REM options -cpp -mtune=generic -march=x86-64 -g -O0 -fpre-include=/usr/include/finclude/math-vector-fortran.h
REM seed -1321812115 184958098 539964988 292670795 2039436946 2107861845 -185446237 1056463769 -206427016 -1621424064 -1488771278 1049623707 155236264 -1475904910 433225272 411985237 -1575620346 997664633 -1461770643 -2070946610 -351927229 1229546513 -267404721 1418322463 964716878 -143797104 1513782960 110665231 848321907 -715961102 -493326056 1744892043 2107986987
REM
CELL 1.54180   50.00000   50.00000   50.00000   90.00000   90.00000   90.00000
LATT -1
SFAC C  
C      1  0.4636440000000  0.4551940000000  0.4024430000000 1.0
C      1  0.5363550000000  0.4553230000000  0.5976160000000 1.0
C      1  0.5363550000000  0.4551930000000  0.4024430000000 1.0
C      1  0.4636450000000  0.4553240000000  0.5976170000000 1.0
C      1  0.5141780000000  0.5085800000000  0.5258820000000 1.0
C      1  0.4858220000000  0.5085460000000  0.4741070000000 1.0
C      1  0.4858220000000  0.5085810000000  0.5258820000000 1.0
C      1  0.5141780000000  0.5085460000000  0.4741060000000 1.0
C      1  0.5477890000000  0.4549330000000  0.4266550000000 1.0
C      1  0.4522100000000  0.4550320000000  0.5734050000000 1.0
C      1  0.4522090000000  0.4549340000000  0.4266550000000 1.0
C      1  0.5477900000000  0.4550310000000  0.5734050000000 1.0
C      1  0.5145930000000  0.5587210000000  0.5272120000000 1.0
C      1  0.4854080000000  0.5586850000000  0.4727090000000 1.0
C      1  0.4854080000000  0.5587220000000  0.5272120000000 1.0
C      1  0.5145930000000  0.5586850000000  0.4727090000000 1.0
C      1  0.5489090000000  0.4738690000000  0.4728760000000 1.0
C      1  0.4510900000000  0.4739060000000  0.5271590000000 1.0
C      1  0.4510900000000  0.4738700000000  0.4728760000000 1.0
C      1  0.5489090000000  0.4739050000000  0.5271590000000 1.0
C      1  0.5230280000000  0.5333330000000  0.5145180000000 1.0
C      1  0.4769730000000  0.5333140000000  0.4854380000000 1.0
C      1  0.4769730000000  0.5333340000000  0.5145180000000 1.0
C      1  0.5230280000000  0.5333140000000  0.4854380000000 1.0
C      1  0.5799860000000  0.5125540000000  0.4731640000000 1.0
C      1  0.4200140000000  0.5125920000000  0.5268200000000 1.0
C      1  0.4200140000000  0.5125560000000  0.4731640000000 1.0
C      1  0.5799870000000  0.5125900000000  0.5268190000000 1.0
C      1  0.4605310000000  0.5730190000000  0.4719700000000 1.0
C      1  0.5394700000000  0.5730550000000  0.5279330000000 1.0
C      1  0.5394700000000  0.5730180000000  0.4719700000000 1.0
C      1  0.4605310000000  0.5730560000000  0.5279330000000 1.0
C      1  0.4604160000000  0.4552110000000  0.5465550000000 1.0
C      1  0.5395830000000  0.4551480000000  0.4535050000000 1.0
C      1  0.5395830000000  0.4552110000000  0.5465550000000 1.0
C      1  0.4604160000000  0.4551490000000  0.4535050000000 1.0
C      1  0.4865170000000  0.4438830000000  0.5417880000000 1.0
C      1  0.5134820000000  0.4438270000000  0.4582870000000 1.0
C      1  0.5134830000000  0.4438830000000  0.5417880000000 1.0
C      1  0.4865160000000  0.4438270000000  0.4582870000000 1.0
C      1  0.4236620000000  0.5394380000000  0.4732180000000 1.0
C      1  0.5763390000000  0.5394720000000  0.5267300000000 1.0
C      1  0.5763390000000  0.5394360000000  0.4732170000000 1.0
C      1  0.4236620000000  0.5394740000000  0.5267300000000 1.0
C      1  0.4866560000000  0.4555250000000  0.6111700000000 1.0
C      1  0.5133440000000  0.4553760000000  0.3888900000000 1.0
C      1  0.5133440000000  0.4555250000000  0.6111700000000 1.0
C      1  0.4866550000000  0.4553760000000  0.3888900000000 1.0
C      1  0.4371590000000  0.5617720000000  0.4852660000000 1.0
C      1  0.5628420000000  0.5617900000000  0.5146510000000 1.0
C      1  0.5628420000000  0.5617700000000  0.4852660000000 1.0
C      1  0.4371590000000  0.5617910000000  0.5146520000000 1.0
C      1  0.4279580000000  0.4875940000000  0.5150060000000 1.0
C      1  0.5720410000000  0.4875720000000  0.4850110000000 1.0
C      1  0.5720410000000  0.4875920000000  0.5150050000000 1.0
C      1  0.4279580000000  0.4875740000000  0.4850110000000 1.0
C      1  0.5267720000000  0.4863760000000  0.5142110000000 1.0
C      1  0.4732270000000  0.4863580000000  0.4858070000000 1.0
C      1  0.4732270000000  0.4863770000000  0.5142120000000 1.0
C      1  0.5267720000000  0.4863570000000  0.4858070000000 1.0
END
