TITL C-2323477-5056-553 -2.38931420734386e-07 125000 -369.956589126959 0 0 60 (C1) n - 1
REM
REM in /home/bkarasulu/CARBON/AIRSS/Generating-Clusters/LCBOP/Higher-Symm/Only-C60/SD-CG/FIRE-HFTN
REM
REM
REM
REM
REM
REM ./C.cell (50c204cfd26239f34c78669fe23a5462)
REM
REM compiler GCC version 9.2.1 20190827 (Red Hat 9.2.1-1)
REM options -cpp -mtune=generic -march=x86-64 -g -O0 -fpre-include=/usr/include/finclude/math-vector-fortran.h
REM seed 210259710 -345310050 1868300617 -1171158693 1562762699 -239967767 542278528 -1392972235 1979767194 1941713935 -120183975 2031608992 -112104782 -688685452 389384673 1177352371 1633627953 -332864707 -239908128 1339161260 519928721 2064126416 -2132574151 608515086 -842863188 831997438 -700961322 785334167 -586164658 -1591676833 -60882588 25945430 -113420029
REM
CELL 1.54180   50.00000   50.00000   50.00000   90.00000   90.00000   90.00000
LATT -1
SFAC C  
C      1  0.5691290000000  0.4672910000000  0.4950950000000 1.0
C      1  0.4733890000000  0.4914320000000  0.5680020000000 1.0
C      1  0.4883740000000  0.5711680000000  0.4698740000000 1.0
C      1  0.4275930000000  0.5301190000000  0.4915750000000 1.0
C      1  0.5700440000000  0.5287980000000  0.5087700000000 1.0
C      1  0.4344940000000  0.4731660000000  0.5061160000000 1.0
C      1  0.5294810000000  0.5085680000000  0.5682810000000 1.0
C      1  0.4697440000000  0.5068220000000  0.4318020000000 1.0
C      1  0.5284310000000  0.4910400000000  0.4370500000000 1.0
C      1  0.5092450000000  0.4270030000000  0.4708100000000 1.0
C      1  0.4922250000000  0.4320190000000  0.5273760000000 1.0
C      1  0.5049730000000  0.5699250000000  0.5304880000000 1.0
C      1  0.5027210000000  0.5448050000000  0.5451460000000 1.0
C      1  0.5537980000000  0.5541270000000  0.5115160000000 1.0
C      1  0.5462420000000  0.5098570000000  0.5448150000000 1.0
C      1  0.4970980000000  0.4561390000000  0.5419790000000 1.0
C      1  0.5074920000000  0.4519600000000  0.4557390000000 1.0
C      1  0.4855490000000  0.5553770000000  0.4453790000000 1.0
C      1  0.4586360000000  0.4588470000000  0.4988330000000 1.0
C      1  0.5433460000000  0.4536500000000  0.4968720000000 1.0
C      1  0.4516280000000  0.5468140000000  0.4900610000000 1.0
C      1  0.4622990000000  0.4958280000000  0.5412690000000 1.0
C      1  0.5549640000000  0.4843100000000  0.4471190000000 1.0
C      1  0.4495920000000  0.5052110000000  0.4537060000000 1.0
C      1  0.5068450000000  0.5285940000000  0.5691830000000 1.0
C      1  0.5273270000000  0.5679300000000  0.5098100000000 1.0
C      1  0.5723730000000  0.5075620000000  0.5312790000000 1.0
C      1  0.4951150000000  0.4706220000000  0.5674610000000 1.0
C      1  0.5080590000000  0.4701330000000  0.4329660000000 1.0
C      1  0.4907180000000  0.5278660000000  0.4367320000000 1.0
C      1  0.4723900000000  0.4336740000000  0.5050300000000 1.0
C      1  0.5291000000000  0.4282630000000  0.4936500000000 1.0
C      1  0.4668860000000  0.5719160000000  0.4914350000000 1.0
C      1  0.4378070000000  0.4943130000000  0.5265290000000 1.0
C      1  0.5697700000000  0.4867130000000  0.4719170000000 1.0
C      1  0.4246710000000  0.5083930000000  0.4697980000000 1.0
C      1  0.5297030000000  0.5139450000000  0.5220360000000 1.0
C      1  0.5021780000000  0.5248990000000  0.5221070000000 1.0
C      1  0.5341440000000  0.5029440000000  0.4946180000000 1.0
C      1  0.4865350000000  0.5000030000000  0.5259040000000 1.0
C      1  0.5180530000000  0.5179510000000  0.4751370000000 1.0
C      1  0.4676090000000  0.5021670000000  0.4760510000000 1.0
C      1  0.5035110000000  0.4767510000000  0.5229320000000 1.0
C      1  0.5014630000000  0.4699320000000  0.4774320000000 1.0
C      1  0.5003700000000  0.5338660000000  0.4929480000000 1.0
C      1  0.4751280000000  0.4764670000000  0.4830290000000 1.0
C      1  0.5218230000000  0.4753340000000  0.4982920000000 1.0
C      1  0.4727050000000  0.5270580000000  0.4872370000000 1.0
C      1  0.5156210000000  0.5154890000000  0.4471050000000 1.0
C      1  0.5166690000000  0.4189430000000  0.5183110000000 1.0
C      1  0.4243490000000  0.5186110000000  0.5182810000000 1.0
C      1  0.4826610000000  0.4816260000000  0.4236190000000 1.0
C      1  0.5203270000000  0.4821760000000  0.5766090000000 1.0
C      1  0.4827900000000  0.5162200000000  0.5799750000000 1.0
C      1  0.4793910000000  0.5791050000000  0.5176530000000 1.0
C      1  0.5110300000000  0.5619900000000  0.4861080000000 1.0
C      1  0.4828790000000  0.4194380000000  0.4814910000000 1.0
C      1  0.5787810000000  0.4807860000000  0.5199960000000 1.0
C      1  0.4181390000000  0.4828690000000  0.4835340000000 1.0
C      1  0.5625920000000  0.5111790000000  0.4861330000000 1.0
END
