TITL C-2323487-9546-213 -3473.54528672953 125000 -355.655083063816 0 0 60 (C1) n - 1
REM
REM in /home/bkarasulu/CARBON/AIRSS/Generating-Clusters/LCBOP/Higher-Symm/Only-C60/SD-CG/FIRE-HFTN
REM
REM
REM
REM
REM
REM ./C.cell (50c204cfd26239f34c78669fe23a5462)
REM
REM compiler GCC version 9.2.1 20190827 (Red Hat 9.2.1-1)
REM options -cpp -mtune=generic -march=x86-64 -g -O0 -fpre-include=/usr/include/finclude/math-vector-fortran.h
REM seed -336186558 142890087 -1517768553 -1811607871 -139311146 155834283 574516472 161531180 1045280366 -1598917982 -773605706 -1304202285 929907872 2063439545 -939263316 1268677764 -682547812 -208950521 1428316945 -848985320 247528397 717989006 170466744 784011022 -1567489796 181671940 -1418673379 -1954189876 -1830259706 -2026803268 260126304 139064865 -442175750
REM
CELL 1.54180   50.00000   50.00000   50.00000   90.00000   90.00000   90.00000
LATT -1
SFAC C  
C      1  0.5081710000000  0.5295400000000  0.4308790000000 1.0
C      1  0.4368110000000  0.5296870000000  0.5287010000000 1.0
C      1  0.5543900000000  0.5304320000000  0.5440470000000 1.0
C      1  0.5065900000000  0.4688440000000  0.4311450000000 1.0
C      1  0.4344900000000  0.4690760000000  0.5311640000000 1.0
C      1  0.5584000000000  0.4698770000000  0.5436790000000 1.0
C      1  0.4824340000000  0.4850070000000  0.4286320000000 1.0
C      1  0.4501480000000  0.4850030000000  0.5498130000000 1.0
C      1  0.5725020000000  0.4864750000000  0.5241830000000 1.0
C      1  0.4831590000000  0.5147560000000  0.4287090000000 1.0
C      1  0.4507720000000  0.5145470000000  0.5492400000000 1.0
C      1  0.5691570000000  0.5160550000000  0.5236150000000 1.0
C      1  0.4450730000000  0.4426860000000  0.5234360000000 1.0
C      1  0.5468010000000  0.4440060000000  0.5351390000000 1.0
C      1  0.5055650000000  0.4431040000000  0.4457280000000 1.0
C      1  0.4486170000000  0.5552950000000  0.5206240000000 1.0
C      1  0.5414410000000  0.5556710000000  0.5364950000000 1.0
C      1  0.5081520000000  0.5549870000000  0.4458850000000 1.0
C      1  0.4920740000000  0.5721980000000  0.5475110000000 1.0
C      1  0.5415230000000  0.5708710000000  0.4844790000000 1.0
C      1  0.4636500000000  0.5712110000000  0.4717120000000 1.0
C      1  0.4965810000000  0.4401090000000  0.5282710000000 1.0
C      1  0.5347430000000  0.4394420000000  0.4867630000000 1.0
C      1  0.4665040000000  0.4407500000000  0.4800270000000 1.0
C      1  0.5040030000000  0.5291040000000  0.5151850000000 1.0
C      1  0.5175940000000  0.5226060000000  0.4832050000000 1.0
C      1  0.4814230000000  0.5263180000000  0.4891050000000 1.0
C      1  0.4985270000000  0.4663830000000  0.5103740000000 1.0
C      1  0.5239230000000  0.4659930000000  0.4931540000000 1.0
C      1  0.4754480000000  0.4671360000000  0.4897160000000 1.0
C      1  0.5515210000000  0.4319890000000  0.5088670000000 1.0
C      1  0.4806910000000  0.4330250000000  0.4566690000000 1.0
C      1  0.4696910000000  0.4331510000000  0.5353540000000 1.0
C      1  0.5464000000000  0.5675660000000  0.5108190000000 1.0
C      1  0.4834700000000  0.5674580000000  0.4537330000000 1.0
C      1  0.4670520000000  0.5684380000000  0.5382120000000 1.0
C      1  0.5298170000000  0.4848860000000  0.4265630000000 1.0
C      1  0.4171020000000  0.4857880000000  0.5158340000000 1.0
C      1  0.5492340000000  0.4858320000000  0.5655790000000 1.0
C      1  0.5304790000000  0.5122830000000  0.4261850000000 1.0
C      1  0.4183790000000  0.5131290000000  0.5145550000000 1.0
C      1  0.5476510000000  0.5131780000000  0.5657850000000 1.0
C      1  0.4494170000000  0.5650360000000  0.4938260000000 1.0
C      1  0.5182300000000  0.5659370000000  0.5494350000000 1.0
C      1  0.5306540000000  0.5648110000000  0.4605110000000 1.0
C      1  0.4442830000000  0.4332080000000  0.4961770000000 1.0
C      1  0.5204500000000  0.4362710000000  0.5435900000000 1.0
C      1  0.5282770000000  0.4327100000000  0.4600620000000 1.0
C      1  0.4608210000000  0.4763320000000  0.4452650000000 1.0
C      1  0.4769660000000  0.4757940000000  0.5533690000000 1.0
C      1  0.5700990000000  0.4767300000000  0.4974140000000 1.0
C      1  0.4623410000000  0.5245470000000  0.4459000000000 1.0
C      1  0.4774420000000  0.5237080000000  0.5545280000000 1.0
C      1  0.5639180000000  0.5249530000000  0.4967770000000 1.0
C      1  0.4957510000000  0.4860290000000  0.5336370000000 1.0
C      1  0.5447580000000  0.4839940000000  0.4858430000000 1.0
C      1  0.4627110000000  0.4859660000000  0.4725160000000 1.0
C      1  0.4975310000000  0.5140340000000  0.5366260000000 1.0
C      1  0.5424600000000  0.5118790000000  0.4831900000000 1.0
C      1  0.4637380000000  0.5141630000000  0.4725630000000 1.0
END
