TITL C-2323488-8613-177 0.000367454283624913 125000 -361.483229703802 0 0 60 (C1) n - 1
REM
REM in /home/bkarasulu/CARBON/AIRSS/Generating-Clusters/LCBOP/Higher-Symm/Only-C60/SD-CG/FIRE-HFTN
REM
REM
REM
REM
REM
REM ./C.cell (50c204cfd26239f34c78669fe23a5462)
REM
REM compiler GCC version 9.2.1 20190827 (Red Hat 9.2.1-1)
REM options -cpp -mtune=generic -march=x86-64 -g -O0 -fpre-include=/usr/include/finclude/math-vector-fortran.h
REM seed -1343327776 -578416993 345385796 -1149563606 500128699 -290732490 -474524848 -210461675 1138953665 -546601237 -803026992 -971023784 1104788522 1886056003 1301943790 82966758 -758719053 -1089475710 -1432911285 -710177246 286987074 -924885761 -1938117688 -849827433 -2132870872 -686425873 -820660489 -2073549963 -1810965753 2083573929 -541613935 -589915649 1655652913
REM
CELL 1.54180   50.00000   50.00000   50.00000   90.00000   90.00000   90.00000
LATT -1
SFAC C  
C      1  0.5273850000000  0.4725140000000  0.4891340000000 1.0
C      1  0.5301830000000  0.5272310000000  0.5041310000000 1.0
C      1  0.5502770000000  0.4976490000000  0.5869050000000 1.0
C      1  0.5542520000000  0.5085220000000  0.4170490000000 1.0
C      1  0.5423650000000  0.5343500000000  0.4753770000000 1.0
C      1  0.5457940000000  0.4630260000000  0.5384780000000 1.0
C      1  0.5061390000000  0.4310690000000  0.5188980000000 1.0
C      1  0.5041180000000  0.5692280000000  0.4803680000000 1.0
C      1  0.5522730000000  0.4911720000000  0.5381820000000 1.0
C      1  0.5532370000000  0.5078990000000  0.4663180000000 1.0
C      1  0.4545440000000  0.4858360000000  0.5003980000000 1.0
C      1  0.4546820000000  0.5125160000000  0.5006970000000 1.0
C      1  0.4613480000000  0.4424280000000  0.5459110000000 1.0
C      1  0.4590020000000  0.5560950000000  0.4549160000000 1.0
C      1  0.4322640000000  0.4863660000000  0.5508390000000 1.0
C      1  0.4308240000000  0.5114010000000  0.4509320000000 1.0
C      1  0.5301290000000  0.4419900000000  0.5309690000000 1.0
C      1  0.5285710000000  0.5587980000000  0.4683880000000 1.0
C      1  0.5490650000000  0.5049650000000  0.5135190000000 1.0
C      1  0.5501900000000  0.4896630000000  0.4889910000000 1.0
C      1  0.5461690000000  0.6079720000000  0.5610650000000 1.0
C      1  0.5412200000000  0.3952180000000  0.4287560000000 1.0
C      1  0.4536850000000  0.4447360000000  0.4653760000000 1.0
C      1  0.4548830000000  0.5529170000000  0.5357630000000 1.0
C      1  0.5386880000000  0.4435420000000  0.4524750000000 1.0
C      1  0.5406490000000  0.5572670000000  0.5435220000000 1.0
C      1  0.5516870000000  0.4663430000000  0.4415200000000 1.0
C      1  0.5530680000000  0.5357520000000  0.5568260000000 1.0
C      1  0.5027270000000  0.5141160000000  0.4943870000000 1.0
C      1  0.5029220000000  0.4843590000000  0.5034770000000 1.0
C      1  0.4067080000000  0.4937640000000  0.4887380000000 1.0
C      1  0.4070840000000  0.5040670000000  0.5137690000000 1.0
C      1  0.4336430000000  0.4626360000000  0.4602720000000 1.0
C      1  0.4349600000000  0.5350820000000  0.5414550000000 1.0
C      1  0.4989470000000  0.5132330000000  0.4640470000000 1.0
C      1  0.5009900000000  0.4857630000000  0.5336910000000 1.0
C      1  0.5251030000000  0.5518800000000  0.5205130000000 1.0
C      1  0.5241300000000  0.4472080000000  0.4765770000000 1.0
C      1  0.4426200000000  0.5355000000000  0.4495240000000 1.0
C      1  0.4444700000000  0.4624580000000  0.5518440000000 1.0
C      1  0.5437600000000  0.5833680000000  0.5528200000000 1.0
C      1  0.5402470000000  0.4186950000000  0.4400270000000 1.0
C      1  0.4964620000000  0.5167450000000  0.4377970000000 1.0
C      1  0.4956160000000  0.4858730000000  0.5597550000000 1.0
C      1  0.4774000000000  0.4708910000000  0.4956570000000 1.0
C      1  0.4778330000000  0.5274110000000  0.5042980000000 1.0
C      1  0.4826740000000  0.4301750000000  0.5350570000000 1.0
C      1  0.4802490000000  0.5691780000000  0.4649470000000 1.0
C      1  0.5272500000000  0.4886390000000  0.5975430000000 1.0
C      1  0.5328630000000  0.5192210000000  0.4047340000000 1.0
C      1  0.4771850000000  0.5522240000000  0.5181950000000 1.0
C      1  0.4765810000000  0.4457880000000  0.4821470000000 1.0
C      1  0.4216150000000  0.4883470000000  0.4648670000000 1.0
C      1  0.4226930000000  0.5094350000000  0.5371950000000 1.0
C      1  0.5021960000000  0.4334680000000  0.4894810000000 1.0
C      1  0.5017750000000  0.5653160000000  0.5097340000000 1.0
C      1  0.5560130000000  0.4944980000000  0.4413110000000 1.0
C      1  0.5551520000000  0.5079540000000  0.5611910000000 1.0
C      1  0.5077550000000  0.5214580000000  0.4140310000000 1.0
C      1  0.5036860000000  0.4847860000000  0.5852160000000 1.0
END
