TITL C-2323484-8600-148 0.000998364489930142 125000 -357.142852709207 0 0 60 (C1) n - 1
REM
REM in /home/bkarasulu/CARBON/AIRSS/Generating-Clusters/LCBOP/Higher-Symm/Only-C60/SD-CG/FIRE-HFTN
REM
REM
REM
REM
REM
REM ./C.cell (50c204cfd26239f34c78669fe23a5462)
REM
REM compiler GCC version 9.2.1 20190827 (Red Hat 9.2.1-1)
REM options -cpp -mtune=generic -march=x86-64 -g -O0 -fpre-include=/usr/include/finclude/math-vector-fortran.h
REM seed 800731525 1975545911 -1325440482 1573424642 875847853 634840879 -624493227 -231691580 323021078 -723781574 -958677121 1841552886 -1952360726 679847540 -466913713 -299048504 1494305589 -1692033024 -759856259 -1352072832 1039055055 1493659170 1051612689 -1696039991 -1210946008 1052295495 206700815 880006255 -1107718016 1678936475 -1900040350 -752076801 -438426520
REM
CELL 1.54180   50.00000   50.00000   50.00000   90.00000   90.00000   90.00000
LATT -1
SFAC C  
C      1  0.4681760000000  0.4829310000000  0.4251050000000 1.0
C      1  0.4243390000000  0.5170500000000  0.5289080000000 1.0
C      1  0.5309280000000  0.4821180000000  0.5728980000000 1.0
C      1  0.5704230000000  0.5169650000000  0.4739240000000 1.0
C      1  0.4600220000000  0.5529490000000  0.4905690000000 1.0
C      1  0.4940420000000  0.4501630000000  0.5325510000000 1.0
C      1  0.5357290000000  0.5517790000000  0.5123880000000 1.0
C      1  0.5100000000000  0.4501830000000  0.4608670000000 1.0
C      1  0.5238980000000  0.4738720000000  0.4497270000000 1.0
C      1  0.4571700000000  0.5257490000000  0.4768970000000 1.0
C      1  0.4807190000000  0.4751980000000  0.5381290000000 1.0
C      1  0.5459730000000  0.5256910000000  0.5221210000000 1.0
C      1  0.4844650000000  0.5429850000000  0.5613130000000 1.0
C      1  0.5638880000000  0.4581410000000  0.5110350000000 1.0
C      1  0.5103130000000  0.5480140000000  0.4429750000000 1.0
C      1  0.4426870000000  0.4560780000000  0.4880590000000 1.0
C      1  0.4817520000000  0.5687580000000  0.4780530000000 1.0
C      1  0.4806380000000  0.4347780000000  0.5124340000000 1.0
C      1  0.5139060000000  0.5641810000000  0.5273250000000 1.0
C      1  0.5252650000000  0.4377720000000  0.4827660000000 1.0
C      1  0.5842100000000  0.5174340000000  0.4991240000000 1.0
C      1  0.4926640000000  0.4963740000000  0.4212300000000 1.0
C      1  0.4208010000000  0.5084740000000  0.5022620000000 1.0
C      1  0.5037310000000  0.4893600000000  0.5770230000000 1.0
C      1  0.5381610000000  0.4439350000000  0.5077220000000 1.0
C      1  0.5084660000000  0.5629700000000  0.4682190000000 1.0
C      1  0.4677620000000  0.4412370000000  0.4880380000000 1.0
C      1  0.4870700000000  0.5591120000000  0.5367330000000 1.0
C      1  0.5673010000000  0.4884700000000  0.6122420000000 1.0
C      1  0.5855970000000  0.4751830000000  0.4527360000000 1.0
C      1  0.4306760000000  0.4806200000000  0.3864470000000 1.0
C      1  0.3852910000000  0.5119440000000  0.5657250000000 1.0
C      1  0.5406620000000  0.4818030000000  0.4715230000000 1.0
C      1  0.4841800000000  0.5149500000000  0.4775350000000 1.0
C      1  0.4838010000000  0.4916280000000  0.5157240000000 1.0
C      1  0.5263710000000  0.5058790000000  0.5172660000000 1.0
C      1  0.4039330000000  0.5144580000000  0.5476880000000 1.0
C      1  0.5494390000000  0.4852690000000  0.5935380000000 1.0
C      1  0.5667290000000  0.4901080000000  0.4653420000000 1.0
C      1  0.4490330000000  0.4817590000000  0.4049090000000 1.0
C      1  0.4620150000000  0.5511380000000  0.5204860000000 1.0
C      1  0.5230440000000  0.4516210000000  0.5323110000000 1.0
C      1  0.5337700000000  0.5539310000000  0.4830170000000 1.0
C      1  0.4812890000000  0.4501160000000  0.4628890000000 1.0
C      1  0.5235860000000  0.4894940000000  0.4928950000000 1.0
C      1  0.4965280000000  0.5312430000000  0.4983280000000 1.0
C      1  0.4931660000000  0.4888520000000  0.4878200000000 1.0
C      1  0.5000230000000  0.5154140000000  0.5220590000000 1.0
C      1  0.4801140000000  0.4924000000000  0.5615100000000 1.0
C      1  0.5700150000000  0.5089560000000  0.5227740000000 1.0
C      1  0.5170060000000  0.4982470000000  0.4353320000000 1.0
C      1  0.4371810000000  0.5053430000000  0.4794930000000 1.0
C      1  0.5476460000000  0.5332850000000  0.4660570000000 1.0
C      1  0.4637120000000  0.4706070000000  0.4502280000000 1.0
C      1  0.4493790000000  0.5284320000000  0.5360070000000 1.0
C      1  0.5394080000000  0.4716740000000  0.5476550000000 1.0
C      1  0.4428500000000  0.4788270000000  0.4697070000000 1.0
C      1  0.4678600000000  0.5190580000000  0.5577910000000 1.0
C      1  0.5632760000000  0.4805180000000  0.5305010000000 1.0
C      1  0.5279210000000  0.5245220000000  0.4440650000000 1.0
END
