TITL C-2323487-9546-465 2.29896009189752e-06 125000 -365.93282345383 0 0 60 (C2) n - 1
REM
REM in /home/bkarasulu/CARBON/AIRSS/Generating-Clusters/LCBOP/Higher-Symm/Only-C60/SD-CG/FIRE-HFTN
REM
REM
REM
REM
REM
REM ./C.cell (50c204cfd26239f34c78669fe23a5462)
REM
REM compiler GCC version 9.2.1 20190827 (Red Hat 9.2.1-1)
REM options -cpp -mtune=generic -march=x86-64 -g -O0 -fpre-include=/usr/include/finclude/math-vector-fortran.h
REM seed 1150701303 -716232599 71035410 -236139071 -602549460 -805732920 955517544 2141521934 812547527 1190378701 241846775 -1235790837 -615016483 -451096025 2063696193 -176944056 -1297617916 -690983126 845609116 1040062286 101805862 -2071226019 173806132 -501608104 -1624136896 -1113382410 -45235726 -347389802 2087783118 -1614504541 1716880675 -1440644998 86900639
REM
CELL 1.54180   50.00000   50.00000   50.00000   90.00000   90.00000   90.00000
LATT -1
SFAC C  
C      1  0.5328300000000  0.5441090000000  0.5292940000000 1.0
C      1  0.5330630000000  0.5291340000000  0.4560650000000 1.0
C      1  0.5328920000000  0.4559370000000  0.4707610000000 1.0
C      1  0.5329140000000  0.4708130000000  0.5440850000000 1.0
C      1  0.4655480000000  0.5441090000000  0.4707060000000 1.0
C      1  0.4653160000000  0.5291340000000  0.5439350000000 1.0
C      1  0.4654860000000  0.4559370000000  0.5292390000000 1.0
C      1  0.4654640000000  0.4708130000000  0.4559150000000 1.0
C      1  0.4819140000000  0.5672300000000  0.5203810000000 1.0
C      1  0.4820880000000  0.5204170000000  0.4327440000000 1.0
C      1  0.4818770000000  0.4328210000000  0.4796550000000 1.0
C      1  0.4820880000000  0.4795750000000  0.5672600000000 1.0
C      1  0.5164650000000  0.5672300000000  0.4796180000000 1.0
C      1  0.5162900000000  0.5204170000000  0.5672560000000 1.0
C      1  0.5165020000000  0.4328210000000  0.5203460000000 1.0
C      1  0.5162910000000  0.4795740000000  0.4327400000000 1.0
C      1  0.5255760000000  0.4994130000000  0.4552070000000 1.0
C      1  0.5255560000000  0.4553510000000  0.5005080000000 1.0
C      1  0.5254260000000  0.5005520000000  0.5447800000000 1.0
C      1  0.5254930000000  0.5447740000000  0.4995280000000 1.0
C      1  0.4728030000000  0.4994130000000  0.5447930000000 1.0
C      1  0.4728230000000  0.4553510000000  0.4994920000000 1.0
C      1  0.4729520000000  0.5005520000000  0.4552200000000 1.0
C      1  0.4728860000000  0.5447740000000  0.5004720000000 1.0
C      1  0.5479610000000  0.4809980000000  0.4664020000000 1.0
C      1  0.5478930000000  0.4668340000000  0.5188350000000 1.0
C      1  0.5477660000000  0.5188640000000  0.5333680000000 1.0
C      1  0.5479080000000  0.5333220000000  0.4813200000000 1.0
C      1  0.4504180000000  0.4809980000000  0.5335980000000 1.0
C      1  0.4504860000000  0.4668340000000  0.4811660000000 1.0
C      1  0.4506130000000  0.5188640000000  0.4666320000000 1.0
C      1  0.4504710000000  0.5333220000000  0.5186800000000 1.0
C      1  0.5074970000000  0.4893500000000  0.4081880000000 1.0
C      1  0.5076040000000  0.4083060000000  0.5105650000000 1.0
C      1  0.5075100000000  0.5106410000000  0.5918150000000 1.0
C      1  0.5075590000000  0.5917470000000  0.4893960000000 1.0
C      1  0.4908810000000  0.4893500000000  0.5918130000000 1.0
C      1  0.4907750000000  0.4083060000000  0.4894350000000 1.0
C      1  0.4908690000000  0.5106410000000  0.4081850000000 1.0
C      1  0.4908200000000  0.5917470000000  0.5106030000000 1.0
C      1  0.4281370000000  0.5194170000000  0.5099780000000 1.0
C      1  0.4284100000000  0.5104510000000  0.4811470000000 1.0
C      1  0.4281400000000  0.4812920000000  0.4889540000000 1.0
C      1  0.4275440000000  0.4887230000000  0.5205730000000 1.0
C      1  0.5702420000000  0.5194160000000  0.4900220000000 1.0
C      1  0.5699690000000  0.5104510000000  0.5188530000000 1.0
C      1  0.5702380000000  0.4812910000000  0.5110460000000 1.0
C      1  0.5708340000000  0.4887230000000  0.4794270000000 1.0
C      1  0.5128900000000  0.5513110000000  0.4550690000000 1.0
C      1  0.5126640000000  0.4550120000000  0.4486540000000 1.0
C      1  0.5128280000000  0.4486450000000  0.5449340000000 1.0
C      1  0.5126130000000  0.5449690000000  0.5513790000000 1.0
C      1  0.4854890000000  0.5513110000000  0.5449310000000 1.0
C      1  0.4857140000000  0.4550120000000  0.5513460000000 1.0
C      1  0.4855500000000  0.4486450000000  0.4550670000000 1.0
C      1  0.4857650000000  0.5449690000000  0.4486210000000 1.0
C      1  0.4991890000000  0.5248490000000  0.5000000000000 1.0
C      1  0.4992530000000  0.4999630000000  0.4752110000000 1.0
C      1  0.4991890000000  0.4752120000000  0.5000000000000 1.0
C      1  0.4991250000000  0.4999630000000  0.5247890000000 1.0
END
