TITL C-2323478-8180-249 -0.101437131353361 125000 -356.153084302837 0 0 60 (C1) n - 1
REM
REM in /home/bkarasulu/CARBON/AIRSS/Generating-Clusters/LCBOP/Higher-Symm/Only-C60/SD-CG/FIRE-HFTN
REM
REM
REM
REM
REM
REM ./C.cell (50c204cfd26239f34c78669fe23a5462)
REM
REM compiler GCC version 9.2.1 20190827 (Red Hat 9.2.1-1)
REM options -cpp -mtune=generic -march=x86-64 -g -O0 -fpre-include=/usr/include/finclude/math-vector-fortran.h
REM seed -1629083573 -1062852380 2058583327 1646625407 1161983501 641457803 -455736125 -563802691 -1966926479 -2018384696 208506530 -1636928610 1814802149 958218385 -2102367555 -116670946 -257216930 -706145184 409508712 -913089839 1013197374 -841344980 678532323 -916720468 -2107891006 27162040 -2055324558 2139905597 1399398212 1505257970 1747719304 1983969697 -1701282800
REM
CELL 1.54180   50.00000   50.00000   50.00000   90.00000   90.00000   90.00000
LATT -1
SFAC C  
C      1  0.4611960000000  0.5600840000000  0.4148770000000 1.0
C      1  0.4703350000000  0.4314450000000  0.4289240000000 1.0
C      1  0.5958810000000  0.5663680000000  0.4964940000000 1.0
C      1  0.6069680000000  0.4438920000000  0.4994030000000 1.0
C      1  0.5995130000000  0.4916760000000  0.5019330000000 1.0
C      1  0.5970990000000  0.5182070000000  0.5012290000000 1.0
C      1  0.5222120000000  0.4850320000000  0.4363270000000 1.0
C      1  0.5194720000000  0.5115930000000  0.4344920000000 1.0
C      1  0.4977950000000  0.4684820000000  0.5738290000000 1.0
C      1  0.5026060000000  0.5205260000000  0.5813900000000 1.0
C      1  0.4430690000000  0.4429580000000  0.4665530000000 1.0
C      1  0.4414290000000  0.5616910000000  0.4587190000000 1.0
C      1  0.5739680000000  0.5377200000000  0.4636510000000 1.0
C      1  0.5801280000000  0.4666310000000  0.4655970000000 1.0
C      1  0.5801840000000  0.5153740000000  0.4477680000000 1.0
C      1  0.5825500000000  0.4887960000000  0.4484650000000 1.0
C      1  0.4836750000000  0.5818810000000  0.5438130000000 1.0
C      1  0.4745380000000  0.4158830000000  0.5333540000000 1.0
C      1  0.4809650000000  0.4865790000000  0.4770870000000 1.0
C      1  0.4703750000000  0.5095180000000  0.4646590000000 1.0
C      1  0.4884750000000  0.4059250000000  0.5129220000000 1.0
C      1  0.4902020000000  0.5904240000000  0.5194080000000 1.0
C      1  0.5503830000000  0.5519640000000  0.4590050000000 1.0
C      1  0.5588800000000  0.4487930000000  0.4622020000000 1.0
C      1  0.5891540000000  0.5414630000000  0.4875510000000 1.0
C      1  0.5958370000000  0.4667430000000  0.4894440000000 1.0
C      1  0.5039940000000  0.5139850000000  0.5102910000000 1.0
C      1  0.4928850000000  0.4893860000000  0.5026230000000 1.0
C      1  0.4863690000000  0.5313390000000  0.5584220000000 1.0
C      1  0.4786320000000  0.4656400000000  0.5507750000000 1.0
C      1  0.4667570000000  0.4458430000000  0.4519450000000 1.0
C      1  0.4604870000000  0.5516130000000  0.4408610000000 1.0
C      1  0.4867260000000  0.4639590000000  0.4607820000000 1.0
C      1  0.4788470000000  0.5322110000000  0.4503170000000 1.0
C      1  0.5224690000000  0.5545830000000  0.4585090000000 1.0
C      1  0.5314620000000  0.4431510000000  0.4616910000000 1.0
C      1  0.4379430000000  0.5314180000000  0.5472600000000 1.0
C      1  0.4303110000000  0.4770470000000  0.5486720000000 1.0
C      1  0.5210600000000  0.4208260000000  0.4750970000000 1.0
C      1  0.5101980000000  0.5746940000000  0.4737040000000 1.0
C      1  0.4211980000000  0.5582980000000  0.5064180000000 1.0
C      1  0.4126130000000  0.4529090000000  0.5074260000000 1.0
C      1  0.5136390000000  0.4626650000000  0.4511430000000 1.0
C      1  0.5070390000000  0.5342130000000  0.4458870000000 1.0
C      1  0.4601910000000  0.5155290000000  0.5546720000000 1.0
C      1  0.4564370000000  0.4867870000000  0.5533800000000 1.0
C      1  0.4245680000000  0.5464660000000  0.5299460000000 1.0
C      1  0.4144910000000  0.4647050000000  0.5311830000000 1.0
C      1  0.4692220000000  0.4372430000000  0.5485620000000 1.0
C      1  0.4816670000000  0.5608870000000  0.5603150000000 1.0
C      1  0.5237370000000  0.4796260000000  0.5686430000000 1.0
C      1  0.5265620000000  0.5065480000000  0.5734510000000 1.0
C      1  0.5056020000000  0.4081300000000  0.4926520000000 1.0
C      1  0.4994740000000  0.5870430000000  0.4946800000000 1.0
C      1  0.4883000000000  0.5061750000000  0.6017850000000 1.0
C      1  0.4862630000000  0.4789790000000  0.5981120000000 1.0
C      1  0.5019500000000  0.5285740000000  0.5324570000000 1.0
C      1  0.4906770000000  0.4708300000000  0.5234230000000 1.0
C      1  0.4275960000000  0.5638210000000  0.4812550000000 1.0
C      1  0.4237440000000  0.4452290000000  0.4845680000000 1.0
END
