TITL C-2323492-8884-352 9.46600006072697e-07 125000 -368.865420767311 0 0 60 (Cs) n - 1
REM
REM in /home/bkarasulu/CARBON/AIRSS/Generating-Clusters/LCBOP/Higher-Symm/Only-C60/SD-CG/FIRE-HFTN
REM
REM
REM
REM
REM
REM ./C.cell (50c204cfd26239f34c78669fe23a5462)
REM
REM compiler GCC version 9.2.1 20190827 (Red Hat 9.2.1-1)
REM options -cpp -mtune=generic -march=x86-64 -g -O0 -fpre-include=/usr/include/finclude/math-vector-fortran.h
REM seed 2135245506 -10639635 266456996 -1412898062 -1446511224 1255945732 1991987006 919995985 -1610063178 -1407999962 1074882128 -37584944 -604672966 -1427241847 754371301 928194027 -1065405890 -155716685 1976877772 156561273 -1268481476 1436642935 267781079 1012025705 -786940974 1446822914 554587197 -1343943326 919252724 -1126126483 -1245569145 -578444836 1043507175
REM
CELL 1.54180   50.00000   50.00000   50.00000   90.00000   90.00000   90.00000
LATT -1
SFAC C  
C      1  0.4858140000000  0.4457970000000  0.5623520000000 1.0
C      1  0.5546240000000  0.5122340000000  0.5621900000000 1.0
C      1  0.4613800000000  0.5377880000000  0.5620550000000 1.0
C      1  0.4858160000000  0.4458510000000  0.4376000000000 1.0
C      1  0.5546270000000  0.5122880000000  0.4378230000000 1.0
C      1  0.4613830000000  0.5378420000000  0.4379760000000 1.0
C      1  0.4871870000000  0.5514090000000  0.5602630000000 1.0
C      1  0.5539610000000  0.4829020000000  0.5623700000000 1.0
C      1  0.4604780000000  0.4606270000000  0.5623950000000 1.0
C      1  0.4871890000000  0.5514610000000  0.4397810000000 1.0
C      1  0.5539640000000  0.4829560000000  0.4376170000000 1.0
C      1  0.4604810000000  0.4606810000000  0.4375690000000 1.0
C      1  0.5008540000000  0.5256120000000  0.5143620000000 1.0
C      1  0.4752360000000  0.4867530000000  0.5236590000000 1.0
C      1  0.5243460000000  0.4855400000000  0.5238740000000 1.0
C      1  0.5008540000000  0.5256240000000  0.4856610000000 1.0
C      1  0.4752370000000  0.4867740000000  0.4763290000000 1.0
C      1  0.5243470000000  0.4855610000000  0.4761150000000 1.0
C      1  0.4997740000000  0.4722690000000  0.5235270000000 1.0
C      1  0.4759380000000  0.5147610000000  0.5228060000000 1.0
C      1  0.5247650000000  0.5141140000000  0.5234330000000 1.0
C      1  0.4997750000000  0.4722890000000  0.4764490000000 1.0
C      1  0.4759390000000  0.5147810000000  0.4772060000000 1.0
C      1  0.5247660000000  0.5141340000000  0.4765800000000 1.0
C      1  0.4583670000000  0.4858440000000  0.4240910000000 1.0
C      1  0.5328970000000  0.4688210000000  0.4242450000000 1.0
C      1  0.5103810000000  0.5408040000000  0.4271530000000 1.0
C      1  0.4583640000000  0.4857780000000  0.5758950000000 1.0
C      1  0.5328940000000  0.4687560000000  0.5757300000000 1.0
C      1  0.5103780000000  0.5407410000000  0.5728830000000 1.0
C      1  0.4587480000000  0.5128690000000  0.4243350000000 1.0
C      1  0.5336310000000  0.5272350000000  0.4254270000000 1.0
C      1  0.5090470000000  0.4560070000000  0.4242150000000 1.0
C      1  0.4587450000000  0.5128040000000  0.5756750000000 1.0
C      1  0.5336280000000  0.5271710000000  0.5745980000000 1.0
C      1  0.5090440000000  0.4559410000000  0.5757470000000 1.0
C      1  0.5643900000000  0.4701820000000  0.4617070000000 1.0
C      1  0.4903510000000  0.5706160000000  0.4608960000000 1.0
C      1  0.4439020000000  0.4578200000000  0.4615310000000 1.0
C      1  0.5643880000000  0.4701490000000  0.5382690000000 1.0
C      1  0.4903490000000  0.5705820000000  0.5391650000000 1.0
C      1  0.4439000000000  0.4577870000000  0.5384300000000 1.0
C      1  0.5662010000000  0.5248160000000  0.4615630000000 1.0
C      1  0.4910950000000  0.4302810000000  0.4617080000000 1.0
C      1  0.4438880000000  0.5419970000000  0.4609160000000 1.0
C      1  0.5661990000000  0.5247820000000  0.5384610000000 1.0
C      1  0.4910940000000  0.4302480000000  0.5382310000000 1.0
C      1  0.4438860000000  0.5419630000000  0.5391180000000 1.0
C      1  0.4518670000000  0.4713210000000  0.4855830000000 1.0
C      1  0.5488590000000  0.4722600000000  0.4856600000000 1.0
C      1  0.4913490000000  0.5789280000000  0.4865520000000 1.0
C      1  0.4518660000000  0.4713090000000  0.5143900000000 1.0
C      1  0.5488580000000  0.4722470000000  0.5143180000000 1.0
C      1  0.4913480000000  0.5789160000000  0.5135160000000 1.0
C      1  0.4522920000000  0.5304120000000  0.4856010000000 1.0
C      1  0.5505000000000  0.5257480000000  0.4855310000000 1.0
C      1  0.4978850000000  0.4443500000000  0.4856620000000 1.0
C      1  0.4522920000000  0.5303990000000  0.5144230000000 1.0
C      1  0.5505000000000  0.5257350000000  0.5144930000000 1.0
C      1  0.4978840000000  0.4443380000000  0.5142900000000 1.0
END
