TITL C-2323478-8180-297 2.47413525251301e-06 125000 -336.499726397179 0 0 60 (D3) n - 1
REM
REM in /home/bkarasulu/CARBON/AIRSS/Generating-Clusters/LCBOP/Higher-Symm/Only-C60/SD-CG/FIRE-HFTN
REM
REM
REM
REM
REM
REM ./C.cell (50c204cfd26239f34c78669fe23a5462)
REM
REM compiler GCC version 9.2.1 20190827 (Red Hat 9.2.1-1)
REM options -cpp -mtune=generic -march=x86-64 -g -O0 -fpre-include=/usr/include/finclude/math-vector-fortran.h
REM seed -1777158037 1913801855 -888673174 -798338315 -1108176740 -1274165832 1290952982 996999630 1432016006 91184650 -1105576020 728274557 513250403 1659323597 -1373371759 1871320613 -2121956197 -1426469124 2140970321 -649302448 1940507683 780497127 477690889 900271938 1094697297 493148693 834783502 -301782405 37574999 2120300413 866318512 277359225 1784446595
REM
CELL 1.54180   50.00000   50.00000   50.00000   90.00000   90.00000   90.00000
LATT -1
SFAC C  
C      1  0.4973340000000  0.5211040000000  0.5217970000000 1.0
C      1  0.5199110000000  0.5210250000000  0.4913430000000 1.0
C      1  0.4833840000000  0.5212440000000  0.4877170000000 1.0
C      1  0.4975410000000  0.4789740000000  0.4784290000000 1.0
C      1  0.5189450000000  0.4787550000000  0.5082490000000 1.0
C      1  0.4824560000000  0.4788970000000  0.5132090000000 1.0
C      1  0.5201650000000  0.4421000000000  0.5402250000000 1.0
C      1  0.5247590000000  0.4421080000000  0.4626610000000 1.0
C      1  0.4552790000000  0.4423220000000  0.4973790000000 1.0
C      1  0.5199580000000  0.5578900000000  0.4598860000000 1.0
C      1  0.5246330000000  0.5576790000000  0.5374170000000 1.0
C      1  0.4550830000000  0.5579010000000  0.5026470000000 1.0
C      1  0.4501260000000  0.5128920000000  0.4202050000000 1.0
C      1  0.4559090000000  0.5130280000000  0.5830300000000 1.0
C      1  0.5940210000000  0.5131480000000  0.4965900000000 1.0
C      1  0.4501410000000  0.4869770000000  0.5797010000000 1.0
C      1  0.4559410000000  0.4868490000000  0.4168720000000 1.0
C      1  0.5940420000000  0.4871060000000  0.5032940000000 1.0
C      1  0.5030650000000  0.5158650000000  0.4383090000000 1.0
C      1  0.4449450000000  0.5159270000000  0.5281200000000 1.0
C      1  0.5515660000000  0.5154600000000  0.5330950000000 1.0
C      1  0.5031760000000  0.4840750000000  0.5617400000000 1.0
C      1  0.4455550000000  0.4845400000000  0.4718920000000 1.0
C      1  0.5518930000000  0.4841330000000  0.4665000000000 1.0
C      1  0.4703010000000  0.5499130000000  0.4514700000000 1.0
C      1  0.4726500000000  0.5501250000000  0.5498920000000 1.0
C      1  0.5567480000000  0.5500170000000  0.4985920000000 1.0
C      1  0.4704670000000  0.4498780000000  0.5486340000000 1.0
C      1  0.4728440000000  0.4499820000000  0.4501530000000 1.0
C      1  0.5568760000000  0.4500850000000  0.5014560000000 1.0
C      1  0.5812100000000  0.4637300000000  0.5070460000000 1.0
C      1  0.4655270000000  0.4634760000000  0.4261980000000 1.0
C      1  0.4533920000000  0.4635450000000  0.5668390000000 1.0
C      1  0.5811520000000  0.5365220000000  0.4929510000000 1.0
C      1  0.4654220000000  0.5364580000000  0.5737820000000 1.0
C      1  0.4532930000000  0.5362680000000  0.4331920000000 1.0
C      1  0.5079880000000  0.5043830000000  0.5419520000000 1.0
C      1  0.5323750000000  0.5045180000000  0.4719980000000 1.0
C      1  0.4602590000000  0.5049070000000  0.4860450000000 1.0
C      1  0.5080630000000  0.4954800000000  0.4579620000000 1.0
C      1  0.5319560000000  0.4950940000000  0.5274390000000 1.0
C      1  0.4596750000000  0.4956190000000  0.5140590000000 1.0
C      1  0.5403190000000  0.5606240000000  0.4776460000000 1.0
C      1  0.4603250000000  0.5604930000000  0.4761390000000 1.0
C      1  0.4990700000000  0.5605960000000  0.5461270000000 1.0
C      1  0.5405000000000  0.4395070000000  0.5224310000000 1.0
C      1  0.4605170000000  0.4394060000000  0.5238720000000 1.0
C      1  0.4991980000000  0.4393740000000  0.4539080000000 1.0
C      1  0.4561730000000  0.4571460000000  0.4729070000000 1.0
C      1  0.4985540000000  0.4567950000000  0.5518600000000 1.0
C      1  0.5455870000000  0.4569150000000  0.4755370000000 1.0
C      1  0.4558120000000  0.5432070000000  0.5271810000000 1.0
C      1  0.4983920000000  0.5430830000000  0.4482870000000 1.0
C      1  0.5453780000000  0.5428540000000  0.5244070000000 1.0
C      1  0.5722530000000  0.5107600000000  0.5504620000000 1.0
C      1  0.5076680000000  0.5113870000000  0.4116700000000 1.0
C      1  0.4195840000000  0.5113120000000  0.5374030000000 1.0
C      1  0.5726610000000  0.4886090000000  0.4491930000000 1.0
C      1  0.5078170000000  0.4886920000000  0.5883440000000 1.0
C      1  0.4201710000000  0.4892400000000  0.4626600000000 1.0
END
