TITL C-2323491-8878-547 -689201.808278077 125000 -349.889399795442 0 0 60 (C1) n - 1
REM
REM in /home/bkarasulu/CARBON/AIRSS/Generating-Clusters/LCBOP/Higher-Symm/Only-C60/SD-CG/FIRE-HFTN
REM
REM
REM
REM
REM
REM ./C.cell (50c204cfd26239f34c78669fe23a5462)
REM
REM compiler GCC version 9.2.1 20190827 (Red Hat 9.2.1-1)
REM options -cpp -mtune=generic -march=x86-64 -g -O0 -fpre-include=/usr/include/finclude/math-vector-fortran.h
REM seed 561747336 945027741 432481178 -1114710735 -1475806603 1544059611 518676308 863933514 -280251659 2050531624 -49490699 1625626006 -651559584 -1403782500 1805523186 -532046438 1372890435 -227980469 404959079 398147425 1091708713 563116944 567931597 -1707536814 523669218 1884853207 -290203686 -1696720276 -1421356345 -618069086 -1511985706 -438522336 132346413
REM
CELL 1.54180   50.00000   50.00000   50.00000   90.00000   90.00000   90.00000
LATT -1
SFAC C  
C      1  0.4853440000000  0.5200940000000  0.5336090000000 1.0
C      1  0.5171190000000  0.5191650000000  0.5325870000000 1.0
C      1  0.5566120000000  0.4593590000000  0.5415720000000 1.0
C      1  0.4448040000000  0.4597690000000  0.5429730000000 1.0
C      1  0.4021950000000  0.4659670000000  0.5186000000000 1.0
C      1  0.5988890000000  0.4650000000000  0.5165170000000 1.0
C      1  0.4853440000000  0.4659600000000  0.4414170000000 1.0
C      1  0.5138790000000  0.4656810000000  0.4410440000000 1.0
C      1  0.4251280000000  0.5277460000000  0.4883570000000 1.0
C      1  0.5763940000000  0.5274740000000  0.4875650000000 1.0
C      1  0.5290950000000  0.5068720000000  0.5581760000000 1.0
C      1  0.4734830000000  0.5072190000000  0.5591260000000 1.0
C      1  0.4413060000000  0.4071080000000  0.4713340000000 1.0
C      1  0.5574760000000  0.4062380000000  0.4702820000000 1.0
C      1  0.4875400000000  0.5786470000000  0.5752060000000 1.0
C      1  0.4806990000000  0.5655030000000  0.5537820000000 1.0
C      1  0.5158650000000  0.4812280000000  0.5641700000000 1.0
C      1  0.4864580000000  0.4814080000000  0.5645990000000 1.0
C      1  0.6165160000000  0.4549180000000  0.5002130000000 1.0
C      1  0.3839520000000  0.4561660000000  0.5028100000000 1.0
C      1  0.4676110000000  0.5388040000000  0.4579280000000 1.0
C      1  0.5329990000000  0.5382560000000  0.4570910000000 1.0
C      1  0.5148920000000  0.4698950000000  0.5200780000000 1.0
C      1  0.4858160000000  0.4706250000000  0.5204490000000 1.0
C      1  0.5576510000000  0.5090330000000  0.5585530000000 1.0
C      1  0.4449010000000  0.5096120000000  0.5594730000000 1.0
C      1  0.5775950000000  0.4757100000000  0.5307990000000 1.0
C      1  0.4240160000000  0.4763880000000  0.5322780000000 1.0
C      1  0.4774630000000  0.4974410000000  0.5109590000000 1.0
C      1  0.5236130000000  0.4963270000000  0.5102680000000 1.0
C      1  0.5139940000000  0.5456540000000  0.4334960000000 1.0
C      1  0.4863190000000  0.5462140000000  0.4341370000000 1.0
C      1  0.5296540000000  0.5454540000000  0.5246830000000 1.0
C      1  0.4741010000000  0.5489300000000  0.5299290000000 1.0
C      1  0.5628840000000  0.5374770000000  0.4658760000000 1.0
C      1  0.4378700000000  0.5383310000000  0.4664960000000 1.0
C      1  0.4711430000000  0.4423910000000  0.4465560000000 1.0
C      1  0.5277520000000  0.4418510000000  0.4458670000000 1.0
C      1  0.4860530000000  0.5024740000000  0.4846090000000 1.0
C      1  0.5146120000000  0.5018890000000  0.4841700000000 1.0
C      1  0.5289170000000  0.4898570000000  0.4388390000000 1.0
C      1  0.4707110000000  0.4904050000000  0.4395310000000 1.0
C      1  0.4544070000000  0.4951960000000  0.4181080000000 1.0
C      1  0.5449220000000  0.4943610000000  0.4171360000000 1.0
C      1  0.4445750000000  0.5477160000000  0.5262220000000 1.0
C      1  0.5577390000000  0.5471920000000  0.5261050000000 1.0
C      1  0.4564540000000  0.4232790000000  0.4575910000000 1.0
C      1  0.5423270000000  0.4225230000000  0.4566770000000 1.0
C      1  0.4283090000000  0.5044430000000  0.5361090000000 1.0
C      1  0.5741590000000  0.5038210000000  0.5351420000000 1.0
C      1  0.4288690000000  0.5260000000000  0.5166140000000 1.0
C      1  0.5739660000000  0.5258010000000  0.5160550000000 1.0
C      1  0.5158240000000  0.5595360000000  0.5048360000000 1.0
C      1  0.4869670000000  0.5598040000000  0.5055080000000 1.0
C      1  0.4728310000000  0.4632610000000  0.5451110000000 1.0
C      1  0.5285900000000  0.4626860000000  0.5444140000000 1.0
C      1  0.5208740000000  0.5561260000000  0.4782070000000 1.0
C      1  0.4802110000000  0.5559480000000  0.4794350000000 1.0
C      1  0.4734310000000  0.5091420000000  0.4606780000000 1.0
C      1  0.5268780000000  0.5086240000000  0.4600500000000 1.0
END
