TITL C-2323481-8605-167 5.10748164474362 125000 -369.432826490243 0 0 60 (C1) n - 1
REM
REM in /home/bkarasulu/CARBON/AIRSS/Generating-Clusters/LCBOP/Higher-Symm/Only-C60/SD-CG/FIRE-HFTN
REM
REM
REM
REM
REM
REM ./C.cell (50c204cfd26239f34c78669fe23a5462)
REM
REM compiler GCC version 9.2.1 20190827 (Red Hat 9.2.1-1)
REM options -cpp -mtune=generic -march=x86-64 -g -O0 -fpre-include=/usr/include/finclude/math-vector-fortran.h
REM seed -221013986 1717574331 900309598 -1296730169 38711634 -476256671 -511091534 -473055912 345858276 600367655 1136990177 -1492603402 636887904 -800539837 -408766038 257010705 1311614143 896362275 1350806020 -259171882 -1465090211 1041549080 1650631024 -1915669559 121732414 1546409527 -776259509 298935277 -721815239 -355099376 1535856230 1074876487 -1132678627
REM
CELL 1.54180   50.00000   50.00000   50.00000   90.00000   90.00000   90.00000
LATT -1
SFAC C  
C      1  0.5354300000000  0.4959840000000  0.5059790000000 1.0
C      1  0.4489000000000  0.4829820000000  0.4736410000000 1.0
C      1  0.4993740000000  0.5538970000000  0.4424310000000 1.0
C      1  0.4737140000000  0.5975020000000  0.5375870000000 1.0
C      1  0.7077870000000  0.5432410000000  0.6050210000000 1.0
C      1  0.3229070000000  0.3472940000000  0.5606260000000 1.0
C      1  0.4487980000000  0.6269860000000  0.4721560000000 1.0
C      1  0.6446940000000  0.5283570000000  0.5590020000000 1.0
C      1  0.3783930000000  0.3942430000000  0.5284210000000 1.0
C      1  0.4812230000000  0.4500250000000  0.4823780000000 1.0
C      1  0.4684920000000  0.5290850000000  0.4173370000000 1.0
C      1  0.5579830000000  0.5147220000000  0.4688700000000 1.0
C      1  0.4495810000000  0.4882490000000  0.4445430000000 1.0
C      1  0.5261850000000  0.5424980000000  0.4374240000000 1.0
C      1  0.5272790000000  0.4694660000000  0.4965760000000 1.0
C      1  0.4338890000000  0.4411490000000  0.4962060000000 1.0
C      1  0.4653650000000  0.5795130000000  0.4179620000000 1.0
C      1  0.5816160000000  0.5134740000000  0.5129860000000 1.0
C      1  0.5596300000000  0.5082670000000  0.4969740000000 1.0
C      1  0.4532950000000  0.4572030000000  0.4847190000000 1.0
C      1  0.4783400000000  0.5555770000000  0.4233780000000 1.0
C      1  0.6026310000000  0.5184320000000  0.5283240000000 1.0
C      1  0.4153850000000  0.4255410000000  0.5069530000000 1.0
C      1  0.4549530000000  0.6022260000000  0.4270720000000 1.0
C      1  0.6867560000000  0.5382800000000  0.5896810000000 1.0
C      1  0.3414020000000  0.3629430000000  0.5498910000000 1.0
C      1  0.4622990000000  0.6148560000000  0.5210420000000 1.0
C      1  0.4873260000000  0.4389990000000  0.4569290000000 1.0
C      1  0.4845120000000  0.5156300000000  0.3981510000000 1.0
C      1  0.5650680000000  0.4929030000000  0.4521870000000 1.0
C      1  0.4907670000000  0.5425120000000  0.4679430000000 1.0
C      1  0.5111550000000  0.5150180000000  0.5059750000000 1.0
C      1  0.4650190000000  0.5041050000000  0.4858840000000 1.0
C      1  0.3598970000000  0.3785930000000  0.5391560000000 1.0
C      1  0.4535410000000  0.6252720000000  0.4982360000000 1.0
C      1  0.6657250000000  0.5333180000000  0.5743410000000 1.0
C      1  0.7498550000000  0.5531650000000  0.6357050000000 1.0
C      1  0.2859120000000  0.3159900000000  0.5821000000000 1.0
C      1  0.4981250000000  0.5518390000000  0.5434610000000 1.0
C      1  0.4583520000000  0.4667510000000  0.4284040000000 1.0
C      1  0.5295000000000  0.5296580000000  0.4124840000000 1.0
C      1  0.5439400000000  0.4568350000000  0.4776220000000 1.0
C      1  0.4881680000000  0.4953500000000  0.5001110000000 1.0
C      1  0.4681530000000  0.5254200000000  0.4666950000000 1.0
C      1  0.5141590000000  0.5330270000000  0.4817890000000 1.0
C      1  0.3044120000000  0.3316440000000  0.5713620000000 1.0
C      1  0.4862540000000  0.5755060000000  0.5456000000000 1.0
C      1  0.7288180000000  0.5482020000000  0.6203610000000 1.0
C      1  0.7705450000000  0.5580450000000  0.6507970000000 1.0
C      1  0.2677170000000  0.3005940000000  0.5926620000000 1.0
C      1  0.5072010000000  0.5304010000000  0.5306480000000 1.0
C      1  0.5365220000000  0.5321250000000  0.4625540000000 1.0
C      1  0.4986980000000  0.4682870000000  0.4955240000000 1.0
C      1  0.4583620000000  0.5156010000000  0.4403680000000 1.0
C      1  0.5115620000000  0.5170810000000  0.3965730000000 1.0
C      1  0.5588760000000  0.4670240000000  0.4574860000000 1.0
C      1  0.4758630000000  0.4467470000000  0.4335730000000 1.0
C      1  0.6236630000000  0.5233940000000  0.5436630000000 1.0
C      1  0.3968890000000  0.4098920000000  0.5176870000000 1.0
C      1  0.4491420000000  0.6190800000000  0.4467910000000 1.0
END
