TITL C-2323492-8884-529 0.000423246060302854 125000 -381.889186827838 0 0 60 (Cs) n - 1
REM
REM in /home/bkarasulu/CARBON/AIRSS/Generating-Clusters/LCBOP/Higher-Symm/Only-C60/SD-CG/FIRE-HFTN
REM
REM
REM
REM
REM
REM ./C.cell (50c204cfd26239f34c78669fe23a5462)
REM
REM compiler GCC version 9.2.1 20190827 (Red Hat 9.2.1-1)
REM options -cpp -mtune=generic -march=x86-64 -g -O0 -fpre-include=/usr/include/finclude/math-vector-fortran.h
REM seed 1014208936 1214502348 875574523 1644061568 1442924088 -1200057883 1606196585 -858100938 -885641043 -910452738 1916830697 992249629 1763016067 -2046094365 366668166 1867451426 695709120 -413234235 1186896599 -842841482 -785723490 -863722202 -683981853 850744180 722121845 -1565150573 2096975778 914267446 558818813 -1477242385 527510615 1416090804 2096329462
REM
CELL 1.54180   50.00000   50.00000   50.00000   90.00000   90.00000   90.00000
LATT -1
SFAC C  
C      1  0.5104680000000  0.5698890000000  0.5184550000000 1.0
C      1  0.4227520000000  0.5361080000000  0.5275190000000 1.0
C      1  0.4437800000000  0.4359530000000  0.5276690000000 1.0
C      1  0.5376810000000  0.4402760000000  0.5186490000000 1.0
C      1  0.5649440000000  0.5136680000000  0.5219490000000 1.0
C      1  0.5182710000000  0.4202420000000  0.5240520000000 1.0
C      1  0.4280040000000  0.4577160000000  0.5281090000000 1.0
C      1  0.4367440000000  0.5590710000000  0.5268360000000 1.0
C      1  0.5342260000000  0.5764000000000  0.5317290000000 1.0
C      1  0.5780090000000  0.4914910000000  0.5330930000000 1.0
C      1  0.5014160000000  0.4599220000000  0.4945680000000 1.0
C      1  0.5420350000000  0.4835950000000  0.4885890000000 1.0
C      1  0.5318960000000  0.5318920000000  0.4885160000000 1.0
C      1  0.4851820000000  0.5372480000000  0.4944520000000 1.0
C      1  0.4679570000000  0.4932720000000  0.4998670000000 1.0
C      1  0.5110690000000  0.5468300000000  0.5016750000000 1.0
C      1  0.5465470000000  0.5097730000000  0.5004190000000 1.0
C      1  0.5289670000000  0.4615810000000  0.5018030000000 1.0
C      1  0.4827260000000  0.4717280000000  0.5120510000000 1.0
C      1  0.4728070000000  0.5189730000000  0.5119800000000 1.0
C      1  0.5620430000000  0.4439070000000  0.5319280000000 1.0
C      1  0.5679800000000  0.5392580000000  0.5330220000000 1.0
C      1  0.4846370000000  0.5804410000000  0.5238120000000 1.0
C      1  0.4170610000000  0.5098400000000  0.5280310000000 1.0
C      1  0.4658250000000  0.4205540000000  0.5270440000000 1.0
C      1  0.5568730000000  0.5631810000000  0.5372060000000 1.0
C      1  0.5774580000000  0.4651330000000  0.5373530000000 1.0
C      1  0.4920170000000  0.4144320000000  0.5261090000000 1.0
C      1  0.4190110000000  0.4830390000000  0.5282660000000 1.0
C      1  0.4582620000000  0.5752070000000  0.5258680000000 1.0
C      1  0.5206530000000  0.5292490000000  0.4064160000000 1.0
C      1  0.4719260000000  0.5341200000000  0.4136270000000 1.0
C      1  0.4513920000000  0.4896730000000  0.4186530000000 1.0
C      1  0.4880700000000  0.4572230000000  0.4137420000000 1.0
C      1  0.5307290000000  0.4812580000000  0.4064880000000 1.0
C      1  0.5149570000000  0.4627210000000  0.4210220000000 1.0
C      1  0.4662900000000  0.4677290000000  0.4286860000000 1.0
C      1  0.4562010000000  0.5157840000000  0.4286140000000 1.0
C      1  0.4987490000000  0.5399190000000  0.4209070000000 1.0
C      1  0.5354400000000  0.5073160000000  0.4167630000000 1.0
C      1  0.5030740000000  0.5405980000000  0.4494020000000 1.0
C      1  0.4611580000000  0.5166740000000  0.4570940000000 1.0
C      1  0.4711690000000  0.4689900000000  0.4571650000000 1.0
C      1  0.5191720000000  0.4639210000000  0.4495170000000 1.0
C      1  0.5393140000000  0.5081720000000  0.4454930000000 1.0
C      1  0.4963770000000  0.4590460000000  0.4665870000000 1.0
C      1  0.4614980000000  0.4918740000000  0.4719170000000 1.0
C      1  0.4802320000000  0.5359430000000  0.4664720000000 1.0
C      1  0.5282300000000  0.5305290000000  0.4598060000000 1.0
C      1  0.5381490000000  0.4832870000000  0.4598770000000 1.0
C      1  0.4708840000000  0.4939650000000  0.5521640000000 1.0
C      1  0.5020580000000  0.4587590000000  0.5577730000000 1.0
C      1  0.5307490000000  0.4807000000000  0.5936070000000 1.0
C      1  0.5203350000000  0.5303050000000  0.5935320000000 1.0
C      1  0.4852630000000  0.5387520000000  0.5576530000000 1.0
C      1  0.4740050000000  0.5196080000000  0.5406690000000 1.0
C      1  0.5026230000000  0.5423470000000  0.5776090000000 1.0
C      1  0.5312080000000  0.5067010000000  0.5996540000000 1.0
C      1  0.5193850000000  0.4625060000000  0.5777290000000 1.0
C      1  0.4840610000000  0.4717100000000  0.5407410000000 1.0
END
