TITL C-2323492-8884-169 -6465.71077571872 125000 -341.65878335671 0 0 60 (C3) n - 1
REM
REM in /home/bkarasulu/CARBON/AIRSS/Generating-Clusters/LCBOP/Higher-Symm/Only-C60/SD-CG/FIRE-HFTN
REM
REM
REM
REM
REM
REM ./C.cell (50c204cfd26239f34c78669fe23a5462)
REM
REM compiler GCC version 9.2.1 20190827 (Red Hat 9.2.1-1)
REM options -cpp -mtune=generic -march=x86-64 -g -O0 -fpre-include=/usr/include/finclude/math-vector-fortran.h
REM seed 1694863224 -59342359 1440416039 -1532621912 1645133252 781199853 541236158 -1152825935 -240753277 -879550551 671061285 988822153 1904828444 578413619 -854438921 -1067569794 1694113494 2091702177 1799573524 -532639386 726300920 1708585558 227170139 49202012 1708879112 -69993021 2076762938 -146622435 -20391674 1665595532 -837691865 1271726182 -1919852000
REM
CELL 1.54180   50.00000   50.00000   50.00000   90.00000   90.00000   90.00000
LATT -1
SFAC C  
C      1  0.5007500000000  0.5202430000000  0.5303610000000 1.0
C      1  0.5259130000000  0.5202580000000  0.4841840000000 1.0
C      1  0.4733450000000  0.5202620000000  0.4854800000000 1.0
C      1  0.4467020000000  0.5054360000000  0.4514400000000 1.0
C      1  0.4845950000000  0.5053820000000  0.5704420000000 1.0
C      1  0.5687050000000  0.5054140000000  0.4781240000000 1.0
C      1  0.5212500000000  0.5611310000000  0.5498810000000 1.0
C      1  0.5325540000000  0.5611660000000  0.4566990000000 1.0
C      1  0.4462160000000  0.5611610000000  0.4934990000000 1.0
C      1  0.5603830000000  0.5518770000000  0.4950520000000 1.0
C      1  0.4655130000000  0.5519020000000  0.4502140000000 1.0
C      1  0.4741170000000  0.5518580000000  0.5548010000000 1.0
C      1  0.4843070000000  0.4736100000000  0.5632670000000 1.0
C      1  0.5626410000000  0.4736370000000  0.4819390000000 1.0
C      1  0.4530430000000  0.4736580000000  0.4547620000000 1.0
C      1  0.5127740000000  0.5091040000000  0.4592010000000 1.0
C      1  0.4582800000000  0.5090910000000  0.5093430000000 1.0
C      1  0.5289500000000  0.5090770000000  0.5314660000000 1.0
C      1  0.4388350000000  0.4700960000000  0.5357810000000 1.0
C      1  0.5615760000000  0.4700830000000  0.5350580000000 1.0
C      1  0.4995800000000  0.4701300000000  0.4291220000000 1.0
C      1  0.5032390000000  0.5285950000000  0.4375170000000 1.0
C      1  0.4442660000000  0.5285660000000  0.5284560000000 1.0
C      1  0.5525050000000  0.5285550000000  0.5340630000000 1.0
C      1  0.5051840000000  0.4525050000000  0.5576040000000 1.0
C      1  0.5473040000000  0.4525380000000  0.4666760000000 1.0
C      1  0.4474970000000  0.4525450000000  0.4756620000000 1.0
C      1  0.4298890000000  0.5437560000000  0.5074040000000 1.0
C      1  0.5414600000000  0.5437230000000  0.5570520000000 1.0
C      1  0.5286650000000  0.5437730000000  0.4355990000000 1.0
C      1  0.4688270000000  0.4730100000000  0.5364470000000 1.0
C      1  0.5471550000000  0.4730140000000  0.5087540000000 1.0
C      1  0.4840090000000  0.4730400000000  0.4547650000000 1.0
C      1  0.5446380000000  0.4524800000000  0.4384900000000 1.0
C      1  0.4244210000000  0.4524720000000  0.4920650000000 1.0
C      1  0.5309270000000  0.4524280000000  0.5693860000000 1.0
C      1  0.4662900000000  0.5483720000000  0.4781500000000 1.0
C      1  0.4979240000000  0.5483460000000  0.5401590000000 1.0
C      1  0.5358020000000  0.5483650000000  0.4817520000000 1.0
C      1  0.4879710000000  0.4993510000000  0.4702480000000 1.0
C      1  0.4802510000000  0.4993320000000  0.5252950000000 1.0
C      1  0.5317800000000  0.4993360000000  0.5044570000000 1.0
C      1  0.5221380000000  0.4456630000000  0.4808920000000 1.0
C      1  0.4723940000000  0.4456650000000  0.4903440000000 1.0
C      1  0.5054510000000  0.4456460000000  0.5286970000000 1.0
C      1  0.4725970000000  0.5276670000000  0.4371030000000 1.0
C      1  0.4592260000000  0.5276200000000  0.5552010000000 1.0
C      1  0.5681830000000  0.5276340000000  0.5077320000000 1.0
C      1  0.5185970000000  0.5163870000000  0.5732310000000 1.0
C      1  0.5541170000000  0.5164360000000  0.4472900000000 1.0
C      1  0.4272930000000  0.5164380000000  0.4794990000000 1.0
C      1  0.5351210000000  0.4969380000000  0.4435270000000 1.0
C      1  0.4335350000000  0.4969280000000  0.4978180000000 1.0
C      1  0.5313440000000  0.4968930000000  0.5586490000000 1.0
C      1  0.4250080000000  0.4735290000000  0.5108870000000 1.0
C      1  0.5469300000000  0.4734960000000  0.5594820000000 1.0
C      1  0.5280540000000  0.4735490000000  0.4295970000000 1.0
C      1  0.4950090000000  0.4502890000000  0.4726240000000 1.0
C      1  0.4787970000000  0.4502730000000  0.5179750000000 1.0
C      1  0.5261780000000  0.4502730000000  0.5093400000000 1.0
END
