TITL C-2323488-8613-469 0.000137479885238901 125000 -353.454892066966 0 0 60 (C2) n - 1
REM
REM in /home/bkarasulu/CARBON/AIRSS/Generating-Clusters/LCBOP/Higher-Symm/Only-C60/SD-CG/FIRE-HFTN
REM
REM
REM
REM
REM
REM ./C.cell (50c204cfd26239f34c78669fe23a5462)
REM
REM compiler GCC version 9.2.1 20190827 (Red Hat 9.2.1-1)
REM options -cpp -mtune=generic -march=x86-64 -g -O0 -fpre-include=/usr/include/finclude/math-vector-fortran.h
REM seed 1222497544 230080391 1924880094 -53743595 -920580444 -1022166230 564452568 -820941003 -154604223 1730698987 -1060093613 -868472466 -1893854890 -450014693 120988290 472213161 -354993699 1226584371 -1286338681 1523092468 1491648583 746529335 289172397 2067431671 789237630 -1818289153 -1744098533 -399821294 303377606 -1028183481 1078008799 1552950352 1778802913
REM
CELL 1.54180   50.00000   50.00000   50.00000   90.00000   90.00000   90.00000
LATT -1
SFAC C  
C      1  0.4427330000000  0.5481790000000  0.4776840000000 1.0
C      1  0.5612430000000  0.5411770000000  0.5144210000000 1.0
C      1  0.4387370000000  0.4588190000000  0.5143260000000 1.0
C      1  0.5572970000000  0.4518260000000  0.4777500000000 1.0
C      1  0.4864040000000  0.5254900000000  0.4707920000000 1.0
C      1  0.5063100000000  0.5139210000000  0.5212920000000 1.0
C      1  0.4936610000000  0.4860740000000  0.5212800000000 1.0
C      1  0.5136360000000  0.4745170000000  0.4708040000000 1.0
C      1  0.5352710000000  0.4986980000000  0.5590080000000 1.0
C      1  0.4739440000000  0.4957260000000  0.4355590000000 1.0
C      1  0.5261440000000  0.5042900000000  0.4355960000000 1.0
C      1  0.4646480000000  0.5012870000000  0.5589600000000 1.0
C      1  0.4713960000000  0.5223430000000  0.4464690000000 1.0
C      1  0.5448320000000  0.5256630000000  0.5550150000000 1.0
C      1  0.4550930000000  0.4743230000000  0.5549470000000 1.0
C      1  0.5286770000000  0.4776700000000  0.4465030000000 1.0
C      1  0.5810020000000  0.5001460000000  0.5339910000000 1.0
C      1  0.4277250000000  0.5059640000000  0.4545270000000 1.0
C      1  0.5723370000000  0.4940470000000  0.4546240000000 1.0
C      1  0.4189520000000  0.4998450000000  0.5338800000000 1.0
C      1  0.5343310000000  0.5259580000000  0.4531060000000 1.0
C      1  0.4608150000000  0.5237970000000  0.5409100000000 1.0
C      1  0.5391290000000  0.4761930000000  0.5409580000000 1.0
C      1  0.4657330000000  0.4740540000000  0.4530530000000 1.0
C      1  0.5369740000000  0.4320290000000  0.4876150000000 1.0
C      1  0.4641260000000  0.4432250000000  0.5191180000000 1.0
C      1  0.5358480000000  0.5567700000000  0.5191810000000 1.0
C      1  0.4630430000000  0.5679740000000  0.4875820000000 1.0
C      1  0.4306050000000  0.4740130000000  0.5381310000000 1.0
C      1  0.5563900000000  0.4692280000000  0.4531050000000 1.0
C      1  0.4436740000000  0.5307840000000  0.4530360000000 1.0
C      1  0.5693430000000  0.5259780000000  0.5382330000000 1.0
C      1  0.4410360000000  0.5278350000000  0.4983750000000 1.0
C      1  0.5574550000000  0.5231630000000  0.4929190000000 1.0
C      1  0.4425550000000  0.4768390000000  0.4928350000000 1.0
C      1  0.5589670000000  0.4721650000000  0.4984490000000 1.0
C      1  0.5144240000000  0.4408700000000  0.5055190000000 1.0
C      1  0.4854010000000  0.4418700000000  0.4972430000000 1.0
C      1  0.5146030000000  0.5581310000000  0.4972770000000 1.0
C      1  0.4855680000000  0.5591290000000  0.5055150000000 1.0
C      1  0.5178170000000  0.4685280000000  0.5196510000000 1.0
C      1  0.4850930000000  0.4671410000000  0.4770680000000 1.0
C      1  0.5149380000000  0.5328640000000  0.4770970000000 1.0
C      1  0.4821560000000  0.5314670000000  0.5196350000000 1.0
C      1  0.5141750000000  0.5643700000000  0.5643260000000 1.0
C      1  0.4594750000000  0.6198880000000  0.4728990000000 1.0
C      1  0.5405620000000  0.3801190000000  0.4729240000000 1.0
C      1  0.4857380000000  0.4356140000000  0.5642900000000 1.0
C      1  0.5280380000000  0.5131020000000  0.4982150000000 1.0
C      1  0.4694260000000  0.5164100000000  0.4948530000000 1.0
C      1  0.5305810000000  0.4835910000000  0.4948910000000 1.0
C      1  0.4719650000000  0.4868990000000  0.4981740000000 1.0
C      1  0.4348660000000  0.5223200000000  0.5261010000000 1.0
C      1  0.5613370000000  0.5190780000000  0.4645020000000 1.0
C      1  0.4387120000000  0.4809310000000  0.4644140000000 1.0
C      1  0.5650980000000  0.4776730000000  0.5261840000000 1.0
C      1  0.5298430000000  0.5497660000000  0.5475140000000 1.0
C      1  0.4610080000000  0.5948890000000  0.4800910000000 1.0
C      1  0.5390190000000  0.4051170000000  0.4801200000000 1.0
C      1  0.4700920000000  0.4502220000000  0.5474610000000 1.0
END
