TITL C-2323485-8600-26 3.42924781887246e-06 125000 -369.641196480423 0 0 60 (C1) n - 1
REM
REM in /home/bkarasulu/CARBON/AIRSS/Generating-Clusters/LCBOP/Higher-Symm/Only-C60/SD-CG/FIRE-HFTN
REM
REM
REM
REM
REM
REM ./C.cell (50c204cfd26239f34c78669fe23a5462)
REM
REM compiler GCC version 9.2.1 20190827 (Red Hat 9.2.1-1)
REM options -cpp -mtune=generic -march=x86-64 -g -O0 -fpre-include=/usr/include/finclude/math-vector-fortran.h
REM seed -1342667130 1638771803 2012714284 -1752302174 877238533 1195510016 -315812338 -604531723 -1896252088 -1051594039 -258998012 -811611968 1902990043 -1213947547 -383179881 -1538333706 1512895767 -278202286 462664046 -1005441982 1139065879 491208584 1045885230 -75618319 -1306729479 -756760215 -876062106 2013447380 1867090872 300454290 1705700860 889089856 1871330116
REM
CELL 1.54180   50.00000   50.00000   50.00000   90.00000   90.00000   90.00000
LATT -1
SFAC C  
C      1  0.5043310000000  0.4423300000000  0.5435180000000 1.0
C      1  0.4949900000000  0.4426040000000  0.4645970000000 1.0
C      1  0.5194510000000  0.5612840000000  0.5206320000000 1.0
C      1  0.4805060000000  0.5622810000000  0.4808510000000 1.0
C      1  0.4109030000000  0.4885780000000  0.5045350000000 1.0
C      1  0.5901620000000  0.4880330000000  0.4915730000000 1.0
C      1  0.4128670000000  0.5133230000000  0.4941810000000 1.0
C      1  0.5876220000000  0.5118560000000  0.5037730000000 1.0
C      1  0.5297840000000  0.5074000000000  0.5252950000000 1.0
C      1  0.4687400000000  0.5079140000000  0.4733740000000 1.0
C      1  0.5304770000000  0.4805810000000  0.5340770000000 1.0
C      1  0.4674820000000  0.4810980000000  0.4638880000000 1.0
C      1  0.4652910000000  0.5279100000000  0.4527580000000 1.0
C      1  0.5329950000000  0.5256300000000  0.5475180000000 1.0
C      1  0.4769080000000  0.4763630000000  0.4361430000000 1.0
C      1  0.5296800000000  0.4745310000000  0.5628330000000 1.0
C      1  0.4445020000000  0.5472200000000  0.5130680000000 1.0
C      1  0.5552060000000  0.5460980000000  0.4872340000000 1.0
C      1  0.4306330000000  0.4615540000000  0.5454320000000 1.0
C      1  0.5672940000000  0.4592300000000  0.4529810000000 1.0
C      1  0.4335140000000  0.4821780000000  0.5650740000000 1.0
C      1  0.5608780000000  0.4775880000000  0.4323680000000 1.0
C      1  0.4432290000000  0.5321650000000  0.5371590000000 1.0
C      1  0.5563220000000  0.5319960000000  0.4623510000000 1.0
C      1  0.5145440000000  0.5103940000000  0.5005040000000 1.0
C      1  0.4851300000000  0.5112500000000  0.4973680000000 1.0
C      1  0.5120030000000  0.4614530000000  0.5182590000000 1.0
C      1  0.4769740000000  0.4598930000000  0.4821430000000 1.0
C      1  0.4793290000000  0.4509170000000  0.5559540000000 1.0
C      1  0.5228140000000  0.4450520000000  0.4710310000000 1.0
C      1  0.4917380000000  0.5540460000000  0.5280480000000 1.0
C      1  0.5080580000000  0.5545730000000  0.4732070000000 1.0
C      1  0.4817060000000  0.4771630000000  0.5705370000000 1.0
C      1  0.5172290000000  0.4930850000000  0.4139380000000 1.0
C      1  0.4879160000000  0.5323240000000  0.5489540000000 1.0
C      1  0.5113210000000  0.5336580000000  0.4515960000000 1.0
C      1  0.4884680000000  0.5237820000000  0.4363060000000 1.0
C      1  0.5095470000000  0.5194010000000  0.5639660000000 1.0
C      1  0.4910670000000  0.4980360000000  0.4236450000000 1.0
C      1  0.5075460000000  0.4910880000000  0.5726070000000 1.0
C      1  0.4710420000000  0.5587090000000  0.5080380000000 1.0
C      1  0.5289570000000  0.5579570000000  0.4932650000000 1.0
C      1  0.4530100000000  0.4437120000000  0.5470240000000 1.0
C      1  0.5471600000000  0.4394680000000  0.4578740000000 1.0
C      1  0.4616360000000  0.5544780000000  0.4610650000000 1.0
C      1  0.5375240000000  0.5524590000000  0.5406950000000 1.0
C      1  0.4871000000000  0.4493660000000  0.4374650000000 1.0
C      1  0.5261910000000  0.4457470000000  0.5628880000000 1.0
C      1  0.5397300000000  0.4960930000000  0.4308600000000 1.0
C      1  0.4591150000000  0.4943170000000  0.5658950000000 1.0
C      1  0.5344430000000  0.5128110000000  0.4552880000000 1.0
C      1  0.4648700000000  0.5128080000000  0.5432310000000 1.0
C      1  0.5750410000000  0.5358360000000  0.5047440000000 1.0
C      1  0.4248550000000  0.5376230000000  0.4949520000000 1.0
C      1  0.5840030000000  0.4689120000000  0.4737300000000 1.0
C      1  0.4168090000000  0.4689840000000  0.5219830000000 1.0
C      1  0.5257770000000  0.4663160000000  0.4895350000000 1.0
C      1  0.4826520000000  0.4684110000000  0.5097480000000 1.0
C      1  0.5271350000000  0.4947010000000  0.4796260000000 1.0
C      1  0.4737970000000  0.4954300000000  0.5188150000000 1.0
END
