TITL C-2323479-8056-82 1.58555608600475 125000 -326.233431972621 0 0 60 (C1) n - 1
REM
REM in /home/bkarasulu/CARBON/AIRSS/Generating-Clusters/LCBOP/Higher-Symm/Only-C60/SD-CG/FIRE-HFTN
REM
REM
REM
REM
REM
REM ./C.cell (50c204cfd26239f34c78669fe23a5462)
REM
REM compiler GCC version 9.2.1 20190827 (Red Hat 9.2.1-1)
REM options -cpp -mtune=generic -march=x86-64 -g -O0 -fpre-include=/usr/include/finclude/math-vector-fortran.h
REM seed -1467831062 -761261946 -289758534 475425889 1924700819 927088273 -271548299 -1799968633 2089381464 778425014 275362487 -235313156 1908026676 855576082 -281134863 -1400689517 687310468 1265037671 377319489 -322355206 -931971145 1173686714 53063132 1056677145 -987648026 -1889088994 2066138878 55759769 936107799 1841404701 192863210 -1791589782 640243947
REM
CELL 1.54180   50.00000   50.00000   50.00000   90.00000   90.00000   90.00000
LATT -1
SFAC C  
C      1  0.4840920000000  0.5872550000000  0.4701210000000 1.0
C      1  0.5028730000000  0.3987520000000  0.5025030000000 1.0
C      1  0.5210590000000  0.4337480000000  0.5601420000000 1.0
C      1  0.4814110000000  0.5751270000000  0.5554970000000 1.0
C      1  0.5971100000000  0.5074180000000  0.4774120000000 1.0
C      1  0.4288180000000  0.4810340000000  0.4438390000000 1.0
C      1  0.4444390000000  0.4305670000000  0.5738030000000 1.0
C      1  0.5707930000000  0.5729990000000  0.5465650000000 1.0
C      1  0.4341150000000  0.4524450000000  0.5056200000000 1.0
C      1  0.5570550000000  0.5586810000000  0.4822270000000 1.0
C      1  0.4554170000000  0.5320760000000  0.4926680000000 1.0
C      1  0.5499780000000  0.4579510000000  0.4851280000000 1.0
C      1  0.5734340000000  0.5750330000000  0.4665640000000 1.0
C      1  0.4082650000000  0.4624780000000  0.5089270000000 1.0
C      1  0.4468380000000  0.4955890000000  0.4292160000000 1.0
C      1  0.6221800000000  0.5199930000000  0.4653620000000 1.0
C      1  0.5314140000000  0.4845900000000  0.5517020000000 1.0
C      1  0.4698810000000  0.5239050000000  0.5580260000000 1.0
C      1  0.5893270000000  0.5896510000000  0.4519770000000 1.0
C      1  0.3839240000000  0.4708420000000  0.5130000000000 1.0
C      1  0.6234510000000  0.4648470000000  0.4711930000000 1.0
C      1  0.3768610000000  0.5391700000000  0.5003810000000 1.0
C      1  0.4033020000000  0.5389970000000  0.4986470000000 1.0
C      1  0.5990540000000  0.4773520000000  0.4766000000000 1.0
C      1  0.5953010000000  0.5163350000000  0.5065000000000 1.0
C      1  0.4027730000000  0.4891690000000  0.4462050000000 1.0
C      1  0.4755590000000  0.5497820000000  0.5572040000000 1.0
C      1  0.5264810000000  0.4588840000000  0.5558640000000 1.0
C      1  0.6694170000000  0.4413930000000  0.4611990000000 1.0
C      1  0.3244790000000  0.5360800000000  0.5036180000000 1.0
C      1  0.5009160000000  0.4792250000000  0.4853030000000 1.0
C      1  0.5028760000000  0.5076290000000  0.4844000000000 1.0
C      1  0.4341680000000  0.4328420000000  0.4445400000000 1.0
C      1  0.5713550000000  0.5110450000000  0.4349700000000 1.0
C      1  0.4492390000000  0.4589100000000  0.4824680000000 1.0
C      1  0.5523610000000  0.5316830000000  0.4745990000000 1.0
C      1  0.4295890000000  0.5368810000000  0.4960910000000 1.0
C      1  0.5758650000000  0.4624950000000  0.4817040000000 1.0
C      1  0.5241510000000  0.4637690000000  0.4863500000000 1.0
C      1  0.4800750000000  0.5230830000000  0.4890910000000 1.0
C      1  0.4787890000000  0.4033730000000  0.5113200000000 1.0
C      1  0.5036940000000  0.5871020000000  0.4872960000000 1.0
C      1  0.3504400000000  0.5378220000000  0.5019980000000 1.0
C      1  0.6465780000000  0.4529400000000  0.4661650000000 1.0
C      1  0.5729970000000  0.5168120000000  0.4617880000000 1.0
C      1  0.4373010000000  0.4571370000000  0.4567440000000 1.0
C      1  0.4758720000000  0.4669270000000  0.4848310000000 1.0
C      1  0.5272990000000  0.5199930000000  0.4787360000000 1.0
C      1  0.5526770000000  0.5593290000000  0.5312690000000 1.0
C      1  0.4498170000000  0.4459530000000  0.5518210000000 1.0
C      1  0.5357430000000  0.5102770000000  0.5468560000000 1.0
C      1  0.4648120000000  0.4979300000000  0.5567150000000 1.0
C      1  0.4338460000000  0.3890880000000  0.5206110000000 1.0
C      1  0.5300400000000  0.6138840000000  0.5171170000000 1.0
C      1  0.4525690000000  0.4089910000000  0.5192290000000 1.0
C      1  0.5261280000000  0.5903690000000  0.5036600000000 1.0
C      1  0.5418270000000  0.5352230000000  0.5403550000000 1.0
C      1  0.4592820000000  0.4720930000000  0.5548820000000 1.0
C      1  0.5451070000000  0.5692940000000  0.5057470000000 1.0
C      1  0.4454850000000  0.4357600000000  0.5256310000000 1.0
END
