TITL C-2323480-5884-68 0.216336669970413 125000 -365.625873532778 0 0 60 (C1) n - 1
REM
REM in /home/bkarasulu/CARBON/AIRSS/Generating-Clusters/LCBOP/Higher-Symm/Only-C60/SD-CG/FIRE-HFTN
REM
REM
REM
REM
REM
REM ./C.cell (50c204cfd26239f34c78669fe23a5462)
REM
REM compiler GCC version 9.2.1 20190827 (Red Hat 9.2.1-1)
REM options -cpp -mtune=generic -march=x86-64 -g -O0 -fpre-include=/usr/include/finclude/math-vector-fortran.h
REM seed 113901084 2129767360 -1226671588 -265181239 -136788677 1645654278 -565341477 -1911398315 311485308 -633200679 -86003446 -1982007879 -1661131188 1434015213 -1810455786 -867262286 -347379031 -1263539153 1381675026 -1489794657 1272433596 1022743271 -181271636 2050220437 -607504356 -503491089 -1969646595 -1879102314 -486255029 1690546723 516938045 1741218887 -21923701
REM
CELL 1.54180   50.00000   50.00000   50.00000   90.00000   90.00000   90.00000
LATT -1
SFAC C  
C      1  0.5205830000000  0.5360240000000  0.5338700000000 1.0
C      1  0.5052640000000  0.5163140000000  0.4598460000000 1.0
C      1  0.4171970000000  0.5980350000000  0.5495140000000 1.0
C      1  0.5331860000000  0.5450570000000  0.4874460000000 1.0
C      1  0.5769220000000  0.5213810000000  0.4853210000000 1.0
C      1  0.4372400000000  0.4872380000000  0.5253850000000 1.0
C      1  0.5458830000000  0.5464530000000  0.5418360000000 1.0
C      1  0.4037940000000  0.5738430000000  0.5543870000000 1.0
C      1  0.5168140000000  0.4595910000000  0.4425450000000 1.0
C      1  0.4686980000000  0.5013980000000  0.4318290000000 1.0
C      1  0.5988710000000  0.4328180000000  0.5055340000000 1.0
C      1  0.5171730000000  0.4835360000000  0.5338010000000 1.0
C      1  0.5046820000000  0.4600440000000  0.5438240000000 1.0
C      1  0.4181210000000  0.5037680000000  0.5340650000000 1.0
C      1  0.5243590000000  0.4803250000000  0.4850070000000 1.0
C      1  0.4404370000000  0.5333240000000  0.4608650000000 1.0
C      1  0.5619060000000  0.4866510000000  0.5138610000000 1.0
C      1  0.5124850000000  0.5459800000000  0.5080080000000 1.0
C      1  0.4393280000000  0.5453290000000  0.4861570000000 1.0
C      1  0.5651130000000  0.5503630000000  0.5228990000000 1.0
C      1  0.5840210000000  0.4709500000000  0.4755810000000 1.0
C      1  0.4926400000000  0.5161540000000  0.4333950000000 1.0
C      1  0.4674080000000  0.4624450000000  0.6149940000000 1.0
C      1  0.5665180000000  0.4337470000000  0.4481690000000 1.0
C      1  0.6019280000000  0.4524860000000  0.4874920000000 1.0
C      1  0.4809930000000  0.4342620000000  0.4608410000000 1.0
C      1  0.5546180000000  0.4101770000000  0.5172520000000 1.0
C      1  0.4889980000000  0.4539820000000  0.4423840000000 1.0
C      1  0.5242830000000  0.5385690000000  0.4617560000000 1.0
C      1  0.5016150000000  0.4965580000000  0.4795160000000 1.0
C      1  0.5357650000000  0.4674440000000  0.4621670000000 1.0
C      1  0.4596600000000  0.5618250000000  0.4979060000000 1.0
C      1  0.4464310000000  0.5150710000000  0.4422430000000 1.0
C      1  0.4715420000000  0.4732860000000  0.4314120000000 1.0
C      1  0.5395080000000  0.4003480000000  0.4732410000000 1.0
C      1  0.5245070000000  0.5499380000000  0.4352900000000 1.0
C      1  0.4774350000000  0.4911350000000  0.4923590000000 1.0
C      1  0.5549870000000  0.4100530000000  0.4535590000000 1.0
C      1  0.5042970000000  0.4369020000000  0.5277330000000 1.0
C      1  0.5126190000000  0.5102020000000  0.5421100000000 1.0
C      1  0.4096800000000  0.5297910000000  0.5279730000000 1.0
C      1  0.4114900000000  0.6210410000000  0.5641200000000 1.0
C      1  0.4511010000000  0.5853460000000  0.5108030000000 1.0
C      1  0.4887710000000  0.4229780000000  0.4838590000000 1.0
C      1  0.5327690000000  0.4082960000000  0.4995370000000 1.0
C      1  0.5077860000000  0.4212180000000  0.5046370000000 1.0
C      1  0.4862170000000  0.5535410000000  0.5016990000000 1.0
C      1  0.4579700000000  0.4840990000000  0.5089950000000 1.0
C      1  0.5346020000000  0.4808750000000  0.5115240000000 1.0
C      1  0.4928220000000  0.4598770000000  0.5690580000000 1.0
C      1  0.4366170000000  0.5979580000000  0.5292310000000 1.0
C      1  0.5062950000000  0.5369370000000  0.4188940000000 1.0
C      1  0.4007970000000  0.5484530000000  0.5467720000000 1.0
C      1  0.4173450000000  0.5392890000000  0.5026310000000 1.0
C      1  0.5630560000000  0.4594400000000  0.4595530000000 1.0
C      1  0.5801360000000  0.4182550000000  0.5179140000000 1.0
C      1  0.5777790000000  0.4938500000000  0.4914060000000 1.0
C      1  0.4061520000000  0.6425790000000  0.5777890000000 1.0
C      1  0.4801290000000  0.4610540000000  0.5922820000000 1.0
C      1  0.5606580000000  0.5421190000000  0.4959230000000 1.0
END
