TITL C-2323490-8774-216 2.58953119311889e-05 125000 -374.503580398544 0 0 60 (D6h) n - 1
REM
REM in /home/bkarasulu/CARBON/AIRSS/Generating-Clusters/LCBOP/Higher-Symm/Only-C60/SD-CG/FIRE-HFTN
REM
REM
REM
REM
REM
REM ./C.cell (50c204cfd26239f34c78669fe23a5462)
REM
REM compiler GCC version 9.2.1 20190827 (Red Hat 9.2.1-1)
REM options -cpp -mtune=generic -march=x86-64 -g -O0 -fpre-include=/usr/include/finclude/math-vector-fortran.h
REM seed -270850164 -869352012 -2128455532 763242269 -1257363579 1961472714 1139575246 -1071381533 1139149151 -1438646333 644117083 -139091933 1092664606 1588610442 -1276339671 -1141764065 40809317 956599284 1547247762 1730265615 21269179 1450602995 272915003 1101774017 671940785 947812907 916893298 -1296186240 -1987957349 1693981016 1064491297 158768009 1279581730
REM
CELL 1.54180   50.00000   50.00000   50.00000   90.00000   90.00000   90.00000
LATT -1
SFAC C  
C      1  0.4416810000000  0.5466920000000  0.4832400000000 1.0
C      1  0.4416820000000  0.5088320000000  0.4511830000000 1.0
C      1  0.4416810000000  0.4621390000000  0.4679430000000 1.0
C      1  0.4416810000000  0.4533080000000  0.5167590000000 1.0
C      1  0.4416810000000  0.4911680000000  0.5488160000000 1.0
C      1  0.4416810000000  0.5378610000000  0.5320560000000 1.0
C      1  0.5534110000000  0.5466920000000  0.4832410000000 1.0
C      1  0.5534110000000  0.5088320000000  0.4511840000000 1.0
C      1  0.5534110000000  0.4621390000000  0.4679440000000 1.0
C      1  0.5534100000000  0.4533080000000  0.5167600000000 1.0
C      1  0.5534100000000  0.4911680000000  0.5488170000000 1.0
C      1  0.5534100000000  0.5378610000000  0.5320570000000 1.0
C      1  0.4729820000000  0.4760630000000  0.4333120000000 1.0
C      1  0.4729810000000  0.4302780000000  0.4873860000000 1.0
C      1  0.4729810000000  0.4542150000000  0.5540740000000 1.0
C      1  0.4729810000000  0.5239370000000  0.5666880000000 1.0
C      1  0.4729810000000  0.5697220000000  0.5126130000000 1.0
C      1  0.4729820000000  0.5457850000000  0.4459250000000 1.0
C      1  0.5221110000000  0.4760630000000  0.4333120000000 1.0
C      1  0.5221110000000  0.4302780000000  0.4873870000000 1.0
C      1  0.5221100000000  0.4542150000000  0.5540750000000 1.0
C      1  0.5221100000000  0.5239370000000  0.5666880000000 1.0
C      1  0.5221100000000  0.5697220000000  0.5126140000000 1.0
C      1  0.5221110000000  0.5457850000000  0.4459260000000 1.0
C      1  0.5115300000000  0.4037240000000  0.4825830000000 1.0
C      1  0.5115290000000  0.4367780000000  0.5746690000000 1.0
C      1  0.5115290000000  0.5330540000000  0.5920860000000 1.0
C      1  0.5115290000000  0.5962760000000  0.5174180000000 1.0
C      1  0.5115300000000  0.5632220000000  0.4253320000000 1.0
C      1  0.5115300000000  0.4669460000000  0.4079140000000 1.0
C      1  0.4835620000000  0.4037240000000  0.4825820000000 1.0
C      1  0.4835610000000  0.4367780000000  0.5746680000000 1.0
C      1  0.4835610000000  0.5330540000000  0.5920860000000 1.0
C      1  0.4835620000000  0.5962760000000  0.5174170000000 1.0
C      1  0.4835630000000  0.5632220000000  0.4253310000000 1.0
C      1  0.4835630000000  0.4669460000000  0.4079140000000 1.0
C      1  0.5457510000000  0.5185240000000  0.5516090000000 1.0
C      1  0.5457510000000  0.5539560000000  0.5097620000000 1.0
C      1  0.5457520000000  0.5354320000000  0.4581540000000 1.0
C      1  0.5457520000000  0.4814760000000  0.4483920000000 1.0
C      1  0.5457520000000  0.4460440000000  0.4902390000000 1.0
C      1  0.5457510000000  0.4645680000000  0.5418470000000 1.0
C      1  0.4493400000000  0.5185240000000  0.5516080000000 1.0
C      1  0.4493400000000  0.5539560000000  0.5097610000000 1.0
C      1  0.4493410000000  0.5354320000000  0.4581530000000 1.0
C      1  0.4493410000000  0.4814760000000  0.4483910000000 1.0
C      1  0.4493400000000  0.4460440000000  0.4902380000000 1.0
C      1  0.4493400000000  0.4645680000000  0.5418460000000 1.0
C      1  0.4975460000000  0.5356350000000  0.4579140000000 1.0
C      1  0.4975460000000  0.4643650000000  0.5420860000000 1.0
C      1  0.4975450000000  0.5186310000000  0.5519040000000 1.0
C      1  0.4975460000000  0.5542650000000  0.5098170000000 1.0
C      1  0.4975460000000  0.4813690000000  0.4480960000000 1.0
C      1  0.4975460000000  0.4457350000000  0.4901830000000 1.0
C      1  0.4975460000000  0.5271800000000  0.5049170000000 1.0
C      1  0.4975460000000  0.5178480000000  0.4789200000000 1.0
C      1  0.4975460000000  0.4821520000000  0.5210800000000 1.0
C      1  0.4975460000000  0.5093310000000  0.5259970000000 1.0
C      1  0.4975460000000  0.4728200000000  0.4950830000000 1.0
C      1  0.4975460000000  0.4906690000000  0.4740030000000 1.0
END
