TITL C-2323485-8600-112 -0.00129420000922548 125000 -346.891204038909 0 0 60 (C1) n - 1
REM
REM in /home/bkarasulu/CARBON/AIRSS/Generating-Clusters/LCBOP/Higher-Symm/Only-C60/SD-CG/FIRE-HFTN
REM
REM
REM
REM
REM
REM ./C.cell (50c204cfd26239f34c78669fe23a5462)
REM
REM compiler GCC version 9.2.1 20190827 (Red Hat 9.2.1-1)
REM options -cpp -mtune=generic -march=x86-64 -g -O0 -fpre-include=/usr/include/finclude/math-vector-fortran.h
REM seed -205436606 1822470901 -694440319 379111642 -679432022 751628734 -1527575165 324944909 -1868541769 780108557 1933037800 -1665421402 1260323148 18559593 203329065 1233457801 1876021854 -2108495495 -730627366 475605208 -761914569 -911894855 346681198 1756639405 792784588 2036766843 1692354042 -1541149373 -1461846967 -1151717626 -835453328 -780040425 1431486070
REM
CELL 1.54180   50.00000   50.00000   50.00000   90.00000   90.00000   90.00000
LATT -1
SFAC C  
C      1  0.4639480000000  0.3982680000000  0.5281040000000 1.0
C      1  0.5427930000000  0.4287990000000  0.4844740000000 1.0
C      1  0.5091010000000  0.4710520000000  0.5728220000000 1.0
C      1  0.4575140000000  0.4499160000000  0.4766750000000 1.0
C      1  0.4840740000000  0.5289150000000  0.5333670000000 1.0
C      1  0.5266190000000  0.5180440000000  0.4642210000000 1.0
C      1  0.5241450000000  0.5165520000000  0.5125570000000 1.0
C      1  0.4845170000000  0.5268760000000  0.4799410000000 1.0
C      1  0.5753770000000  0.5427080000000  0.4746850000000 1.0
C      1  0.3977690000000  0.5249030000000  0.5393130000000 1.0
C      1  0.4179780000000  0.5605810000000  0.5190500000000 1.0
C      1  0.5753640000000  0.5445100000000  0.5197120000000 1.0
C      1  0.4681590000000  0.4207150000000  0.5406570000000 1.0
C      1  0.5245780000000  0.4188690000000  0.4648920000000 1.0
C      1  0.5000350000000  0.4561280000000  0.5517490000000 1.0
C      1  0.4825490000000  0.4460160000000  0.4637500000000 1.0
C      1  0.5331240000000  0.4976870000000  0.4418540000000 1.0
C      1  0.4664550000000  0.5093620000000  0.5220340000000 1.0
C      1  0.4670880000000  0.5268280000000  0.4571850000000 1.0
C      1  0.5480850000000  0.5031800000000  0.5219390000000 1.0
C      1  0.4797180000000  0.5353770000000  0.4329660000000 1.0
C      1  0.5486210000000  0.5096750000000  0.5499100000000 1.0
C      1  0.5240510000000  0.5157600000000  0.4182800000000 1.0
C      1  0.5256390000000  0.5408390000000  0.5819660000000 1.0
C      1  0.5562480000000  0.5634360000000  0.4818660000000 1.0
C      1  0.3834850000000  0.5480900000000  0.5457190000000 1.0
C      1  0.3957940000000  0.5698250000000  0.5333750000000 1.0
C      1  0.5539260000000  0.5628910000000  0.5124160000000 1.0
C      1  0.4396920000000  0.5145850000000  0.5111320000000 1.0
C      1  0.5589830000000  0.4866820000000  0.4532040000000 1.0
C      1  0.5676740000000  0.4998960000000  0.5010650000000 1.0
C      1  0.4426570000000  0.5131290000000  0.4622340000000 1.0
C      1  0.5133160000000  0.4491260000000  0.4295750000000 1.0
C      1  0.4528080000000  0.4603080000000  0.5637440000000 1.0
C      1  0.4367450000000  0.4987750000000  0.4863130000000 1.0
C      1  0.5612340000000  0.4792750000000  0.4811110000000 1.0
C      1  0.5132910000000  0.5376510000000  0.5321850000000 1.0
C      1  0.5222300000000  0.5451400000000  0.4533380000000 1.0
C      1  0.5078900000000  0.5385160000000  0.4285010000000 1.0
C      1  0.5293190000000  0.5299760000000  0.5574020000000 1.0
C      1  0.4518770000000  0.4739020000000  0.4911950000000 1.0
C      1  0.5438320000000  0.4575130000000  0.4895190000000 1.0
C      1  0.4735410000000  0.4456600000000  0.5520490000000 1.0
C      1  0.5033230000000  0.4298300000000  0.4495010000000 1.0
C      1  0.5133520000000  0.4753890000000  0.4413970000000 1.0
C      1  0.4336370000000  0.4746050000000  0.5740990000000 1.0
C      1  0.5172670000000  0.4496180000000  0.5302990000000 1.0
C      1  0.4963840000000  0.4720400000000  0.4645180000000 1.0
C      1  0.5293390000000  0.5656720000000  0.4712460000000 1.0
C      1  0.5246670000000  0.5629630000000  0.5184410000000 1.0
C      1  0.5810330000000  0.5253010000000  0.4974350000000 1.0
C      1  0.4205860000000  0.5314350000000  0.5219650000000 1.0
C      1  0.5209090000000  0.4651060000000  0.5062590000000 1.0
C      1  0.4745100000000  0.4845520000000  0.5074870000000 1.0
C      1  0.5316330000000  0.4249280000000  0.5307100000000 1.0
C      1  0.5006820000000  0.4825540000000  0.4922720000000 1.0
C      1  0.5120750000000  0.5729130000000  0.4937800000000 1.0
C      1  0.5097030000000  0.5114420000000  0.4876470000000 1.0
C      1  0.5442720000000  0.4143800000000  0.5090300000000 1.0
C      1  0.4890650000000  0.5873270000000  0.4923950000000 1.0
END
