TITL C-2323482-8828-121 -1.05697334422094e-05 125000 -360.365772913306 0 0 60 (C1) n - 1
REM
REM in /home/bkarasulu/CARBON/AIRSS/Generating-Clusters/LCBOP/Higher-Symm/Only-C60/SD-CG/FIRE-HFTN
REM
REM
REM
REM
REM
REM ./C.cell (50c204cfd26239f34c78669fe23a5462)
REM
REM compiler GCC version 9.2.1 20190827 (Red Hat 9.2.1-1)
REM options -cpp -mtune=generic -march=x86-64 -g -O0 -fpre-include=/usr/include/finclude/math-vector-fortran.h
REM seed -704904675 -255779344 -1588207827 -1787317896 -1768071417 180832782 -232306048 1118406473 -89684007 17770807 109088066 -224634664 -1756499863 506170633 -1515589429 -185972402 1638538104 -383589075 -2092291527 -1874168359 1797064540 -1556076428 -335931732 -2081679042 2012568052 89004777 1669159307 -1432555562 371574769 -957171432 1192510480 -1877305912 -1666254521
REM
CELL 1.54180   50.00000   50.00000   50.00000   90.00000   90.00000   90.00000
LATT -1
SFAC C  
C      1  0.4584630000000  0.4954790000000  0.5410850000000 1.0
C      1  0.4537140000000  0.4671450000000  0.4743860000000 1.0
C      1  0.4533230000000  0.5405550000000  0.4841590000000 1.0
C      1  0.5583800000000  0.4837220000000  0.4788230000000 1.0
C      1  0.5584180000000  0.5308010000000  0.5012860000000 1.0
C      1  0.5659590000000  0.4864610000000  0.5272670000000 1.0
C      1  0.5044280000000  0.4552710000000  0.4355480000000 1.0
C      1  0.5079010000000  0.5903330000000  0.4954080000000 1.0
C      1  0.5101320000000  0.4580180000000  0.5714960000000 1.0
C      1  0.4816970000000  0.4595380000000  0.5737800000000 1.0
C      1  0.4772540000000  0.4509340000000  0.4298110000000 1.0
C      1  0.4792140000000  0.5900880000000  0.4912320000000 1.0
C      1  0.5009080000000  0.5482220000000  0.5157940000000 1.0
C      1  0.5084270000000  0.4646830000000  0.5230450000000 1.0
C      1  0.4992020000000  0.4946260000000  0.4677810000000 1.0
C      1  0.4609480000000  0.5231850000000  0.5324190000000 1.0
C      1  0.4645340000000  0.4616220000000  0.5004070000000 1.0
C      1  0.4570470000000  0.5182410000000  0.4657550000000 1.0
C      1  0.5361180000000  0.5632780000000  0.4702380000000 1.0
C      1  0.5371270000000  0.4948450000000  0.5647010000000 1.0
C      1  0.5378830000000  0.4375330000000  0.4638790000000 1.0
C      1  0.5449980000000  0.5568320000000  0.4986270000000 1.0
C      1  0.5491850000000  0.4743930000000  0.5469060000000 1.0
C      1  0.5400300000000  0.4671400000000  0.4654390000000 1.0
C      1  0.5248320000000  0.4791180000000  0.5855050000000 1.0
C      1  0.5234790000000  0.4337700000000  0.4388470000000 1.0
C      1  0.5254710000000  0.5902040000000  0.4720830000000 1.0
C      1  0.5248870000000  0.4559670000000  0.5450960000000 1.0
C      1  0.5145460000000  0.4758510000000  0.4538670000000 1.0
C      1  0.5205820000000  0.5693480000000  0.5132030000000 1.0
C      1  0.4986890000000  0.5361660000000  0.4447490000000 1.0
C      1  0.5018360000000  0.5280860000000  0.5574140000000 1.0
C      1  0.5002870000000  0.4245650000000  0.4976400000000 1.0
C      1  0.5103180000000  0.4934660000000  0.5206420000000 1.0
C      1  0.5054620000000  0.5042070000000  0.4945300000000 1.0
C      1  0.5056980000000  0.5324080000000  0.4923700000000 1.0
C      1  0.4434450000000  0.4935330000000  0.4698610000000 1.0
C      1  0.4457270000000  0.5327820000000  0.5105520000000 1.0
C      1  0.4522940000000  0.4764860000000  0.5210890000000 1.0
C      1  0.4828000000000  0.5141960000000  0.4536040000000 1.0
C      1  0.4852870000000  0.5380190000000  0.5370750000000 1.0
C      1  0.4903030000000  0.4496920000000  0.5068320000000 1.0
C      1  0.5148630000000  0.5440160000000  0.4666570000000 1.0
C      1  0.5180480000000  0.5075090000000  0.5466660000000 1.0
C      1  0.5261690000000  0.4243390000000  0.4858970000000 1.0
C      1  0.4596070000000  0.4518750000000  0.4516850000000 1.0
C      1  0.4647040000000  0.5668770000000  0.4820940000000 1.0
C      1  0.4683310000000  0.4831040000000  0.5646610000000 1.0
C      1  0.4671760000000  0.4382630000000  0.5844150000000 1.0
C      1  0.4682340000000  0.4462490000000  0.4039090000000 1.0
C      1  0.4648600000000  0.6135210000000  0.4964910000000 1.0
C      1  0.5587630000000  0.5125750000000  0.4782860000000 1.0
C      1  0.5663110000000  0.5157030000000  0.5246370000000 1.0
C      1  0.5703110000000  0.4733800000000  0.5025430000000 1.0
C      1  0.4599610000000  0.4419420000000  0.3795740000000 1.0
C      1  0.4515170000000  0.6353310000000  0.5015370000000 1.0
C      1  0.4535200000000  0.4181040000000  0.5937040000000 1.0
C      1  0.4983080000000  0.5472140000000  0.4200130000000 1.0
C      1  0.5024430000000  0.5375380000000  0.5828550000000 1.0
C      1  0.4856410000000  0.4016500000000  0.5001390000000 1.0
END
