TITL C-2323482-8828-475 616.634241610086 125000 -341.920570402294 0 0 60 (C1) n - 1
REM
REM in /home/bkarasulu/CARBON/AIRSS/Generating-Clusters/LCBOP/Higher-Symm/Only-C60/SD-CG/FIRE-HFTN
REM
REM
REM
REM
REM
REM ./C.cell (50c204cfd26239f34c78669fe23a5462)
REM
REM compiler GCC version 9.2.1 20190827 (Red Hat 9.2.1-1)
REM options -cpp -mtune=generic -march=x86-64 -g -O0 -fpre-include=/usr/include/finclude/math-vector-fortran.h
REM seed -69668419 -817355733 1447527852 -1894986969 -1324708774 1112651 -435251017 660140908 1928713725 -2115730617 161756804 113211940 750776388 538150745 -2032672829 -1749396305 -1078338822 -1001534406 -1454849325 -1844408476 1741230343 -1068513754 245945516 -1046595640 -1503192034 -420549447 464664307 -1828022323 -617761649 892396608 843966973 -1780079523 -1551471904
REM
CELL 1.54180   50.00000   50.00000   50.00000   90.00000   90.00000   90.00000
LATT -1
SFAC C  
C      1  0.4542640000000  0.5494450000000  0.4929750000000 1.0
C      1  0.4910140000000  0.5545940000000  0.5421830000000 1.0
C      1  0.5409190000000  0.5552520000000  0.5032910000000 1.0
C      1  0.5039190000000  0.5508550000000  0.4547410000000 1.0
C      1  0.4551760000000  0.4491430000000  0.4950340000000 1.0
C      1  0.4935010000000  0.4508860000000  0.5445960000000 1.0
C      1  0.5429070000000  0.4479000000000  0.5037150000000 1.0
C      1  0.5052690000000  0.4508800000000  0.4568050000000 1.0
C      1  0.4630750000000  0.4680910000000  0.4733320000000 1.0
C      1  0.4735020000000  0.4713940000000  0.5364460000000 1.0
C      1  0.5378690000000  0.4665810000000  0.5278990000000 1.0
C      1  0.5284100000000  0.4714110000000  0.4625080000000 1.0
C      1  0.4634680000000  0.5280890000000  0.4727480000000 1.0
C      1  0.4713330000000  0.5315090000000  0.5366690000000 1.0
C      1  0.5345990000000  0.5389530000000  0.5262860000000 1.0
C      1  0.5267380000000  0.5327410000000  0.4620270000000 1.0
C      1  0.4483880000000  0.4898030000000  0.6019540000000 1.0
C      1  0.5868410000000  0.4849790000000  0.5480000000000 1.0
C      1  0.5432100000000  0.5044920000000  0.4202630000000 1.0
C      1  0.3973920000000  0.4892750000000  0.4502990000000 1.0
C      1  0.4565190000000  0.4992300000000  0.5790540000000 1.0
C      1  0.6086670000000  0.4964010000000  0.5565270000000 1.0
C      1  0.5511130000000  0.5142040000000  0.3974010000000 1.0
C      1  0.4207950000000  0.4974200000000  0.4583840000000 1.0
C      1  0.5531460000000  0.4633220000000  0.4795960000000 1.0
C      1  0.4793060000000  0.4638050000000  0.4486900000000 1.0
C      1  0.4491410000000  0.4649050000000  0.5204220000000 1.0
C      1  0.5188120000000  0.4641890000000  0.5527160000000 1.0
C      1  0.5500790000000  0.5389860000000  0.4793570000000 1.0
C      1  0.4795580000000  0.5352340000000  0.4471310000000 1.0
C      1  0.4465210000000  0.5363900000000  0.5186250000000 1.0
C      1  0.5173410000000  0.5420920000000  0.5499210000000 1.0
C      1  0.4816300000000  0.4829670000000  0.4884030000000 1.0
C      1  0.4905670000000  0.4885250000000  0.5206790000000 1.0
C      1  0.5215540000000  0.4867720000000  0.5135410000000 1.0
C      1  0.5153420000000  0.4864330000000  0.4837870000000 1.0
C      1  0.4858590000000  0.5178410000000  0.4888370000000 1.0
C      1  0.4884070000000  0.5178480000000  0.5173660000000 1.0
C      1  0.5279420000000  0.5138340000000  0.5173040000000 1.0
C      1  0.5130630000000  0.5147560000000  0.4787420000000 1.0
C      1  0.5184090000000  0.4899610000000  0.5676450000000 1.0
C      1  0.5695460000000  0.4880050000000  0.4820730000000 1.0
C      1  0.4791170000000  0.4856530000000  0.4300680000000 1.0
C      1  0.4299510000000  0.4864010000000  0.5199150000000 1.0
C      1  0.5179630000000  0.5176920000000  0.5667860000000 1.0
C      1  0.5679630000000  0.5157080000000  0.4819110000000 1.0
C      1  0.4799550000000  0.5129060000000  0.4288260000000 1.0
C      1  0.4286400000000  0.5136530000000  0.5190360000000 1.0
C      1  0.5213270000000  0.5750680000000  0.4992520000000 1.0
C      1  0.4985050000000  0.5711160000000  0.4749720000000 1.0
C      1  0.4744460000000  0.5701730000000  0.4951580000000 1.0
C      1  0.4920940000000  0.5727570000000  0.5195660000000 1.0
C      1  0.5215200000000  0.4297350000000  0.5003010000000 1.0
C      1  0.5018390000000  0.4311430000000  0.4783480000000 1.0
C      1  0.4769890000000  0.4300310000000  0.4970480000000 1.0
C      1  0.4957890000000  0.4296680000000  0.5257850000000 1.0
C      1  0.4446280000000  0.5050310000000  0.4671590000000 1.0
C      1  0.4653690000000  0.5079450000000  0.5556570000000 1.0
C      1  0.5643080000000  0.4746210000000  0.5387100000000 1.0
C      1  0.5344820000000  0.4952450000000  0.4435290000000 1.0
END
