TITL C-2323488-8613-575 5.33326051552077e-06 125000 -356.660374973619 0 0 60 (C1) n - 1
REM
REM in /home/bkarasulu/CARBON/AIRSS/Generating-Clusters/LCBOP/Higher-Symm/Only-C60/SD-CG/FIRE-HFTN
REM
REM
REM
REM
REM
REM ./C.cell (50c204cfd26239f34c78669fe23a5462)
REM
REM compiler GCC version 9.2.1 20190827 (Red Hat 9.2.1-1)
REM options -cpp -mtune=generic -march=x86-64 -g -O0 -fpre-include=/usr/include/finclude/math-vector-fortran.h
REM seed 1817427945 1222558256 462574891 758918349 2046452911 -337832300 1449081518 -847460867 -625786220 689483659 417045815 -1778670095 1495276825 -1337059493 -595231541 467531273 92000188 1256740299 381883979 -426019742 -158936766 1374148902 -1528498674 -2110723883 -1952782867 -2000407929 544007458 -817841817 700060951 43503219 528368567 -693755344 -947656139
REM
CELL 1.54180   50.00000   50.00000   50.00000   90.00000   90.00000   90.00000
LATT -1
SFAC C  
C      1  0.5310590000000  0.4902510000000  0.5205830000000 1.0
C      1  0.4640930000000  0.5117430000000  0.5315300000000 1.0
C      1  0.4529680000000  0.5280580000000  0.5725720000000 1.0
C      1  0.5501520000000  0.4726780000000  0.5608630000000 1.0
C      1  0.4241950000000  0.4957450000000  0.4760310000000 1.0
C      1  0.5645950000000  0.4976330000000  0.4611350000000 1.0
C      1  0.4904580000000  0.5249040000000  0.4131570000000 1.0
C      1  0.5294160000000  0.4776410000000  0.4262600000000 1.0
C      1  0.4580450000000  0.4345570000000  0.5084480000000 1.0
C      1  0.5509810000000  0.5649350000000  0.5047870000000 1.0
C      1  0.5404380000000  0.5253180000000  0.4294100000000 1.0
C      1  0.4769230000000  0.4802610000000  0.4312690000000 1.0
C      1  0.5162210000000  0.5315740000000  0.4167800000000 1.0
C      1  0.5032430000000  0.4700310000000  0.4251160000000 1.0
C      1  0.5569760000000  0.4778810000000  0.4813490000000 1.0
C      1  0.4240130000000  0.5197630000000  0.4894400000000 1.0
C      1  0.4899450000000  0.4438970000000  0.5462690000000 1.0
C      1  0.5112670000000  0.5586940000000  0.5399640000000 1.0
C      1  0.4632790000000  0.4325490000000  0.5378450000000 1.0
C      1  0.5345190000000  0.5703600000000  0.5262160000000 1.0
C      1  0.4681490000000  0.5075400000000  0.5826080000000 1.0
C      1  0.5395120000000  0.4933210000000  0.5756140000000 1.0
C      1  0.4982780000000  0.5297520000000  0.4994140000000 1.0
C      1  0.4814370000000  0.4757000000000  0.5055160000000 1.0
C      1  0.5660010000000  0.5274540000000  0.4704850000000 1.0
C      1  0.4398050000000  0.4710970000000  0.4716090000000 1.0
C      1  0.4564620000000  0.5544280000000  0.5252070000000 1.0
C      1  0.5361030000000  0.4447410000000  0.5157060000000 1.0
C      1  0.5457580000000  0.4496670000000  0.4861900000000 1.0
C      1  0.4429110000000  0.5406680000000  0.4943530000000 1.0
C      1  0.5331000000000  0.4916380000000  0.4913470000000 1.0
C      1  0.4849190000000  0.4885270000000  0.4775710000000 1.0
C      1  0.4821240000000  0.5180460000000  0.4782950000000 1.0
C      1  0.5132970000000  0.4806690000000  0.4731900000000 1.0
C      1  0.4327060000000  0.4714380000000  0.5172410000000 1.0
C      1  0.5649990000000  0.5249290000000  0.5202840000000 1.0
C      1  0.4935240000000  0.5160830000000  0.5267080000000 1.0
C      1  0.5020500000000  0.4864980000000  0.5263270000000 1.0
C      1  0.4929070000000  0.4723410000000  0.5529410000000 1.0
C      1  0.5157020000000  0.5283650000000  0.5464950000000 1.0
C      1  0.4377820000000  0.4522460000000  0.4957460000000 1.0
C      1  0.5643500000000  0.5404770000000  0.4963780000000 1.0
C      1  0.4629350000000  0.5404420000000  0.4735500000000 1.0
C      1  0.5207570000000  0.4518110000000  0.4692650000000 1.0
C      1  0.4911800000000  0.4934460000000  0.5734960000000 1.0
C      1  0.5156780000000  0.5095140000000  0.5716000000000 1.0
C      1  0.4852950000000  0.5647050000000  0.5247730000000 1.0
C      1  0.5073820000000  0.4375980000000  0.5220510000000 1.0
C      1  0.5410690000000  0.5162740000000  0.5320780000000 1.0
C      1  0.4552580000000  0.4875400000000  0.5204250000000 1.0
C      1  0.4653390000000  0.4763390000000  0.4578070000000 1.0
C      1  0.5549770000000  0.5419310000000  0.4475150000000 1.0
C      1  0.5448710000000  0.4664310000000  0.5335270000000 1.0
C      1  0.4521200000000  0.5337990000000  0.5448480000000 1.0
C      1  0.5474680000000  0.4975340000000  0.4359380000000 1.0
C      1  0.4726060000000  0.5052950000000  0.4183680000000 1.0
C      1  0.4984610000000  0.4355170000000  0.4746510000000 1.0
C      1  0.4791590000000  0.5645540000000  0.4743580000000 1.0
C      1  0.4949830000000  0.5593700000000  0.4976130000000 1.0
C      1  0.4857990000000  0.4438000000000  0.4998870000000 1.0
END
