TITL C-2323492-8884-510 0.315058327965782 125000 -364.665681154777 0 0 60 (D3h) n - 1
REM
REM in /home/bkarasulu/CARBON/AIRSS/Generating-Clusters/LCBOP/Higher-Symm/Only-C60/SD-CG/FIRE-HFTN
REM
REM
REM
REM
REM
REM ./C.cell (50c204cfd26239f34c78669fe23a5462)
REM
REM compiler GCC version 9.2.1 20190827 (Red Hat 9.2.1-1)
REM options -cpp -mtune=generic -march=x86-64 -g -O0 -fpre-include=/usr/include/finclude/math-vector-fortran.h
REM seed 1494349907 309799222 1836246180 1015755788 -1089341308 927007148 -222658419 -2085230069 1853921755 -1424925269 -255727462 1150352896 1878119317 -145937023 1312157262 -1346102591 648451815 1245510877 -494693090 -833835607 947513722 1175438506 844101414 1612126029 -1848158056 -1842685243 -1259619092 -1501699670 1057827324 -1272076210 -534114633 -1624537764 1054868252
REM
CELL 1.54180   50.00000   50.00000   50.00000   90.00000   90.00000   90.00000
LATT -1
SFAC C  
C      1  0.5904230000000  0.4703550000000  0.4995800000000 1.0
C      1  0.4291150000000  0.4365130000000  0.5002290000000 1.0
C      1  0.4804620000000  0.5931320000000  0.5001920000000 1.0
C      1  0.5950910000000  0.4964180000000  0.4995900000000 1.0
C      1  0.4555570000000  0.5841430000000  0.5002880000000 1.0
C      1  0.4493520000000  0.4194390000000  0.5001220000000 1.0
C      1  0.4069710000000  0.5845310000000  0.5004950000000 1.0
C      1  0.6197200000000  0.5383010000000  0.4995350000000 1.0
C      1  0.4733090000000  0.3771680000000  0.4999710000000 1.0
C      1  0.3834150000000  0.4530130000000  0.5004420000000 1.0
C      1  0.5989830000000  0.4225270000000  0.4994870000000 1.0
C      1  0.5176020000000  0.6244600000000  0.5000710000000 1.0
C      1  0.4733000000000  0.4051350000000  0.5000030000000 1.0
C      1  0.4311950000000  0.5705550000000  0.5003760000000 1.0
C      1  0.5955050000000  0.5243100000000  0.4996210000000 1.0
C      1  0.5078870000000  0.5982350000000  0.5000820000000 1.0
C      1  0.4109830000000  0.4577120000000  0.5003300000000 1.0
C      1  0.5811300000000  0.4440530000000  0.4995880000000 1.0
C      1  0.3328390000000  0.5682340000000  0.5007910000000 1.0
C      1  0.6426730000000  0.6106500000000  0.4995220000000 1.0
C      1  0.5244880000000  0.3211160000000  0.4996860000000 1.0
C      1  0.3195470000000  0.4940270000000  0.5007610000000 1.0
C      1  0.5953980000000  0.3467090000000  0.4994130000000 1.0
C      1  0.5850540000000  0.6592640000000  0.4998250000000 1.0
C      1  0.3350020000000  0.4724480000000  0.5006710000000 1.0
C      1  0.5586390000000  0.6566690000000  0.4999340000000 1.0
C      1  0.6063580000000  0.3708830000000  0.4993950000000 1.0
C      1  0.3548230000000  0.5831070000000  0.5007150000000 1.0
C      1  0.5006160000000  0.3327180000000  0.4998020000000 1.0
C      1  0.6445620000000  0.5841750000000  0.4994830000000 1.0
C      1  0.5378330000000  0.5658110000000  0.5235620000000 1.0
C      1  0.5382530000000  0.4343760000000  0.5234070000000 1.0
C      1  0.4242170000000  0.4997300000000  0.5239690000000 1.0
C      1  0.5124330000000  0.4251860000000  0.4762130000000 1.0
C      1  0.5584470000000  0.5483040000000  0.4761610000000 1.0
C      1  0.4288180000000  0.5265930000000  0.4766880000000 1.0
C      1  0.4240160000000  0.4997850000000  0.4766780000000 1.0
C      1  0.5376310000000  0.5658670000000  0.4762700000000 1.0
C      1  0.5380510000000  0.4344310000000  0.4761150000000 1.0
C      1  0.4290190000000  0.5265380000000  0.5239800000000 1.0
C      1  0.5126350000000  0.4251300000000  0.5235050000000 1.0
C      1  0.5586480000000  0.5482490000000  0.5234530000000 1.0
C      1  0.5534600000000  0.4387430000000  0.4997000000000 1.0
C      1  0.4202200000000  0.4843300000000  0.5003220000000 1.0
C      1  0.5263200000000  0.5769270000000  0.4999780000000 1.0
C      1  0.5713980000000  0.5388940000000  0.4997410000000 1.0
C      1  0.4306190000000  0.5423860000000  0.5003450000000 1.0
C      1  0.4979830000000  0.4187200000000  0.4999140000000 1.0
C      1  0.3807710000000  0.5886750000000  0.5006110000000 1.0
C      1  0.6364100000000  0.5589190000000  0.4994880000000 1.0
C      1  0.4828200000000  0.3524050000000  0.4999010000000 1.0
C      1  0.3574050000000  0.4582200000000  0.5005590000000 1.0
C      1  0.6074790000000  0.3973980000000  0.4994210000000 1.0
C      1  0.5351160000000  0.6443820000000  0.5000200000000 1.0
C      1  0.3182920000000  0.5460300000000  0.5008270000000 1.0
C      1  0.6307170000000  0.6343500000000  0.4996010000000 1.0
C      1  0.5509900000000  0.3196200000000  0.4995710000000 1.0
C      1  0.3136120000000  0.5199000000000  0.5008170000000 1.0
C      1  0.5759590000000  0.3286320000000  0.4994750000000 1.0
C      1  0.6104280000000  0.6514680000000  0.4997070000000 1.0
END
