TITL C-2323477-5056-640 -8.55283179786944e-06 125000 -356.254757213379 0 0 60 (C1) n - 1
REM
REM in /home/bkarasulu/CARBON/AIRSS/Generating-Clusters/LCBOP/Higher-Symm/Only-C60/SD-CG/FIRE-HFTN
REM
REM
REM
REM
REM
REM ./C.cell (50c204cfd26239f34c78669fe23a5462)
REM
REM compiler GCC version 9.2.1 20190827 (Red Hat 9.2.1-1)
REM options -cpp -mtune=generic -march=x86-64 -g -O0 -fpre-include=/usr/include/finclude/math-vector-fortran.h
REM seed -36679748 480607762 -2115957973 -730940656 -1248179428 -1458756019 1969099360 87023378 1033576525 92338606 -394150511 -1156591013 1793584487 -1760836689 768086376 1299674166 1700245375 -848154892 -1599490443 -775490682 1876231415 -649155869 -1878695531 -2033293108 -1410245402 719769544 -1371891635 194659580 -1099402626 -2089873047 -572140239 915932806 -1413913827
REM
CELL 1.54180   50.00000   50.00000   50.00000   90.00000   90.00000   90.00000
LATT -1
SFAC C  
C      1  0.4844640000000  0.5657070000000  0.5104580000000 1.0
C      1  0.4826000000000  0.5182600000000  0.5659130000000 1.0
C      1  0.4989780000000  0.4270390000000  0.5328040000000 1.0
C      1  0.5164820000000  0.4252210000000  0.4616030000000 1.0
C      1  0.4783080000000  0.5293200000000  0.4322910000000 1.0
C      1  0.5219710000000  0.4181730000000  0.4902500000000 1.0
C      1  0.5209750000000  0.4890420000000  0.5740450000000 1.0
C      1  0.4962950000000  0.5413850000000  0.5528370000000 1.0
C      1  0.5200600000000  0.5563070000000  0.4425380000000 1.0
C      1  0.5221090000000  0.4643160000000  0.4341590000000 1.0
C      1  0.5342120000000  0.4473410000000  0.4533250000000 1.0
C      1  0.5063220000000  0.5320910000000  0.4382850000000 1.0
C      1  0.5119030000000  0.5695260000000  0.5063640000000 1.0
C      1  0.5411580000000  0.5089510000000  0.5700960000000 1.0
C      1  0.5261790000000  0.4315260000000  0.5386300000000 1.0
C      1  0.4584390000000  0.5440330000000  0.4460800000000 1.0
C      1  0.4934990000000  0.4635630000000  0.4331640000000 1.0
C      1  0.4966170000000  0.4232370000000  0.5051130000000 1.0
C      1  0.4937630000000  0.4919130000000  0.5641620000000 1.0
C      1  0.4768840000000  0.5505800000000  0.5327550000000 1.0
C      1  0.5436350000000  0.5215540000000  0.5429250000000 1.0
C      1  0.5335480000000  0.4588140000000  0.5393590000000 1.0
C      1  0.5493620000000  0.4585610000000  0.4803860000000 1.0
C      1  0.5210710000000  0.5096050000000  0.4486670000000 1.0
C      1  0.5271190000000  0.5513100000000  0.4912110000000 1.0
C      1  0.4803330000000  0.4729390000000  0.5449850000000 1.0
C      1  0.4526630000000  0.5306990000000  0.5308950000000 1.0
C      1  0.4522610000000  0.5401100000000  0.4748810000000 1.0
C      1  0.4735590000000  0.4812360000000  0.4430220000000 1.0
C      1  0.4784960000000  0.4384840000000  0.4879220000000 1.0
C      1  0.4543120000000  0.5200000000000  0.5592670000000 1.0
C      1  0.4818210000000  0.4444350000000  0.5474490000000 1.0
C      1  0.4876160000000  0.4295240000000  0.4616920000000 1.0
C      1  0.4694460000000  0.5033260000000  0.4258260000000 1.0
C      1  0.4687040000000  0.5623060000000  0.4876770000000 1.0
C      1  0.5340770000000  0.4654230000000  0.5668730000000 1.0
C      1  0.5248420000000  0.5457460000000  0.5490780000000 1.0
C      1  0.5338610000000  0.5606890000000  0.4653940000000 1.0
C      1  0.5320470000000  0.4903980000000  0.4312470000000 1.0
C      1  0.5471010000000  0.4318920000000  0.4959720000000 1.0
C      1  0.4016620000000  0.5503730000000  0.5290220000000 1.0
C      1  0.3849790000000  0.5560540000000  0.5075300000000 1.0
C      1  0.3987590000000  0.5523340000000  0.4836950000000 1.0
C      1  0.4259260000000  0.5440030000000  0.4891210000000 1.0
C      1  0.4278510000000  0.5422300000000  0.5195900000000 1.0
C      1  0.5709050000000  0.5125630000000  0.5285930000000 1.0
C      1  0.5797830000000  0.5231340000000  0.5023350000000 1.0
C      1  0.5809970000000  0.5032250000000  0.4822790000000 1.0
C      1  0.5735450000000  0.4763010000000  0.4922060000000 1.0
C      1  0.5743070000000  0.4824580000000  0.5224450000000 1.0
C      1  0.4701100000000  0.4810190000000  0.5189860000000 1.0
C      1  0.4708270000000  0.4655710000000  0.4931010000000 1.0
C      1  0.4667280000000  0.4852310000000  0.4708700000000 1.0
C      1  0.4603960000000  0.5114490000000  0.4835930000000 1.0
C      1  0.4613670000000  0.5077840000000  0.5125980000000 1.0
C      1  0.5254840000000  0.5085970000000  0.5222320000000 1.0
C      1  0.5237130000000  0.5233520000000  0.4968400000000 1.0
C      1  0.5224050000000  0.5031180000000  0.4763990000000 1.0
C      1  0.5268450000000  0.4772320000000  0.4898140000000 1.0
C      1  0.5263170000000  0.4793910000000  0.5191470000000 1.0
END
