TITL C-2323479-8056-594 4.36935244561621 125000 -360.533911579707 0 0 60 (C1) n - 1
REM
REM in /home/bkarasulu/CARBON/AIRSS/Generating-Clusters/LCBOP/Higher-Symm/Only-C60/SD-CG/FIRE-HFTN
REM
REM
REM
REM
REM
REM ./C.cell (50c204cfd26239f34c78669fe23a5462)
REM
REM compiler GCC version 9.2.1 20190827 (Red Hat 9.2.1-1)
REM options -cpp -mtune=generic -march=x86-64 -g -O0 -fpre-include=/usr/include/finclude/math-vector-fortran.h
REM seed 1707951677 1910337240 1505892223 -53520177 -1312139252 -1336024304 1991924716 931048376 -1479021471 297773023 -689469079 555471180 1354182858 -1950612958 632487665 -532791681 -1166973955 2101379973 -526074141 -1849553486 593360470 -824825843 -106916761 -2008502768 -1669690571 1976058427 731560315 -942024081 -1790566657 -1504953607 1808996369 -455419136 1027182116
REM
CELL 1.54180   50.00000   50.00000   50.00000   90.00000   90.00000   90.00000
LATT -1
SFAC C  
C      1  0.4794240000000  0.5506690000000  0.5448900000000 1.0
C      1  0.4326890000000  0.4901390000000  0.4798330000000 1.0
C      1  0.6378410000000  0.5080110000000  0.4318510000000 1.0
C      1  0.5358360000000  0.4994710000000  0.5054660000000 1.0
C      1  0.4715660000000  0.4975150000000  0.5069420000000 1.0
C      1  0.4440860000000  0.5605420000000  0.5005110000000 1.0
C      1  0.4878860000000  0.3775380000000  0.6552640000000 1.0
C      1  0.4215480000000  0.4956330000000  0.4541750000000 1.0
C      1  0.4802310000000  0.4526860000000  0.4993690000000 1.0
C      1  0.5144730000000  0.4937160000000  0.5511250000000 1.0
C      1  0.5146940000000  0.4911720000000  0.4880780000000 1.0
C      1  0.5694240000000  0.5536870000000  0.4524190000000 1.0
C      1  0.5437790000000  0.5639190000000  0.4573630000000 1.0
C      1  0.4862120000000  0.5888160000000  0.4928050000000 1.0
C      1  0.4919560000000  0.3452690000000  0.6971180000000 1.0
C      1  0.4614320000000  0.5311600000000  0.5353740000000 1.0
C      1  0.5336830000000  0.5662150000000  0.4842860000000 1.0
C      1  0.4838170000000  0.4098030000000  0.6134140000000 1.0
C      1  0.4773330000000  0.4589980000000  0.5496480000000 1.0
C      1  0.5273110000000  0.5678100000000  0.4347360000000 1.0
C      1  0.4150690000000  0.4533500000000  0.5340840000000 1.0
C      1  0.4926170000000  0.5294250000000  0.4615380000000 1.0
C      1  0.4817820000000  0.4259350000000  0.5924900000000 1.0
C      1  0.6393810000000  0.5284020000000  0.4498160000000 1.0
C      1  0.6139190000000  0.5025670000000  0.4201080000000 1.0
C      1  0.4608960000000  0.5810010000000  0.4962560000000 1.0
C      1  0.5409380000000  0.5468860000000  0.5039950000000 1.0
C      1  0.4745980000000  0.5407570000000  0.4435020000000 1.0
C      1  0.5092250000000  0.5092540000000  0.4670600000000 1.0
C      1  0.4899210000000  0.3614060000000  0.6761880000000 1.0
C      1  0.5910880000000  0.5381550000000  0.4442680000000 1.0
C      1  0.4577950000000  0.5617810000000  0.4472900000000 1.0
C      1  0.5279750000000  0.5096980000000  0.5321810000000 1.0
C      1  0.4796990000000  0.4420530000000  0.5715770000000 1.0
C      1  0.4648130000000  0.4504340000000  0.5252030000000 1.0
C      1  0.5895080000000  0.5166190000000  0.4248200000000 1.0
C      1  0.5269190000000  0.5392660000000  0.5290600000000 1.0
C      1  0.4939570000000  0.3293990000000  0.7177040000000 1.0
C      1  0.5134150000000  0.5579510000000  0.4140200000000 1.0
C      1  0.4357950000000  0.4626960000000  0.4888770000000 1.0
C      1  0.5177470000000  0.5147650000000  0.3944130000000 1.0
C      1  0.5520620000000  0.5213530000000  0.4953150000000 1.0
C      1  0.4366320000000  0.4553180000000  0.5176220000000 1.0
C      1  0.4758870000000  0.5281700000000  0.4177950000000 1.0
C      1  0.3945430000000  0.4996310000000  0.4518440000000 1.0
C      1  0.5121400000000  0.5836140000000  0.4892830000000 1.0
C      1  0.4563630000000  0.5081670000000  0.4149230000000 1.0
C      1  0.5664170000000  0.5094410000000  0.4109150000000 1.0
C      1  0.4379260000000  0.4971840000000  0.4311590000000 1.0
C      1  0.4719300000000  0.5043230000000  0.5350540000000 1.0
C      1  0.5060670000000  0.5533530000000  0.5416120000000 1.0
C      1  0.4596730000000  0.4486200000000  0.4788960000000 1.0
C      1  0.4871520000000  0.4861290000000  0.5502740000000 1.0
C      1  0.5429470000000  0.5069590000000  0.3986640000000 1.0
C      1  0.6169370000000  0.5426660000000  0.4555180000000 1.0
C      1  0.4478970000000  0.5093130000000  0.4947980000000 1.0
C      1  0.4858520000000  0.3936700000000  0.6343390000000 1.0
C      1  0.5004570000000  0.5342700000000  0.4047200000000 1.0
C      1  0.4912780000000  0.4788710000000  0.4976600000000 1.0
C      1  0.4455650000000  0.5343790000000  0.5104890000000 1.0
END
