TITL C-2323487-9546-498 -4.50391989516591e-07 125000 -353.716629240914 0 0 60 (C1) n - 1
REM
REM in /home/bkarasulu/CARBON/AIRSS/Generating-Clusters/LCBOP/Higher-Symm/Only-C60/SD-CG/FIRE-HFTN
REM
REM
REM
REM
REM
REM ./C.cell (50c204cfd26239f34c78669fe23a5462)
REM
REM compiler GCC version 9.2.1 20190827 (Red Hat 9.2.1-1)
REM options -cpp -mtune=generic -march=x86-64 -g -O0 -fpre-include=/usr/include/finclude/math-vector-fortran.h
REM seed 1354686535 -27384175 2118663269 -772185872 -389007967 -1879038683 -1674692849 1959003091 -2136045474 -1938752935 -1514567893 -478267509 -1794650607 1139955529 741260702 1507514417 1050449019 1012918702 -297242480 -2061014109 -1421636104 -1230150603 -1045838548 1069395254 -2093117228 -1883238153 1178266566 741246400 64171057 -609600397 -1532567855 185179950 1323356335
REM
CELL 1.54180   50.00000   50.00000   50.00000   90.00000   90.00000   90.00000
LATT -1
SFAC C  
C      1  0.5046380000000  0.5538890000000  0.5036260000000 1.0
C      1  0.5044330000000  0.4774430000000  0.4491750000000 1.0
C      1  0.5002000000000  0.4693300000000  0.5422830000000 1.0
C      1  0.4748420000000  0.5096700000000  0.5667360000000 1.0
C      1  0.4741000000000  0.5545750000000  0.4578720000000 1.0
C      1  0.4763410000000  0.4355650000000  0.4714600000000 1.0
C      1  0.5186720000000  0.5244810000000  0.4478830000000 1.0
C      1  0.5194260000000  0.4441910000000  0.5033280000000 1.0
C      1  0.5199090000000  0.5323760000000  0.5454380000000 1.0
C      1  0.5187240000000  0.5553410000000  0.5278870000000 1.0
C      1  0.5177550000000  0.4982290000000  0.4357460000000 1.0
C      1  0.5162690000000  0.4488980000000  0.5314820000000 1.0
C      1  0.4916320000000  0.5312660000000  0.5564910000000 1.0
C      1  0.4899920000000  0.5343430000000  0.4440510000000 1.0
C      1  0.4916430000000  0.4345860000000  0.4961520000000 1.0
C      1  0.4865640000000  0.4855440000000  0.4710690000000 1.0
C      1  0.4830150000000  0.4844520000000  0.5233430000000 1.0
C      1  0.4863890000000  0.5312150000000  0.5003710000000 1.0
C      1  0.5432490000000  0.5237350000000  0.4650740000000 1.0
C      1  0.5440950000000  0.4584020000000  0.4952230000000 1.0
C      1  0.5440830000000  0.5174690000000  0.5366250000000 1.0
C      1  0.5343170000000  0.4441990000000  0.4314760000000 1.0
C      1  0.5303030000000  0.4692220000000  0.5798860000000 1.0
C      1  0.5332680000000  0.5858510000000  0.4823620000000 1.0
C      1  0.4359700000000  0.5238950000000  0.4616860000000 1.0
C      1  0.4360170000000  0.4487930000000  0.4947200000000 1.0
C      1  0.4357950000000  0.5264040000000  0.5431310000000 1.0
C      1  0.5520030000000  0.4894410000000  0.5405930000000 1.0
C      1  0.5523720000000  0.5411880000000  0.4869680000000 1.0
C      1  0.5526730000000  0.4689420000000  0.4691670000000 1.0
C      1  0.5542700000000  0.5689720000000  0.4838830000000 1.0
C      1  0.5550450000000  0.4530930000000  0.4462330000000 1.0
C      1  0.5517970000000  0.4770210000000  0.5656500000000 1.0
C      1  0.4588160000000  0.4800810000000  0.4637570000000 1.0
C      1  0.4527140000000  0.4816270000000  0.5286240000000 1.0
C      1  0.4587700000000  0.5407170000000  0.5017560000000 1.0
C      1  0.4515360000000  0.5457820000000  0.5291230000000 1.0
C      1  0.4501470000000  0.5029220000000  0.4484080000000 1.0
C      1  0.4497440000000  0.4512910000000  0.5203450000000 1.0
C      1  0.5582500000000  0.4977840000000  0.4707560000000 1.0
C      1  0.5586690000000  0.4765390000000  0.5149490000000 1.0
C      1  0.5586900000000  0.5255180000000  0.5111210000000 1.0
C      1  0.4731670000000  0.4342910000000  0.5192090000000 1.0
C      1  0.4741380000000  0.5526260000000  0.5462210000000 1.0
C      1  0.4714350000000  0.5147130000000  0.4322480000000 1.0
C      1  0.4894030000000  0.4319040000000  0.4469960000000 1.0
C      1  0.4860660000000  0.4899800000000  0.5829700000000 1.0
C      1  0.4871280000000  0.5780130000000  0.4661760000000 1.0
C      1  0.4513620000000  0.5445340000000  0.4741200000000 1.0
C      1  0.4525560000000  0.4531140000000  0.4718300000000 1.0
C      1  0.4505180000000  0.5029340000000  0.5517460000000 1.0
C      1  0.5070810000000  0.5761680000000  0.4856550000000 1.0
C      1  0.5079730000000  0.4509650000000  0.4385790000000 1.0
C      1  0.5039840000000  0.4727000000000  0.5706100000000 1.0
C      1  0.6021450000000  0.4999360000000  0.4986160000000 1.0
C      1  0.4308160000000  0.4930020000000  0.5103930000000 1.0
C      1  0.5724350000000  0.4999750000000  0.4988890000000 1.0
C      1  0.4918740000000  0.5004800000000  0.4981370000000 1.0
C      1  0.4068160000000  0.4983860000000  0.5016270000000 1.0
C      1  0.5215820000000  0.4994230000000  0.4998930000000 1.0
END
