TITL C-2323490-8774-147 -247615.991830823 125000 -361.462131863692 0 0 60 (C1) n - 1
REM
REM in /home/bkarasulu/CARBON/AIRSS/Generating-Clusters/LCBOP/Higher-Symm/Only-C60/SD-CG/FIRE-HFTN
REM
REM
REM
REM
REM
REM ./C.cell (50c204cfd26239f34c78669fe23a5462)
REM
REM compiler GCC version 9.2.1 20190827 (Red Hat 9.2.1-1)
REM options -cpp -mtune=generic -march=x86-64 -g -O0 -fpre-include=/usr/include/finclude/math-vector-fortran.h
REM seed -164392028 -166437671 -1816508287 -960071654 1738663949 -1168389939 991961589 -2116104416 -824200288 -1180012542 1747372989 1713880642 -299722239 -581769005 -768819738 -1505010913 1249913131 2042099410 -835050539 -431137111 -2017216784 -1782101864 -2141160936 -543364625 -963478881 527950086 448192206 69668944 -515815336 -2024242238 1285572206 2005833972 -1341876400
REM
CELL 1.54180   50.00000   50.00000   50.00000   90.00000   90.00000   90.00000
LATT -1
SFAC C  
C      1  0.4851940000000  0.4325150000000  0.4970010000000 1.0
C      1  0.4500500000000  0.5458420000000  0.4957970000000 1.0
C      1  0.5657060000000  0.5206170000000  0.4968680000000 1.0
C      1  0.5147120000000  0.4327780000000  0.4965720000000 1.0
C      1  0.5507110000000  0.5460870000000  0.4966180000000 1.0
C      1  0.4352090000000  0.5201990000000  0.4961180000000 1.0
C      1  0.4471840000000  0.5140280000000  0.5482190000000 1.0
C      1  0.5423470000000  0.5398860000000  0.5473750000000 1.0
C      1  0.5157000000000  0.4498980000000  0.5479530000000 1.0
C      1  0.5519320000000  0.5126980000000  0.5480830000000 1.0
C      1  0.4571870000000  0.5409430000000  0.5468780000000 1.0
C      1  0.4855990000000  0.4477440000000  0.5479210000000 1.0
C      1  0.5350630000000  0.5399860000000  0.4505130000000 1.0
C      1  0.5166110000000  0.4493640000000  0.4501810000000 1.0
C      1  0.4467520000000  0.5073610000000  0.4495550000000 1.0
C      1  0.4665960000000  0.5422180000000  0.4493970000000 1.0
C      1  0.4817260000000  0.4462860000000  0.4503430000000 1.0
C      1  0.5556570000000  0.5117590000000  0.4498870000000 1.0
C      1  0.5559850000000  0.4523370000000  0.4779900000000 1.0
C      1  0.4299110000000  0.4744280000000  0.4793850000000 1.0
C      1  0.5138660000000  0.5728160000000  0.4788720000000 1.0
C      1  0.4433920000000  0.4510530000000  0.4791000000000 1.0
C      1  0.5697100000000  0.4754950000000  0.4780660000000 1.0
C      1  0.4869390000000  0.5731900000000  0.4791510000000 1.0
C      1  0.4868530000000  0.5717140000000  0.5178180000000 1.0
C      1  0.5687220000000  0.4755840000000  0.5171240000000 1.0
C      1  0.4448750000000  0.4525080000000  0.5182290000000 1.0
C      1  0.5135050000000  0.5715630000000  0.5180410000000 1.0
C      1  0.4315950000000  0.4755900000000  0.5179830000000 1.0
C      1  0.5553980000000  0.4525430000000  0.5168900000000 1.0
C      1  0.4738590000000  0.4493040000000  0.5204270000000 1.0
C      1  0.4686460000000  0.5488090000000  0.5205770000000 1.0
C      1  0.5567130000000  0.5020490000000  0.5201810000000 1.0
C      1  0.5264600000000  0.4499650000000  0.5197760000000 1.0
C      1  0.5316080000000  0.5486330000000  0.5209720000000 1.0
C      1  0.4433020000000  0.5023380000000  0.5205190000000 1.0
C      1  0.4330680000000  0.5017940000000  0.4730910000000 1.0
C      1  0.5359510000000  0.5561950000000  0.4732270000000 1.0
C      1  0.5306650000000  0.4407440000000  0.4727740000000 1.0
C      1  0.5680320000000  0.5032220000000  0.4731500000000 1.0
C      1  0.4647790000000  0.5568400000000  0.4728860000000 1.0
C      1  0.4684940000000  0.4392790000000  0.4736550000000 1.0
C      1  0.5275120000000  0.5001010000000  0.5115880000000 1.0
C      1  0.4859570000000  0.4762470000000  0.5115330000000 1.0
C      1  0.4864680000000  0.5244570000000  0.5146930000000 1.0
C      1  0.4726780000000  0.4999730000000  0.5130250000000 1.0
C      1  0.5140340000000  0.4764280000000  0.5106040000000 1.0
C      1  0.5137120000000  0.5245270000000  0.5140790000000 1.0
C      1  0.4805320000000  0.4763060000000  0.5667790000000 1.0
C      1  0.4858060000000  0.5241800000000  0.5694990000000 1.0
C      1  0.5297050000000  0.4997150000000  0.5643460000000 1.0
C      1  0.5170620000000  0.4745210000000  0.5637340000000 1.0
C      1  0.5133110000000  0.5230520000000  0.5693030000000 1.0
C      1  0.4686130000000  0.5013830000000  0.5655360000000 1.0
C      1  0.5133280000000  0.5256900000000  0.4372320000000 1.0
C      1  0.5153260000000  0.4751520000000  0.4366110000000 1.0
C      1  0.4707220000000  0.4996770000000  0.4372960000000 1.0
C      1  0.4854880000000  0.5253880000000  0.4374580000000 1.0
C      1  0.4847270000000  0.4756820000000  0.4358380000000 1.0
C      1  0.5287530000000  0.4993190000000  0.4356810000000 1.0
END
