TITL C-2323483-8886-529 3.81992878188004e-06 125000 -366.979620085306 0 0 60 (C1) n - 1
REM
REM in /home/bkarasulu/CARBON/AIRSS/Generating-Clusters/LCBOP/Higher-Symm/Only-C60/SD-CG/FIRE-HFTN
REM
REM
REM
REM
REM
REM ./C.cell (50c204cfd26239f34c78669fe23a5462)
REM
REM compiler GCC version 9.2.1 20190827 (Red Hat 9.2.1-1)
REM options -cpp -mtune=generic -march=x86-64 -g -O0 -fpre-include=/usr/include/finclude/math-vector-fortran.h
REM seed -1578478008 72444577 -889514242 -1013616802 2123414589 134863560 1585287787 -1498032021 1490434773 -359808714 -1299732037 -2032860630 -1043451951 448986386 -1838701505 1140753682 1326408572 -1350651106 -1180628382 1131070575 -780251161 -305906521 -506046018 1468693889 327162615 -156693885 1554566543 -1644757005 -326722695 -76178430 -435079423 -1373176381 1859615383
REM
CELL 1.54180   50.00000   50.00000   50.00000   90.00000   90.00000   90.00000
LATT -1
SFAC C  
C      1  0.5322830000000  0.4202940000000  0.5039040000000 1.0
C      1  0.5221290000000  0.4916050000000  0.4006980000000 1.0
C      1  0.3976920000000  0.5234810000000  0.4950020000000 1.0
C      1  0.5299480000000  0.5769350000000  0.4926360000000 1.0
C      1  0.5024090000000  0.6007020000000  0.5264650000000 1.0
C      1  0.5047570000000  0.3906160000000  0.4768730000000 1.0
C      1  0.5335610000000  0.5078390000000  0.5937650000000 1.0
C      1  0.4835020000000  0.4651590000000  0.4121630000000 1.0
C      1  0.4943270000000  0.5382080000000  0.5823700000000 1.0
C      1  0.4125330000000  0.4883750000000  0.4629810000000 1.0
C      1  0.5828410000000  0.4871510000000  0.5316210000000 1.0
C      1  0.5951440000000  0.5266200000000  0.5038810000000 1.0
C      1  0.5287480000000  0.5027470000000  0.4243170000000 1.0
C      1  0.5254320000000  0.3965780000000  0.4931790000000 1.0
C      1  0.4158940000000  0.5323130000000  0.5124810000000 1.0
C      1  0.5427870000000  0.4882860000000  0.5778400000000 1.0
C      1  0.5149430000000  0.5270630000000  0.5954690000000 1.0
C      1  0.5020900000000  0.4744610000000  0.3948950000000 1.0
C      1  0.5206680000000  0.5980960000000  0.5067570000000 1.0
C      1  0.4857470000000  0.4079130000000  0.4685450000000 1.0
C      1  0.4864500000000  0.5829580000000  0.5393250000000 1.0
C      1  0.3961220000000  0.5059050000000  0.4748600000000 1.0
C      1  0.5733380000000  0.5368230000000  0.4914550000000 1.0
C      1  0.5991380000000  0.5057770000000  0.5205660000000 1.0
C      1  0.5095450000000  0.4705240000000  0.5471840000000 1.0
C      1  0.5410920000000  0.5041130000000  0.4720600000000 1.0
C      1  0.4632860000000  0.5478470000000  0.5129670000000 1.0
C      1  0.4967660000000  0.5210540000000  0.4576570000000 1.0
C      1  0.4801360000000  0.5347660000000  0.5581910000000 1.0
C      1  0.4804320000000  0.4720630000000  0.4392810000000 1.0
C      1  0.5532770000000  0.4840120000000  0.5282670000000 1.0
C      1  0.4390240000000  0.4796430000000  0.4661750000000 1.0
C      1  0.4526820000000  0.5046020000000  0.5303850000000 1.0
C      1  0.4640240000000  0.4447030000000  0.4943020000000 1.0
C      1  0.5228930000000  0.4488800000000  0.5024080000000 1.0
C      1  0.5218370000000  0.5481220000000  0.4945160000000 1.0
C      1  0.4982360000000  0.5417590000000  0.4775170000000 1.0
C      1  0.5462950000000  0.4675390000000  0.5038720000000 1.0
C      1  0.4719410000000  0.5078110000000  0.5512550000000 1.0
C      1  0.5023890000000  0.4546830000000  0.5247690000000 1.0
C      1  0.4840020000000  0.5536480000000  0.5342620000000 1.0
C      1  0.4828730000000  0.4348660000000  0.4759210000000 1.0
C      1  0.5450000000000  0.5264070000000  0.4921790000000 1.0
C      1  0.4465450000000  0.4682110000000  0.4908960000000 1.0
C      1  0.4426200000000  0.5293170000000  0.5199890000000 1.0
C      1  0.4598320000000  0.4891170000000  0.4490680000000 1.0
C      1  0.5187920000000  0.5008970000000  0.4526200000000 1.0
C      1  0.5368730000000  0.4770670000000  0.5526040000000 1.0
C      1  0.5115450000000  0.5454550000000  0.5239560000000 1.0
C      1  0.5064940000000  0.4523610000000  0.4756140000000 1.0
C      1  0.4752160000000  0.4503240000000  0.5197770000000 1.0
C      1  0.4709110000000  0.5491780000000  0.4856910000000 1.0
C      1  0.5440540000000  0.5125780000000  0.5209000000000 1.0
C      1  0.5538840000000  0.4798770000000  0.4795210000000 1.0
C      1  0.4544120000000  0.5374300000000  0.4649180000000 1.0
C      1  0.4502160000000  0.4812040000000  0.5155900000000 1.0
C      1  0.5286570000000  0.5283330000000  0.5381980000000 1.0
C      1  0.5045890000000  0.4732070000000  0.4559990000000 1.0
C      1  0.4888820000000  0.4864090000000  0.5579870000000 1.0
C      1  0.4682640000000  0.5160850000000  0.4514550000000 1.0
END
