TITL C-2323485-8600-489 -23195.3993012765 125000 -333.344439464268 0 0 60 (T23) n - 1
REM
REM in /home/bkarasulu/CARBON/AIRSS/Generating-Clusters/LCBOP/Higher-Symm/Only-C60/SD-CG/FIRE-HFTN
REM
REM
REM
REM
REM
REM ./C.cell (50c204cfd26239f34c78669fe23a5462)
REM
REM compiler GCC version 9.2.1 20190827 (Red Hat 9.2.1-1)
REM options -cpp -mtune=generic -march=x86-64 -g -O0 -fpre-include=/usr/include/finclude/math-vector-fortran.h
REM seed -1334582729 -470383833 -263680924 388798115 449084306 1136462271 -1747161194 1529091418 -822690190 -1222465109 422575538 -1355908375 -2091346847 -982187637 -1724864235 1312296489 1656512193 2024563735 -800904499 626666303 -676089009 675273299 1968167436 -1333462091 -1084926742 1936080290 1685931370 -465361267 -615451854 -1973738436 -1311948730 -1222384898 1718789783
REM
CELL 1.54180   50.00000   50.00000   50.00000   90.00000   90.00000   90.00000
LATT -1
SFAC C  
C      1  0.5554750000000  0.4985860000000  0.5533780000000 1.0
C      1  0.5527430000000  0.5556990000000  0.4983720000000 1.0
C      1  0.4990830000000  0.5527180000000  0.5553960000000 1.0
C      1  0.4448210000000  0.4987970000000  0.4471640000000 1.0
C      1  0.5553540000000  0.5014620000000  0.4470240000000 1.0
C      1  0.4445450000000  0.5013190000000  0.5535400000000 1.0
C      1  0.4472140000000  0.5552920000000  0.5016070000000 1.0
C      1  0.5525210000000  0.4444210000000  0.5016120000000 1.0
C      1  0.4472480000000  0.4443520000000  0.4984000000000 1.0
C      1  0.5011330000000  0.5530950000000  0.4440670000000 1.0
C      1  0.4990920000000  0.4470270000000  0.4442720000000 1.0
C      1  0.5008470000000  0.4473070000000  0.5555670000000 1.0
C      1  0.5076810000000  0.4890160000000  0.5351060000000 1.0
C      1  0.5358220000000  0.5076570000000  0.4892650000000 1.0
C      1  0.4893580000000  0.5354520000000  0.5075380000000 1.0
C      1  0.4929530000000  0.4887460000000  0.4642630000000 1.0
C      1  0.5071730000000  0.5113710000000  0.4641760000000 1.0
C      1  0.4922990000000  0.5109600000000  0.5350610000000 1.0
C      1  0.4640890000000  0.5071120000000  0.5116030000000 1.0
C      1  0.5359010000000  0.4928030000000  0.5114610000000 1.0
C      1  0.4642770000000  0.4923370000000  0.4893570000000 1.0
C      1  0.5110680000000  0.5351360000000  0.4918760000000 1.0
C      1  0.4889190000000  0.4648940000000  0.4919510000000 1.0
C      1  0.5105720000000  0.4645490000000  0.5076850000000 1.0
C      1  0.5271110000000  0.5520390000000  0.5528890000000 1.0
C      1  0.5531170000000  0.5266310000000  0.5527110000000 1.0
C      1  0.5520890000000  0.5534740000000  0.5264230000000 1.0
C      1  0.4731130000000  0.5523200000000  0.4463020000000 1.0
C      1  0.5271260000000  0.4478150000000  0.4469350000000 1.0
C      1  0.4728260000000  0.4479840000000  0.5530690000000 1.0
C      1  0.4471910000000  0.5268510000000  0.4479240000000 1.0
C      1  0.5529410000000  0.4734470000000  0.4474700000000 1.0
C      1  0.4468480000000  0.4732820000000  0.5528990000000 1.0
C      1  0.4474220000000  0.5527990000000  0.4735900000000 1.0
C      1  0.5520250000000  0.4465540000000  0.4735740000000 1.0
C      1  0.4478870000000  0.4465640000000  0.5264630000000 1.0
C      1  0.5270450000000  0.5585000000000  0.4853630000000 1.0
C      1  0.4860680000000  0.5270470000000  0.5584230000000 1.0
C      1  0.5587240000000  0.4856310000000  0.5276630000000 1.0
C      1  0.4730590000000  0.5583080000000  0.5142320000000 1.0
C      1  0.5267510000000  0.4415950000000  0.5144000000000 1.0
C      1  0.4729530000000  0.4415230000000  0.4853960000000 1.0
C      1  0.5140940000000  0.5273870000000  0.4410920000000 1.0
C      1  0.4860660000000  0.4727310000000  0.4411650000000 1.0
C      1  0.5139210000000  0.4729650000000  0.5584910000000 1.0
C      1  0.4416090000000  0.4857610000000  0.4727810000000 1.0
C      1  0.5584860000000  0.5143200000000  0.4727300000000 1.0
C      1  0.4412440000000  0.5142070000000  0.5278190000000 1.0
C      1  0.5167520000000  0.4299930000000  0.5385210000000 1.0
C      1  0.5383290000000  0.5174310000000  0.4297790000000 1.0
C      1  0.4299880000000  0.5384640000000  0.5178270000000 1.0
C      1  0.4831430000000  0.4298440000000  0.4614060000000 1.0
C      1  0.5169380000000  0.5702300000000  0.4613610000000 1.0
C      1  0.4830940000000  0.5699660000000  0.5383370000000 1.0
C      1  0.4621010000000  0.5171460000000  0.5704000000000 1.0
C      1  0.5379750000000  0.4828030000000  0.5703380000000 1.0
C      1  0.4618670000000  0.4828630000000  0.4298590000000 1.0
C      1  0.5700500000000  0.5385940000000  0.4824920000000 1.0
C      1  0.4299850000000  0.4615010000000  0.4825060000000 1.0
C      1  0.5698760000000  0.4613230000000  0.5176270000000 1.0
END
