TITL C-2323489-8765-234 1.58953805484358e-06 125000 -360.619900886131 0 0 60 (C3) n - 1
REM
REM in /home/bkarasulu/CARBON/AIRSS/Generating-Clusters/LCBOP/Higher-Symm/Only-C60/SD-CG/FIRE-HFTN
REM
REM
REM
REM
REM
REM ./C.cell (50c204cfd26239f34c78669fe23a5462)
REM
REM compiler GCC version 9.2.1 20190827 (Red Hat 9.2.1-1)
REM options -cpp -mtune=generic -march=x86-64 -g -O0 -fpre-include=/usr/include/finclude/math-vector-fortran.h
REM seed 562680759 -1465670652 687859558 2054482176 -964717112 -212361922 -421602163 -1649928434 860855154 1996072 -58081035 568640261 1840618454 -1258811333 -1878619213 -1695879924 479816879 -426499382 -2063939869 -185456999 1095387323 -1169508675 -263258309 -564721137 -1587044885 -923965903 1000328002 -1557769689 -1942282848 -1545606109 -1574949097 1887773677 -2119134490
REM
CELL 1.54180   50.00000   50.00000   50.00000   90.00000   90.00000   90.00000
LATT -1
SFAC C  
C      1  0.4689740000000  0.5080070000000  0.5736120000000 1.0
C      1  0.5735560000000  0.4689710000000  0.5080450000000 1.0
C      1  0.5080160000000  0.5735660000000  0.4689500000000 1.0
C      1  0.5278330000000  0.5079200000000  0.4425240000000 1.0
C      1  0.4759930000000  0.4944080000000  0.4439940000000 1.0
C      1  0.5263970000000  0.4928460000000  0.5723610000000 1.0
C      1  0.4436980000000  0.4760060000000  0.4945620000000 1.0
C      1  0.5724360000000  0.5264100000000  0.4928720000000 1.0
C      1  0.4425520000000  0.5278050000000  0.5079650000000 1.0
C      1  0.4928740000000  0.5724090000000  0.5263940000000 1.0
C      1  0.5078890000000  0.4425860000000  0.5277170000000 1.0
C      1  0.4945960000000  0.4439750000000  0.4759050000000 1.0
C      1  0.5623590000000  0.5076160000000  0.4736900000000 1.0
C      1  0.5075800000000  0.4737300000000  0.5622220000000 1.0
C      1  0.4737400000000  0.5622930000000  0.5075810000000 1.0
C      1  0.4319810000000  0.5091590000000  0.5276900000000 1.0
C      1  0.4325750000000  0.4923080000000  0.4730410000000 1.0
C      1  0.5583900000000  0.4878390000000  0.5243040000000 1.0
C      1  0.4923480000000  0.4729780000000  0.4327510000000 1.0
C      1  0.4878360000000  0.5242940000000  0.5584520000000 1.0
C      1  0.5091310000000  0.5275830000000  0.4319740000000 1.0
C      1  0.5242890000000  0.5584100000000  0.4878200000000 1.0
C      1  0.5276360000000  0.4320080000000  0.5091140000000 1.0
C      1  0.4730380000000  0.4329190000000  0.4922240000000 1.0
C      1  0.4585840000000  0.4822550000000  0.5629450000000 1.0
C      1  0.5629410000000  0.4585980000000  0.4822760000000 1.0
C      1  0.4822700000000  0.5628720000000  0.4585940000000 1.0
C      1  0.5401520000000  0.4804430000000  0.4398930000000 1.0
C      1  0.4606640000000  0.5193870000000  0.4389690000000 1.0
C      1  0.5357930000000  0.5168380000000  0.5585100000000 1.0
C      1  0.4387090000000  0.4606090000000  0.5195180000000 1.0
C      1  0.5585180000000  0.5357910000000  0.5168330000000 1.0
C      1  0.4399020000000  0.5400820000000  0.4804840000000 1.0
C      1  0.5168380000000  0.5585070000000  0.5357850000000 1.0
C      1  0.4804260000000  0.4399140000000  0.5400470000000 1.0
C      1  0.5195610000000  0.4387380000000  0.4605790000000 1.0
C      1  0.5629230000000  0.4795810000000  0.4613030000000 1.0
C      1  0.4795750000000  0.4612970000000  0.5628470000000 1.0
C      1  0.4613110000000  0.5628490000000  0.4795800000000 1.0
C      1  0.4387850000000  0.4828670000000  0.5403280000000 1.0
C      1  0.4390860000000  0.5189110000000  0.4602880000000 1.0
C      1  0.5559200000000  0.5144980000000  0.5369230000000 1.0
C      1  0.5190110000000  0.4602010000000  0.4390560000000 1.0
C      1  0.5144950000000  0.5369230000000  0.5559320000000 1.0
C      1  0.4828790000000  0.5401840000000  0.4388840000000 1.0
C      1  0.5369160000000  0.5559090000000  0.5144790000000 1.0
C      1  0.5403170000000  0.4388020000000  0.4828560000000 1.0
C      1  0.4602130000000  0.4391550000000  0.5188810000000 1.0
C      1  0.5111380000000  0.4726310000000  0.5321060000000 1.0
C      1  0.4888550000000  0.5235090000000  0.4866100000000 1.0
C      1  0.5322580000000  0.5112520000000  0.4725510000000 1.0
C      1  0.5236570000000  0.4866460000000  0.4887850000000 1.0
C      1  0.4725970000000  0.5322080000000  0.5112380000000 1.0
C      1  0.4864660000000  0.4888430000000  0.5235590000000 1.0
C      1  0.5000150000000  0.4719960000000  0.4813890000000 1.0
C      1  0.4816090000000  0.4996020000000  0.4721210000000 1.0
C      1  0.4717000000000  0.4817660000000  0.4998750000000 1.0
C      1  0.4830740000000  0.5152970000000  0.5319000000000 1.0
C      1  0.5152890000000  0.5318550000000  0.4830510000000 1.0
C      1  0.5318350000000  0.4831380000000  0.5152610000000 1.0
END
