TITL C-2323487-9546-378 9.86963864540365e-05 125000 -350.18961808796 0 0 60 (C3) n - 1
REM
REM in /home/bkarasulu/CARBON/AIRSS/Generating-Clusters/LCBOP/Higher-Symm/Only-C60/SD-CG/FIRE-HFTN
REM
REM
REM
REM
REM
REM ./C.cell (50c204cfd26239f34c78669fe23a5462)
REM
REM compiler GCC version 9.2.1 20190827 (Red Hat 9.2.1-1)
REM options -cpp -mtune=generic -march=x86-64 -g -O0 -fpre-include=/usr/include/finclude/math-vector-fortran.h
REM seed -714366517 1601650291 -1086995002 -1495323641 241688943 -255267853 296319049 -129165009 -1508042932 255916330 741384677 -228664751 -123257786 -390982676 -1146623839 -1401489609 -429789288 -323046503 1468350210 873795361 -368552724 1036515493 787296174 364248622 -759887418 1662602262 1734184857 -250049022 -1210297219 -1338654579 -1192118118 211221553 31375636
REM
CELL 1.54180   50.00000   50.00000   50.00000   90.00000   90.00000   90.00000
LATT -1
SFAC C  
C      1  0.5558670000000  0.5475040000000  0.5423170000000 1.0
C      1  0.5560450000000  0.4400060000000  0.5197140000000 1.0
C      1  0.5560640000000  0.5126750000000  0.4383300000000 1.0
C      1  0.5448680000000  0.4415340000000  0.4487170000000 1.0
C      1  0.5450570000000  0.5732690000000  0.4751420000000 1.0
C      1  0.5450330000000  0.4849550000000  0.5760040000000 1.0
C      1  0.5034560000000  0.5333350000000  0.5140850000000 1.0
C      1  0.5035180000000  0.4712730000000  0.5216970000000 1.0
C      1  0.5034250000000  0.4954720000000  0.4640840000000 1.0
C      1  0.4851820000000  0.4466730000000  0.4559980000000 1.0
C      1  0.4852660000000  0.5647030000000  0.4758710000000 1.0
C      1  0.4852800000000  0.4885860000000  0.5681330000000 1.0
C      1  0.5433790000000  0.4479630000000  0.5437320000000 1.0
C      1  0.5432790000000  0.4880140000000  0.4329070000000 1.0
C      1  0.5431710000000  0.5642640000000  0.5233730000000 1.0
C      1  0.5324600000000  0.5074140000000  0.5637110000000 1.0
C      1  0.5324070000000  0.4410830000000  0.4743760000000 1.0
C      1  0.5324790000000  0.5512760000000  0.4620390000000 1.0
C      1  0.4527840000000  0.5001010000000  0.4722760000000 1.0
C      1  0.4528070000000  0.5239540000000  0.5139290000000 1.0
C      1  0.4528110000000  0.4759520000000  0.5137670000000 1.0
C      1  0.5034940000000  0.5515830000000  0.4570180000000 1.0
C      1  0.5034560000000  0.5115170000000  0.5663230000000 1.0
C      1  0.5034120000000  0.4367950000000  0.4767290000000 1.0
C      1  0.5534280000000  0.4616950000000  0.4326600000000 1.0
C      1  0.5534850000000  0.5773720000000  0.5006260000000 1.0
C      1  0.5536160000000  0.4609830000000  0.5665640000000 1.0
C      1  0.4645850000000  0.5635620000000  0.4963640000000 1.0
C      1  0.4646500000000  0.4713910000000  0.5568430000000 1.0
C      1  0.4645500000000  0.4650610000000  0.4467720000000 1.0
C      1  0.4915480000000  0.5377910000000  0.5629480000000 1.0
C      1  0.4915760000000  0.4266150000000  0.5012130000000 1.0
C      1  0.4916150000000  0.5355780000000  0.4358910000000 1.0
C      1  0.4686750000000  0.5515910000000  0.5515070000000 1.0
C      1  0.4687280000000  0.4296240000000  0.5189080000000 1.0
C      1  0.4687220000000  0.5188120000000  0.4295960000000 1.0
C      1  0.4405200000000  0.5142390000000  0.5383650000000 1.0
C      1  0.4404940000000  0.4596460000000  0.4931540000000 1.0
C      1  0.4405030000000  0.5261250000000  0.4684710000000 1.0
C      1  0.5168080000000  0.5556590000000  0.5193650000000 1.0
C      1  0.5169730000000  0.4556150000000  0.5383620000000 1.0
C      1  0.5168410000000  0.4888970000000  0.4421450000000 1.0
C      1  0.5489480000000  0.5274210000000  0.4617530000000 1.0
C      1  0.5489740000000  0.5198020000000  0.5433770000000 1.0
C      1  0.5490120000000  0.4526860000000  0.4951060000000 1.0
C      1  0.4803140000000  0.5015800000000  0.4763720000000 1.0
C      1  0.4803360000000  0.5196710000000  0.5131580000000 1.0
C      1  0.4803270000000  0.4787550000000  0.5103820000000 1.0
C      1  0.4686520000000  0.5677050000000  0.5260880000000 1.0
C      1  0.4687510000000  0.4435910000000  0.5455630000000 1.0
C      1  0.4686590000000  0.4887380000000  0.4283350000000 1.0
C      1  0.4444390000000  0.5306870000000  0.4405190000000 1.0
C      1  0.4443980000000  0.5361760000000  0.5562850000000 1.0
C      1  0.4444220000000  0.4331640000000  0.5031990000000 1.0
C      1  0.5552360000000  0.4797090000000  0.4939320000000 1.0
C      1  0.5548270000000  0.5144930000000  0.4856400000000 1.0
C      1  0.5550660000000  0.5056480000000  0.5202740000000 1.0
C      1  0.4450760000000  0.4724600000000  0.4679830000000 1.0
C      1  0.4451000000000  0.5415070000000  0.4921520000000 1.0
C      1  0.4451410000000  0.4860460000000  0.5398590000000 1.0
END
