TITL C-2323491-8878-327 -93.1370686160811 125000 -361.961000497229 0 0 60 (C1) n - 1
REM
REM in /home/bkarasulu/CARBON/AIRSS/Generating-Clusters/LCBOP/Higher-Symm/Only-C60/SD-CG/FIRE-HFTN
REM
REM
REM
REM
REM
REM ./C.cell (50c204cfd26239f34c78669fe23a5462)
REM
REM compiler GCC version 9.2.1 20190827 (Red Hat 9.2.1-1)
REM options -cpp -mtune=generic -march=x86-64 -g -O0 -fpre-include=/usr/include/finclude/math-vector-fortran.h
REM seed -1006659919 -456024512 -647132480 1284675069 843668040 -1285537301 -1389439693 657702175 632927870 939722240 -1850554386 797890672 -2021198183 -1500761501 58912728 301874903 1636410032 -1251496063 505833334 -1583616045 -1228658942 604374485 1292351882 489882476 -1447867809 -1771701109 -1108670788 2143195742 1177533292 -953371683 -568207261 676509864 1316395388
REM
CELL 1.54180   50.00000   50.00000   50.00000   90.00000   90.00000   90.00000
LATT -1
SFAC C  
C      1  0.5176680000000  0.5128440000000  0.4723270000000 1.0
C      1  0.4689600000000  0.5064470000000  0.5452820000000 1.0
C      1  0.4423700000000  0.5565160000000  0.5358710000000 1.0
C      1  0.5293380000000  0.3910380000000  0.4775010000000 1.0
C      1  0.4996010000000  0.4216220000000  0.4501310000000 1.0
C      1  0.4909300000000  0.5618950000000  0.5534130000000 1.0
C      1  0.5329040000000  0.5457390000000  0.5294070000000 1.0
C      1  0.4706440000000  0.4617170000000  0.4600830000000 1.0
C      1  0.4614280000000  0.4501330000000  0.5113750000000 1.0
C      1  0.5439500000000  0.5595240000000  0.4770180000000 1.0
C      1  0.4853910000000  0.5633980000000  0.4926400000000 1.0
C      1  0.5084950000000  0.4692390000000  0.5027630000000 1.0
C      1  0.5242370000000  0.5372900000000  0.4334690000000 1.0
C      1  0.4896680000000  0.4654380000000  0.5557180000000 1.0
C      1  0.5225000000000  0.4845110000000  0.5826880000000 1.0
C      1  0.5071640000000  0.4998910000000  0.4104570000000 1.0
C      1  0.5571740000000  0.5060790000000  0.5255220000000 1.0
C      1  0.4435590000000  0.5000370000000  0.4611220000000 1.0
C      1  0.4539620000000  0.4592270000000  0.4849300000000 1.0
C      1  0.5467090000000  0.5460030000000  0.5023310000000 1.0
C      1  0.4260700000000  0.5354410000000  0.4904950000000 1.0
C      1  0.5490950000000  0.4149500000000  0.5184300000000 1.0
C      1  0.5133560000000  0.4589880000000  0.4768360000000 1.0
C      1  0.5021170000000  0.5773320000000  0.5105430000000 1.0
C      1  0.4669010000000  0.5041020000000  0.5175380000000 1.0
C      1  0.5011580000000  0.5157170000000  0.4936500000000 1.0
C      1  0.5457060000000  0.5065000000000  0.4753600000000 1.0
C      1  0.4529070000000  0.5055210000000  0.5685520000000 1.0
C      1  0.5202850000000  0.5030090000000  0.5596330000000 1.0
C      1  0.4892630000000  0.5025670000000  0.4337540000000 1.0
C      1  0.5235390000000  0.4558480000000  0.5222490000000 1.0
C      1  0.4745990000000  0.5745670000000  0.4694520000000 1.0
C      1  0.4292230000000  0.5470830000000  0.5144630000000 1.0
C      1  0.5424910000000  0.3968740000000  0.4999680000000 1.0
C      1  0.4734930000000  0.4515020000000  0.5361730000000 1.0
C      1  0.5380660000000  0.5560480000000  0.4503370000000 1.0
C      1  0.5114790000000  0.5641260000000  0.5340570000000 1.0
C      1  0.4949490000000  0.4476360000000  0.4590830000000 1.0
C      1  0.4765940000000  0.4747600000000  0.6005120000000 1.0
C      1  0.5550400000000  0.5015740000000  0.4253130000000 1.0
C      1  0.4906900000000  0.4920120000000  0.5052140000000 1.0
C      1  0.4831950000000  0.5357680000000  0.4983340000000 1.0
C      1  0.5594850000000  0.4981020000000  0.4520300000000 1.0
C      1  0.4572340000000  0.4920760000000  0.5918970000000 1.0
C      1  0.5051350000000  0.5217820000000  0.4489860000000 1.0
C      1  0.4945670000000  0.4942790000000  0.5496530000000 1.0
C      1  0.4414240000000  0.5470170000000  0.4465110000000 1.0
C      1  0.5691550000000  0.4573080000000  0.5346060000000 1.0
C      1  0.4344910000000  0.4801240000000  0.4802970000000 1.0
C      1  0.5562810000000  0.5180320000000  0.4993470000000 1.0
C      1  0.4348760000000  0.5267090000000  0.4648640000000 1.0
C      1  0.5722430000000  0.4838840000000  0.5329660000000 1.0
C      1  0.4985090000000  0.4660790000000  0.5841900000000 1.0
C      1  0.5326020000000  0.5156520000000  0.4144580000000 1.0
C      1  0.4579340000000  0.5679950000000  0.4495450000000 1.0
C      1  0.5472500000000  0.4414300000000  0.5271530000000 1.0
C      1  0.5372360000000  0.5191690000000  0.5429240000000 1.0
C      1  0.4675400000000  0.4887780000000  0.4471890000000 1.0
C      1  0.4640110000000  0.5610510000000  0.5511480000000 1.0
C      1  0.5131540000000  0.4000200000000  0.4582450000000 1.0
END
