TITL C-2323485-8600-241 3.45685197910067e-05 125000 -358.503001919289 0 0 60 (C1) n - 1
REM
REM in /home/bkarasulu/CARBON/AIRSS/Generating-Clusters/LCBOP/Higher-Symm/Only-C60/SD-CG/FIRE-HFTN
REM
REM
REM
REM
REM
REM ./C.cell (50c204cfd26239f34c78669fe23a5462)
REM
REM compiler GCC version 9.2.1 20190827 (Red Hat 9.2.1-1)
REM options -cpp -mtune=generic -march=x86-64 -g -O0 -fpre-include=/usr/include/finclude/math-vector-fortran.h
REM seed 749802542 -341881773 898802124 66111576 -56447967 924285349 895169153 -310388234 -1171589112 335313146 1334759049 1787379868 1420370316 332029082 -2139276064 -627108989 -42629946 -166406492 1036534847 -1924873763 708379449 -423203408 836684363 -1143589068 1679843470 1938521614 1574829608 815521857 -63241838 1348404441 -818726314 2017046206 -1780891536
REM
CELL 1.54180   50.00000   50.00000   50.00000   90.00000   90.00000   90.00000
LATT -1
SFAC C  
C      1  0.4586360000000  0.5376660000000  0.4465040000000 1.0
C      1  0.4596360000000  0.4719720000000  0.4377300000000 1.0
C      1  0.5237390000000  0.5303020000000  0.4539520000000 1.0
C      1  0.5244320000000  0.4735060000000  0.4474790000000 1.0
C      1  0.4248180000000  0.4849400000000  0.5495420000000 1.0
C      1  0.4225960000000  0.5118810000000  0.5452010000000 1.0
C      1  0.5753030000000  0.4845040000000  0.5041280000000 1.0
C      1  0.5770170000000  0.5131660000000  0.5034770000000 1.0
C      1  0.5076720000000  0.4340140000000  0.4810740000000 1.0
C      1  0.5104620000000  0.5614570000000  0.4937510000000 1.0
C      1  0.5352740000000  0.5334710000000  0.5177180000000 1.0
C      1  0.5236900000000  0.4609010000000  0.5162090000000 1.0
C      1  0.4679210000000  0.5221510000000  0.4245030000000 1.0
C      1  0.4672230000000  0.4932780000000  0.4203650000000 1.0
C      1  0.5446840000000  0.5111430000000  0.5537420000000 1.0
C      1  0.5480240000000  0.4830160000000  0.5493800000000 1.0
C      1  0.4789580000000  0.5047640000000  0.4804360000000 1.0
C      1  0.4891790000000  0.4806840000000  0.4904360000000 1.0
C      1  0.5637840000000  0.4707810000000  0.4812800000000 1.0
C      1  0.5676750000000  0.5282520000000  0.4800090000000 1.0
C      1  0.4469020000000  0.4382640000000  0.5351680000000 1.0
C      1  0.4382550000000  0.5540230000000  0.5159920000000 1.0
C      1  0.4763620000000  0.5124400000000  0.5290490000000 1.0
C      1  0.4785900000000  0.4841380000000  0.5352710000000 1.0
C      1  0.4894280000000  0.5559390000000  0.5139890000000 1.0
C      1  0.4843410000000  0.4250370000000  0.4961970000000 1.0
C      1  0.4731970000000  0.5496440000000  0.4681770000000 1.0
C      1  0.4778140000000  0.4543570000000  0.4477970000000 1.0
C      1  0.4626640000000  0.5484370000000  0.4986390000000 1.0
C      1  0.4674520000000  0.4389480000000  0.5146140000000 1.0
C      1  0.4825010000000  0.5449060000000  0.5661250000000 1.0
C      1  0.4935500000000  0.4821910000000  0.5813560000000 1.0
C      1  0.4804450000000  0.5299890000000  0.5885980000000 1.0
C      1  0.4857080000000  0.5042790000000  0.5945280000000 1.0
C      1  0.5240650000000  0.4677240000000  0.5439200000000 1.0
C      1  0.5231210000000  0.5276490000000  0.5445660000000 1.0
C      1  0.5700030000000  0.4753950000000  0.5314220000000 1.0
C      1  0.5682340000000  0.5238830000000  0.5279160000000 1.0
C      1  0.4935460000000  0.5322450000000  0.4156050000000 1.0
C      1  0.4928350000000  0.4837730000000  0.4092470000000 1.0
C      1  0.5157310000000  0.5198600000000  0.4284450000000 1.0
C      1  0.5155190000000  0.4906890000000  0.4252900000000 1.0
C      1  0.5259360000000  0.5090930000000  0.5028630000000 1.0
C      1  0.5149970000000  0.4835290000000  0.5010480000000 1.0
C      1  0.4981390000000  0.4748990000000  0.5545630000000 1.0
C      1  0.4932860000000  0.5362020000000  0.5396820000000 1.0
C      1  0.5303320000000  0.4398660000000  0.4979560000000 1.0
C      1  0.5372110000000  0.5578820000000  0.5017690000000 1.0
C      1  0.5050650000000  0.4517050000000  0.4571530000000 1.0
C      1  0.5037560000000  0.5490240000000  0.4679400000000 1.0
C      1  0.5477390000000  0.5152210000000  0.4634770000000 1.0
C      1  0.5471570000000  0.4856050000000  0.4622820000000 1.0
C      1  0.4413680000000  0.4764320000000  0.5004990000000 1.0
C      1  0.4371500000000  0.5032840000000  0.4982770000000 1.0
C      1  0.5557140000000  0.4437880000000  0.4859590000000 1.0
C      1  0.5605570000000  0.5557110000000  0.4856960000000 1.0
C      1  0.4260070000000  0.5366090000000  0.5338350000000 1.0
C      1  0.4323380000000  0.4587200000000  0.5467840000000 1.0
C      1  0.4626160000000  0.5183690000000  0.5014370000000 1.0
C      1  0.4696470000000  0.4684060000000  0.5099570000000 1.0
END
