TITL C-2323487-9546-586 -7.12744651561118e-06 125000 -360.960557886985 0 0 60 (C1) n - 1
REM
REM in /home/bkarasulu/CARBON/AIRSS/Generating-Clusters/LCBOP/Higher-Symm/Only-C60/SD-CG/FIRE-HFTN
REM
REM
REM
REM
REM
REM ./C.cell (50c204cfd26239f34c78669fe23a5462)
REM
REM compiler GCC version 9.2.1 20190827 (Red Hat 9.2.1-1)
REM options -cpp -mtune=generic -march=x86-64 -g -O0 -fpre-include=/usr/include/finclude/math-vector-fortran.h
REM seed 720100576 -603143260 1992121512 -327115698 -920517706 -285776585 -586631597 -598713043 -1198700402 -2122681019 124902249 620179661 2124743273 -247973080 2003847559 -241053194 1161414629 2122361735 1922317731 1635755379 859390968 -1408339618 -1249392658 1388261224 -1791648906 -345811956 1347904257 1329399713 1208848101 799546379 -656128379 2027338441 1557211569
REM
CELL 1.54180   50.00000   50.00000   50.00000   90.00000   90.00000   90.00000
LATT -1
SFAC C  
C      1  0.5030090000000  0.4522460000000  0.4757200000000 1.0
C      1  0.4415850000000  0.4842610000000  0.5407800000000 1.0
C      1  0.4693750000000  0.5256520000000  0.4585380000000 1.0
C      1  0.4638270000000  0.4681290000000  0.5460280000000 1.0
C      1  0.4867010000000  0.5481800000000  0.4595070000000 1.0
C      1  0.4885790000000  0.5555000000000  0.5181870000000 1.0
C      1  0.5451330000000  0.4754230000000  0.4788880000000 1.0
C      1  0.5575150000000  0.5106620000000  0.5497300000000 1.0
C      1  0.4443440000000  0.5287100000000  0.4714140000000 1.0
C      1  0.5436660000000  0.4915110000000  0.5642830000000 1.0
C      1  0.5225690000000  0.4681660000000  0.4635830000000 1.0
C      1  0.4818430000000  0.4750000000000  0.5666270000000 1.0
C      1  0.5152900000000  0.5504290000000  0.4683280000000 1.0
C      1  0.4430540000000  0.5364000000000  0.4999240000000 1.0
C      1  0.4743250000000  0.4984460000000  0.4508960000000 1.0
C      1  0.4612380000000  0.5563330000000  0.5070870000000 1.0
C      1  0.4745900000000  0.4589510000000  0.4800720000000 1.0
C      1  0.5373190000000  0.4549140000000  0.5265820000000 1.0
C      1  0.5387660000000  0.5379560000000  0.4589150000000 1.0
C      1  0.5524890000000  0.4682640000000  0.5067930000000 1.0
C      1  0.4599600000000  0.4781360000000  0.4654980000000 1.0
C      1  0.5360870000000  0.4646640000000  0.5534740000000 1.0
C      1  0.5442360000000  0.5364430000000  0.4311780000000 1.0
C      1  0.4911660000000  0.5013690000000  0.5759780000000 1.0
C      1  0.5042930000000  0.5787670000000  0.5087670000000 1.0
C      1  0.5680460000000  0.5112970000000  0.5239980000000 1.0
C      1  0.5369840000000  0.4920270000000  0.5929010000000 1.0
C      1  0.4749100000000  0.5761810000000  0.4633240000000 1.0
C      1  0.4709750000000  0.4461880000000  0.5292680000000 1.0
C      1  0.5092630000000  0.4287180000000  0.4923650000000 1.0
C      1  0.4224550000000  0.5098660000000  0.4661940000000 1.0
C      1  0.4259220000000  0.4931270000000  0.5195850000000 1.0
C      1  0.5641700000000  0.4966460000000  0.4704850000000 1.0
C      1  0.5142270000000  0.5193290000000  0.3967940000000 1.0
C      1  0.4967370000000  0.4560420000000  0.5847290000000 1.0
C      1  0.5182260000000  0.4798310000000  0.4380900000000 1.0
C      1  0.5181310000000  0.4350990000000  0.5192130000000 1.0
C      1  0.5760360000000  0.4858490000000  0.5126840000000 1.0
C      1  0.5249020000000  0.4503590000000  0.5776310000000 1.0
C      1  0.4655530000000  0.4400000000000  0.5012590000000 1.0
C      1  0.4623120000000  0.5810040000000  0.4896990000000 1.0
C      1  0.5166500000000  0.5767130000000  0.4821240000000 1.0
C      1  0.4322050000000  0.4829560000000  0.4715760000000 1.0
C      1  0.4206270000000  0.5203150000000  0.5109330000000 1.0
C      1  0.5553710000000  0.5234930000000  0.4765200000000 1.0
C      1  0.4927860000000  0.4917510000000  0.4308180000000 1.0
C      1  0.5090100000000  0.4982500000000  0.5992820000000 1.0
C      1  0.5380290000000  0.5164920000000  0.4122510000000 1.0
C      1  0.4813130000000  0.5983490000000  0.5055380000000 1.0
C      1  0.5606880000000  0.5303420000000  0.5038880000000 1.0
C      1  0.5416900000000  0.4629970000000  0.5993990000000 1.0
C      1  0.4999870000000  0.5927510000000  0.4628950000000 1.0
C      1  0.4956150000000  0.4331750000000  0.5370360000000 1.0
C      1  0.4821730000000  0.4159350000000  0.4937810000000 1.0
C      1  0.4027560000000  0.5185060000000  0.4866830000000 1.0
C      1  0.4233950000000  0.4745210000000  0.4975500000000 1.0
C      1  0.5881340000000  0.4894740000000  0.4861090000000 1.0
C      1  0.4973580000000  0.4724710000000  0.6102800000000 1.0
C      1  0.5400590000000  0.4897160000000  0.4224700000000 1.0
C      1  0.4923430000000  0.5057180000000  0.4058730000000 1.0
END
