TITL C-2323478-8180-492 0.0117659014780914 125000 -362.156597466113 0 0 60 (D4) n - 1
REM
REM in /home/bkarasulu/CARBON/AIRSS/Generating-Clusters/LCBOP/Higher-Symm/Only-C60/SD-CG/FIRE-HFTN
REM
REM
REM
REM
REM
REM ./C.cell (50c204cfd26239f34c78669fe23a5462)
REM
REM compiler GCC version 9.2.1 20190827 (Red Hat 9.2.1-1)
REM options -cpp -mtune=generic -march=x86-64 -g -O0 -fpre-include=/usr/include/finclude/math-vector-fortran.h
REM seed 1223668936 -1124487436 1656762099 -2060184628 -1993530209 898657016 1750153716 -195714358 1109489206 218345974 942120928 -783104707 2074021530 -1758960697 1864706239 1358270445 -783005124 1307782964 -1586100253 1342103792 -889610142 2015256790 1852952122 870340322 1869756222 -972918795 -604740152 -1815167568 -611831561 -326882641 -1418271606 911199961 -765921265
REM
CELL 1.54180   50.00000   50.00000   50.00000   90.00000   90.00000   90.00000
LATT -1
SFAC C  
C      1  0.4838810000000  0.4797820000000  0.4336770000000 1.0
C      1  0.5202180000000  0.4838800000000  0.4336770000000 1.0
C      1  0.5161190000000  0.5202170000000  0.4336770000000 1.0
C      1  0.4797830000000  0.5161190000000  0.4336770000000 1.0
C      1  0.5161190000000  0.4797830000000  0.5679900000000 1.0
C      1  0.4797820000000  0.4838810000000  0.5679900000000 1.0
C      1  0.4838810000000  0.5202180000000  0.5679890000000 1.0
C      1  0.5202170000000  0.5161190000000  0.5679900000000 1.0
C      1  0.5585640000000  0.5241820000000  0.4693020000000 1.0
C      1  0.4758180000000  0.5585640000000  0.4693010000000 1.0
C      1  0.4414360000000  0.4758180000000  0.4693020000000 1.0
C      1  0.5241820000000  0.4414350000000  0.4693020000000 1.0
C      1  0.4414360000000  0.5241820000000  0.5323650000000 1.0
C      1  0.5241820000000  0.5585640000000  0.5323640000000 1.0
C      1  0.5585640000000  0.4758180000000  0.5323650000000 1.0
C      1  0.4758180000000  0.4414360000000  0.5323650000000 1.0
C      1  0.5579440000000  0.5235190000000  0.5325400000000 1.0
C      1  0.4764810000000  0.5579450000000  0.5325400000000 1.0
C      1  0.4420550000000  0.4764820000000  0.5325400000000 1.0
C      1  0.5235180000000  0.4420560000000  0.5325400000000 1.0
C      1  0.4420560000000  0.5235190000000  0.4691260000000 1.0
C      1  0.5235190000000  0.5579440000000  0.4691260000000 1.0
C      1  0.5579440000000  0.4764810000000  0.4691270000000 1.0
C      1  0.4764810000000  0.4420550000000  0.4691270000000 1.0
C      1  0.4523200000000  0.4860490000000  0.5582320000000 1.0
C      1  0.5139510000000  0.4523200000000  0.5582330000000 1.0
C      1  0.5476800000000  0.5139510000000  0.5582320000000 1.0
C      1  0.4860490000000  0.5476800000000  0.5582320000000 1.0
C      1  0.5476800000000  0.4860480000000  0.4434340000000 1.0
C      1  0.4860490000000  0.4523200000000  0.4434340000000 1.0
C      1  0.4523200000000  0.5139510000000  0.4434340000000 1.0
C      1  0.5139510000000  0.5476800000000  0.4434340000000 1.0
C      1  0.5001260000000  0.5724910000000  0.5235210000000 1.0
C      1  0.4275090000000  0.5001270000000  0.5235220000000 1.0
C      1  0.4998740000000  0.4275090000000  0.5235220000000 1.0
C      1  0.5724910000000  0.4998740000000  0.5235220000000 1.0
C      1  0.4998740000000  0.5724910000000  0.4781440000000 1.0
C      1  0.5724910000000  0.5001260000000  0.4781450000000 1.0
C      1  0.5001260000000  0.4275090000000  0.4781450000000 1.0
C      1  0.4275090000000  0.4998740000000  0.4781450000000 1.0
C      1  0.5153090000000  0.4511640000000  0.4438520000000 1.0
C      1  0.5488350000000  0.5153090000000  0.4438520000000 1.0
C      1  0.4846910000000  0.5488350000000  0.4438520000000 1.0
C      1  0.4511650000000  0.4846900000000  0.4438520000000 1.0
C      1  0.4846900000000  0.4511650000000  0.5578150000000 1.0
C      1  0.4511650000000  0.5153100000000  0.5578140000000 1.0
C      1  0.5153090000000  0.5488360000000  0.5578140000000 1.0
C      1  0.5488350000000  0.4846910000000  0.5578150000000 1.0
C      1  0.4568390000000  0.5430820000000  0.4855360000000 1.0
C      1  0.4569180000000  0.4568390000000  0.4855370000000 1.0
C      1  0.5431610000000  0.4569180000000  0.4855370000000 1.0
C      1  0.5430820000000  0.5431610000000  0.4855360000000 1.0
C      1  0.5431610000000  0.5430820000000  0.5161300000000 1.0
C      1  0.5430820000000  0.4568390000000  0.5161300000000 1.0
C      1  0.4568390000000  0.4569180000000  0.5161300000000 1.0
C      1  0.4569180000000  0.5431610000000  0.5161300000000 1.0
C      1  0.5000000000000  0.4121020000000  0.5008340000000 1.0
C      1  0.5878980000000  0.5000000000000  0.5008330000000 1.0
C      1  0.5000000000000  0.5878980000000  0.5008330000000 1.0
C      1  0.4121020000000  0.5000000000000  0.5008330000000 1.0
END
