TITL C-2323484-8600-70 1.68155177022227 125000 -365.166136760682 0 0 60 (C1) n - 1
REM
REM in /home/bkarasulu/CARBON/AIRSS/Generating-Clusters/LCBOP/Higher-Symm/Only-C60/SD-CG/FIRE-HFTN
REM
REM
REM
REM
REM
REM ./C.cell (50c204cfd26239f34c78669fe23a5462)
REM
REM compiler GCC version 9.2.1 20190827 (Red Hat 9.2.1-1)
REM options -cpp -mtune=generic -march=x86-64 -g -O0 -fpre-include=/usr/include/finclude/math-vector-fortran.h
REM seed -2063647872 -465655907 777810366 -482448603 -1391452983 283578487 -1125436175 78249496 -1056994625 -998839430 -754633044 1315874207 1605148357 2141656571 -700971324 -1005220277 841076346 377949565 -1486412190 -388845549 -1154456593 788701401 1115710703 -919569658 -104022933 -830271991 479105008 792450613 -2003900770 173510559 813901970 -1979982908 917848977
REM
CELL 1.54180   50.00000   50.00000   50.00000   90.00000   90.00000   90.00000
LATT -1
SFAC C  
C      1  0.4427310000000  0.4960130000000  0.5625620000000 1.0
C      1  0.4665330000000  0.4977830000000  0.4343410000000 1.0
C      1  0.4319630000000  0.5267030000000  0.5266470000000 1.0
C      1  0.4489760000000  0.5209760000000  0.4730460000000 1.0
C      1  0.5027510000000  0.5093550000000  0.5395420000000 1.0
C      1  0.5145890000000  0.5125320000000  0.4735810000000 1.0
C      1  0.5871100000000  0.4744430000000  0.4677490000000 1.0
C      1  0.5452710000000  0.4417740000000  0.5500350000000 1.0
C      1  0.5168280000000  0.4432660000000  0.5587810000000 1.0
C      1  0.5313330000000  0.4458580000000  0.4526640000000 1.0
C      1  0.4834710000000  0.5745390000000  0.3975140000000 1.0
C      1  0.4600300000000  0.5668010000000  0.6114240000000 1.0
C      1  0.5443170000000  0.4566730000000  0.4980110000000 1.0
C      1  0.5443140000000  0.4575720000000  0.5254680000000 1.0
C      1  0.4782290000000  0.5607710000000  0.4195240000000 1.0
C      1  0.4574750000000  0.5555410000000  0.5880610000000 1.0
C      1  0.4538000000000  0.4472520000000  0.4807770000000 1.0
C      1  0.4461870000000  0.4476840000000  0.5074020000000 1.0
C      1  0.4707290000000  0.5479170000000  0.5393860000000 1.0
C      1  0.4823010000000  0.5510730000000  0.4695990000000 1.0
C      1  0.5451420000000  0.4856250000000  0.5368580000000 1.0
C      1  0.5483460000000  0.4829500000000  0.4877320000000 1.0
C      1  0.5263270000000  0.5025730000000  0.5242360000000 1.0
C      1  0.5299080000000  0.5026290000000  0.4959180000000 1.0
C      1  0.5091050000000  0.4257630000000  0.4925150000000 1.0
C      1  0.4954570000000  0.4399480000000  0.5129110000000 1.0
C      1  0.4969650000000  0.5376670000000  0.5379140000000 1.0
C      1  0.5078940000000  0.5406920000000  0.4765490000000 1.0
C      1  0.4992370000000  0.6155760000000  0.3317840000000 1.0
C      1  0.4940390000000  0.6020470000000  0.3534540000000 1.0
C      1  0.4264540000000  0.5043940000000  0.5101210000000 1.0
C      1  0.4463130000000  0.4990180000000  0.4906100000000 1.0
C      1  0.4699380000000  0.4575520000000  0.4608850000000 1.0
C      1  0.4507610000000  0.4582120000000  0.5325720000000 1.0
C      1  0.4707620000000  0.4864730000000  0.4987220000000 1.0
C      1  0.4877560000000  0.4668150000000  0.5062730000000 1.0
C      1  0.4535280000000  0.5447680000000  0.5157630000000 1.0
C      1  0.4603820000000  0.5440450000000  0.4879470000000 1.0
C      1  0.5158530000000  0.5536710000000  0.5239700000000 1.0
C      1  0.5210260000000  0.5547440000000  0.4974730000000 1.0
C      1  0.4617370000000  0.4781590000000  0.5509810000000 1.0
C      1  0.4838230000000  0.4795800000000  0.4477850000000 1.0
C      1  0.5914720000000  0.4566630000000  0.5444480000000 1.0
C      1  0.5992930000000  0.4613250000000  0.5185560000000 1.0
C      1  0.5549580000000  0.4830500000000  0.5648510000000 1.0
C      1  0.4887540000000  0.5882910000000  0.3754870000000 1.0
C      1  0.4987230000000  0.4320940000000  0.5399260000000 1.0
C      1  0.5312160000000  0.4381000000000  0.4802590000000 1.0
C      1  0.4552440000000  0.5432890000000  0.5634820000000 1.0
C      1  0.4732090000000  0.5461170000000  0.4423110000000 1.0
C      1  0.5316000000000  0.4831870000000  0.5816190000000 1.0
C      1  0.5598320000000  0.4819930000000  0.4615140000000 1.0
C      1  0.5089440000000  0.4696220000000  0.5697290000000 1.0
C      1  0.5352590000000  0.4740560000000  0.4466610000000 1.0
C      1  0.5984810000000  0.4671980000000  0.4918580000000 1.0
C      1  0.5684510000000  0.4562670000000  0.5623150000000 1.0
C      1  0.4900170000000  0.4863270000000  0.5542900000000 1.0
C      1  0.5107720000000  0.4906070000000  0.4530660000000 1.0
C      1  0.4573830000000  0.5218460000000  0.4454320000000 1.0
C      1  0.4366990000000  0.5225430000000  0.5551080000000 1.0
END
