TITL C-2323488-8613-195 10.7943896440289 125000 -363.159808733052 0 0 60 (C1) n - 1
REM
REM in /home/bkarasulu/CARBON/AIRSS/Generating-Clusters/LCBOP/Higher-Symm/Only-C60/SD-CG/FIRE-HFTN
REM
REM
REM
REM
REM
REM ./C.cell (50c204cfd26239f34c78669fe23a5462)
REM
REM compiler GCC version 9.2.1 20190827 (Red Hat 9.2.1-1)
REM options -cpp -mtune=generic -march=x86-64 -g -O0 -fpre-include=/usr/include/finclude/math-vector-fortran.h
REM seed 122346316 -1930533577 255684269 -1718496721 -1794841403 600210780 997658478 -469618384 553263419 -1467574777 503336112 -946042768 -363172862 662960863 1202866955 2047139016 1691461061 -1483150654 818640575 158201733 1097544651 -835349838 -608186510 -1746177882 -259702217 942831519 -901040686 2044914530 1999626909 1397408008 1279971082 1858687646 -1298179718
REM
CELL 1.54180   50.00000   50.00000   50.00000   90.00000   90.00000   90.00000
LATT -1
SFAC C  
C      1  0.4610340000000  0.4962240000000  0.4692500000000 1.0
C      1  0.5068700000000  0.5160680000000  0.5564220000000 1.0
C      1  0.5502740000000  0.5720030000000  0.4871000000000 1.0
C      1  0.4757240000000  0.5556460000000  0.4863410000000 1.0
C      1  0.4562530000000  0.5436150000000  0.5257410000000 1.0
C      1  0.4851340000000  0.5788300000000  0.5244810000000 1.0
C      1  0.5140630000000  0.4931510000000  0.5427600000000 1.0
C      1  0.5760980000000  0.5622560000000  0.4879930000000 1.0
C      1  0.4418350000000  0.4842960000000  0.4552170000000 1.0
C      1  0.4488880000000  0.4677270000000  0.5200240000000 1.0
C      1  0.5634670000000  0.4885650000000  0.4782510000000 1.0
C      1  0.3999380000000  0.4248690000000  0.4365910000000 1.0
C      1  0.5669770000000  0.5146940000000  0.4733960000000 1.0
C      1  0.4173910000000  0.4449170000000  0.4406040000000 1.0
C      1  0.4722620000000  0.4835990000000  0.5145600000000 1.0
C      1  0.5644530000000  0.4003180000000  0.5083450000000 1.0
C      1  0.6844280000000  0.5309360000000  0.5113380000000 1.0
C      1  0.3509790000000  0.5331010000000  0.4884610000000 1.0
C      1  0.4534740000000  0.5732350000000  0.4855660000000 1.0
C      1  0.4378760000000  0.5637760000000  0.5182510000000 1.0
C      1  0.4613720000000  0.5926240000000  0.5177030000000 1.0
C      1  0.3412330000000  0.5146990000000  0.4714740000000 1.0
C      1  0.5393800000000  0.3910490000000  0.5100230000000 1.0
C      1  0.6735290000000  0.5071760000000  0.5051930000000 1.0
C      1  0.3499420000000  0.4906270000000  0.4637750000000 1.0
C      1  0.5156470000000  0.4026400000000  0.5137730000000 1.0
C      1  0.6486680000000  0.4987950000000  0.5001780000000 1.0
C      1  0.3966310000000  0.4763210000000  0.4727260000000 1.0
C      1  0.5130770000000  0.4517970000000  0.5198450000000 1.0
C      1  0.6105150000000  0.5297530000000  0.4944950000000 1.0
C      1  0.3735860000000  0.5318510000000  0.5029290000000 1.0
C      1  0.5740980000000  0.4252490000000  0.5091320000000 1.0
C      1  0.6722700000000  0.5547830000000  0.5136260000000 1.0
C      1  0.4692500000000  0.5042270000000  0.4948960000000 1.0
C      1  0.4947180000000  0.5397160000000  0.5571280000000 1.0
C      1  0.5241210000000  0.5733230000000  0.4911630000000 1.0
C      1  0.6212070000000  0.5560260000000  0.5023530000000 1.0
C      1  0.4035850000000  0.4886600000000  0.4977700000000 1.0
C      1  0.5414150000000  0.4581290000000  0.5248610000000 1.0
C      1  0.4531280000000  0.4408930000000  0.5268500000000 1.0
C      1  0.5777990000000  0.4722870000000  0.4962550000000 1.0
C      1  0.3744900000000  0.4241090000000  0.4455020000000 1.0
C      1  0.4183870000000  0.4690140000000  0.4551180000000 1.0
C      1  0.4973160000000  0.4763630000000  0.5256880000000 1.0
C      1  0.5835570000000  0.5346190000000  0.4835810000000 1.0
C      1  0.5011980000000  0.4259020000000  0.5192270000000 1.0
C      1  0.6210860000000  0.5036440000000  0.4990770000000 1.0
C      1  0.3692400000000  0.4703980000000  0.4657700000000 1.0
C      1  0.4232960000000  0.4770690000000  0.5139520000000 1.0
C      1  0.5402490000000  0.4814640000000  0.5420040000000 1.0
C      1  0.5997140000000  0.5748180000000  0.4984260000000 1.0
C      1  0.6035310000000  0.4818240000000  0.5022800000000 1.0
C      1  0.3621850000000  0.4439680000000  0.4588660000000 1.0
C      1  0.4738840000000  0.4241880000000  0.5253570000000 1.0
C      1  0.4680220000000  0.5313660000000  0.5014680000000 1.0
C      1  0.4784350000000  0.5555640000000  0.5412980000000 1.0
C      1  0.4981710000000  0.5694700000000  0.4996370000000 1.0
C      1  0.3928240000000  0.5134500000000  0.5052590000000 1.0
C      1  0.5648530000000  0.4516210000000  0.5104970000000 1.0
C      1  0.6469760000000  0.5626980000000  0.5101540000000 1.0
END
