TITL C-2323479-8056-257 0.00517431156349042 125000 -359.1903601927 0 0 60 (C1) n - 1
REM
REM in /home/bkarasulu/CARBON/AIRSS/Generating-Clusters/LCBOP/Higher-Symm/Only-C60/SD-CG/FIRE-HFTN
REM
REM
REM
REM
REM
REM ./C.cell (50c204cfd26239f34c78669fe23a5462)
REM
REM compiler GCC version 9.2.1 20190827 (Red Hat 9.2.1-1)
REM options -cpp -mtune=generic -march=x86-64 -g -O0 -fpre-include=/usr/include/finclude/math-vector-fortran.h
REM seed -1549812751 -1323625774 1551707604 683508312 -324750381 -680160279 -1450710164 1343974146 789762205 -1337125022 -2141833082 -1702299192 -1016019578 -798271248 1393321446 -275647860 1252070282 -42640930 2008619728 375659941 -1086125081 416204429 338129780 -1902592444 -1010058930 583563418 132093387 812709984 -3167575 -355454112 -85401439 -1167367736 1981889634
REM
CELL 1.54180   50.00000   50.00000   50.00000   90.00000   90.00000   90.00000
LATT -1
SFAC C  
C      1  0.5775210000000  0.4480350000000  0.4677760000000 1.0
C      1  0.4558400000000  0.4529170000000  0.4866910000000 1.0
C      1  0.4665170000000  0.4581870000000  0.5741890000000 1.0
C      1  0.5254000000000  0.4524350000000  0.5680560000000 1.0
C      1  0.4715920000000  0.5476380000000  0.4645860000000 1.0
C      1  0.5319170000000  0.5500050000000  0.4645500000000 1.0
C      1  0.4666520000000  0.4981850000000  0.5423700000000 1.0
C      1  0.5271910000000  0.4942430000000  0.5394920000000 1.0
C      1  0.5361530000000  0.5307210000000  0.4433840000000 1.0
C      1  0.4641840000000  0.5292670000000  0.4438030000000 1.0
C      1  0.4311070000000  0.4897320000000  0.4667700000000 1.0
C      1  0.5696670000000  0.4940480000000  0.4656410000000 1.0
C      1  0.4848030000000  0.5215390000000  0.5487740000000 1.0
C      1  0.5115710000000  0.5197550000000  0.5469080000000 1.0
C      1  0.4346110000000  0.5363700000000  0.5469510000000 1.0
C      1  0.5608320000000  0.5310960000000  0.5480250000000 1.0
C      1  0.4862150000000  0.5005660000000  0.4726170000000 1.0
C      1  0.5098460000000  0.5139210000000  0.4741750000000 1.0
C      1  0.4868270000000  0.5718770000000  0.4720350000000 1.0
C      1  0.5152780000000  0.5727870000000  0.4729970000000 1.0
C      1  0.5282700000000  0.5813790000000  0.4981420000000 1.0
C      1  0.4723210000000  0.5811350000000  0.4959150000000 1.0
C      1  0.5083800000000  0.4157430000000  0.5974080000000 1.0
C      1  0.4817520000000  0.4184130000000  0.6002870000000 1.0
C      1  0.5291380000000  0.5125160000000  0.4942840000000 1.0
C      1  0.4690510000000  0.5093380000000  0.4937310000000 1.0
C      1  0.4815970000000  0.4757480000000  0.5582450000000 1.0
C      1  0.5112570000000  0.4734710000000  0.5557510000000 1.0
C      1  0.4705920000000  0.4894810000000  0.5139470000000 1.0
C      1  0.5243130000000  0.4882900000000  0.5098140000000 1.0
C      1  0.5569450000000  0.5040120000000  0.5397930000000 1.0
C      1  0.4375480000000  0.5087630000000  0.5406250000000 1.0
C      1  0.4304760000000  0.4565050000000  0.5007370000000 1.0
C      1  0.5906440000000  0.4596100000000  0.4891370000000 1.0
C      1  0.4721460000000  0.4890580000000  0.4192060000000 1.0
C      1  0.5256000000000  0.4863400000000  0.4271760000000 1.0
C      1  0.4476700000000  0.4653000000000  0.4596820000000 1.0
C      1  0.5607000000000  0.4674930000000  0.4552120000000 1.0
C      1  0.4396390000000  0.5133360000000  0.4515190000000 1.0
C      1  0.5609660000000  0.5159970000000  0.4496110000000 1.0
C      1  0.5744180000000  0.4950780000000  0.5188260000000 1.0
C      1  0.4208150000000  0.4994550000000  0.5189990000000 1.0
C      1  0.4794480000000  0.4637640000000  0.5028350000000 1.0
C      1  0.5095490000000  0.4652660000000  0.4967730000000 1.0
C      1  0.4843830000000  0.5151300000000  0.4266910000000 1.0
C      1  0.5151390000000  0.5139930000000  0.4292020000000 1.0
C      1  0.5133400000000  0.4627350000000  0.4673880000000 1.0
C      1  0.4897360000000  0.4760960000000  0.4586110000000 1.0
C      1  0.5549580000000  0.5543400000000  0.5355080000000 1.0
C      1  0.4436900000000  0.5573330000000  0.5326060000000 1.0
C      1  0.4625680000000  0.5369200000000  0.4913380000000 1.0
C      1  0.5414380000000  0.5386130000000  0.4914740000000 1.0
C      1  0.5258760000000  0.4306640000000  0.5835350000000 1.0
C      1  0.4650020000000  0.4367470000000  0.5900590000000 1.0
C      1  0.5818600000000  0.4873020000000  0.4927040000000 1.0
C      1  0.4210100000000  0.4839150000000  0.4952480000000 1.0
C      1  0.4582250000000  0.5596380000000  0.5089920000000 1.0
C      1  0.5434670000000  0.5602280000000  0.5107620000000 1.0
C      1  0.4686670000000  0.4702140000000  0.4407520000000 1.0
C      1  0.5336850000000  0.4673160000000  0.4476820000000 1.0
END
