TITL C-2323477-5056-388 4.91935449257103e-05 125000 -348.168727330133 0 0 60 (C3) n - 1
REM
REM in /home/bkarasulu/CARBON/AIRSS/Generating-Clusters/LCBOP/Higher-Symm/Only-C60/SD-CG/FIRE-HFTN
REM
REM
REM
REM
REM
REM ./C.cell (50c204cfd26239f34c78669fe23a5462)
REM
REM compiler GCC version 9.2.1 20190827 (Red Hat 9.2.1-1)
REM options -cpp -mtune=generic -march=x86-64 -g -O0 -fpre-include=/usr/include/finclude/math-vector-fortran.h
REM seed -1914598463 -105555121 1803038890 -468997299 336708844 550451952 905108165 -913425075 551064227 -98031059 26407789 -1405388921 222181371 -2106872115 -2081377167 548205624 -1635961353 23552806 1474397034 -1579538753 -1556936486 1847807479 1898576625 -245587047 1969613876 -780218695 1334852491 2136233748 -1318360665 441338283 124066441 -180320950 -144893926
REM
CELL 1.54180   50.00000   50.00000   50.00000   90.00000   90.00000   90.00000
LATT -1
SFAC C  
C      1  0.4620030000000  0.5766270000000  0.4668670000000 1.0
C      1  0.4500610000000  0.4308280000000  0.4668600000000 1.0
C      1  0.5822970000000  0.4933850000000  0.4668620000000 1.0
C      1  0.5184350000000  0.4808520000000  0.4531630000000 1.0
C      1  0.5047890000000  0.5275880000000  0.4531650000000 1.0
C      1  0.4711370000000  0.4924020000000  0.4531640000000 1.0
C      1  0.4696480000000  0.5558860000000  0.5074690000000 1.0
C      1  0.4641990000000  0.4478160000000  0.5074640000000 1.0
C      1  0.5605150000000  0.4971320000000  0.5074660000000 1.0
C      1  0.5332570000000  0.4442400000000  0.4818360000000 1.0
C      1  0.5290840000000  0.5587280000000  0.4818410000000 1.0
C      1  0.4320210000000  0.4978700000000  0.4818390000000 1.0
C      1  0.4744710000000  0.3895540000000  0.5534050000000 1.0
C      1  0.6058340000000  0.5351550000000  0.5534110000000 1.0
C      1  0.4140580000000  0.5761180000000  0.5534140000000 1.0
C      1  0.4218350000000  0.5076520000000  0.5045040000000 1.0
C      1  0.5298770000000  0.4305260000000  0.5044990000000 1.0
C      1  0.5426490000000  0.5626560000000  0.5045050000000 1.0
C      1  0.5410780000000  0.5571160000000  0.5306370000000 1.0
C      1  0.4274180000000  0.5090590000000  0.5306360000000 1.0
C      1  0.5258670000000  0.4346560000000  0.5306310000000 1.0
C      1  0.5986170000000  0.5079460000000  0.4837500000000 1.0
C      1  0.4412320000000  0.5834780000000  0.4837540000000 1.0
C      1  0.4545130000000  0.4094130000000  0.4837460000000 1.0
C      1  0.4448500000000  0.5713590000000  0.5097330000000 1.0
C      1  0.4631980000000  0.4186030000000  0.5097260000000 1.0
C      1  0.5863140000000  0.5108710000000  0.5097290000000 1.0
C      1  0.4720940000000  0.4882950000000  0.5438180000000 1.0
C      1  0.5215110000000  0.4837270000000  0.5438170000000 1.0
C      1  0.5007580000000  0.5288070000000  0.5438190000000 1.0
C      1  0.4810170000000  0.5405010000000  0.5275900000000 1.0
C      1  0.4718370000000  0.4653520000000  0.5275870000000 1.0
C      1  0.5415080000000  0.4949770000000  0.5275880000000 1.0
C      1  0.4808540000000  0.5595000000000  0.4804750000000 1.0
C      1  0.4554680000000  0.4557150000000  0.4804700000000 1.0
C      1  0.5580400000000  0.4856230000000  0.4804700000000 1.0
C      1  0.5051000000000  0.5492140000000  0.4708160000000 1.0
C      1  0.4522520000000  0.4818570000000  0.4708140000000 1.0
C      1  0.5370090000000  0.4697680000000  0.4708120000000 1.0
C      1  0.4287620000000  0.5742530000000  0.5319800000000 1.0
C      1  0.4687350000000  0.4032230000000  0.5319710000000 1.0
C      1  0.5968650000000  0.5233550000000  0.5319760000000 1.0
C      1  0.5220420000000  0.4556760000000  0.5468080000000 1.0
C      1  0.5247850000000  0.5432920000000  0.5468120000000 1.0
C      1  0.4475360000000  0.5018600000000  0.5468110000000 1.0
C      1  0.4981200000000  0.5002820000000  0.4132590000000 1.0
C      1  0.4981230000000  0.5002650000000  0.7157580000000 1.0
C      1  0.4981200000000  0.5002840000000  0.3072850000000 1.0
C      1  0.4981220000000  0.5002730000000  0.6101830000000 1.0
C      1  0.4981200000000  0.5002830000000  0.3867830000000 1.0
C      1  0.4981220000000  0.5002710000000  0.6366820000000 1.0
C      1  0.4981220000000  0.5002690000000  0.6631810000000 1.0
C      1  0.4981200000000  0.5002810000000  0.4429950000000 1.0
C      1  0.4981210000000  0.5002740000000  0.5837110000000 1.0
C      1  0.4981200000000  0.5002830000000  0.2807780000000 1.0
C      1  0.4981200000000  0.5002840000000  0.3337840000000 1.0
C      1  0.4981200000000  0.5002830000000  0.2547080000000 1.0
C      1  0.4981210000000  0.5002760000000  0.5538900000000 1.0
C      1  0.4981220000000  0.5002670000000  0.6896880000000 1.0
C      1  0.4981200000000  0.5002830000000  0.3602840000000 1.0
END
