TITL C-2323485-8600-465 3.19787335862723e-05 125000 -363.356248810148 0 0 60 (C1) n - 1
REM
REM in /home/bkarasulu/CARBON/AIRSS/Generating-Clusters/LCBOP/Higher-Symm/Only-C60/SD-CG/FIRE-HFTN
REM
REM
REM
REM
REM
REM ./C.cell (50c204cfd26239f34c78669fe23a5462)
REM
REM compiler GCC version 9.2.1 20190827 (Red Hat 9.2.1-1)
REM options -cpp -mtune=generic -march=x86-64 -g -O0 -fpre-include=/usr/include/finclude/math-vector-fortran.h
REM seed -509500082 2120580556 -1803857290 203902774 1725321894 37990809 1483801510 1309326519 -194888747 1030442764 435477712 -405067808 930649321 -937424201 772862494 -80849475 -1733643687 1988264959 317491257 -514664044 1254674871 -1697994188 -92467735 -1255950210 872566923 -496785912 1657026784 576084266 2132444498 1577342075 -322132119 -649977746 -1318141157
REM
CELL 1.54180   50.00000   50.00000   50.00000   90.00000   90.00000   90.00000
LATT -1
SFAC C  
C      1  0.5184870000000  0.5873950000000  0.5047490000000 1.0
C      1  0.5133450000000  0.5945910000000  0.4763920000000 1.0
C      1  0.4884230000000  0.5790310000000  0.4716240000000 1.0
C      1  0.4738360000000  0.5797330000000  0.4991530000000 1.0
C      1  0.4922880000000  0.5958450000000  0.5161820000000 1.0
C      1  0.4682090000000  0.4607790000000  0.4493370000000 1.0
C      1  0.4393040000000  0.4584370000000  0.5192550000000 1.0
C      1  0.4964680000000  0.4523350000000  0.5689020000000 1.0
C      1  0.5627190000000  0.4434500000000  0.5314090000000 1.0
C      1  0.5440180000000  0.4512090000000  0.4563230000000 1.0
C      1  0.4718240000000  0.5523690000000  0.5097090000000 1.0
C      1  0.4976790000000  0.5444450000000  0.5216040000000 1.0
C      1  0.5196400000000  0.5580840000000  0.5064580000000 1.0
C      1  0.5183080000000  0.5424230000000  0.4809800000000 1.0
C      1  0.4949700000000  0.5512040000000  0.4652540000000 1.0
C      1  0.5639400000000  0.4903170000000  0.4700850000000 1.0
C      1  0.4878690000000  0.5015000000000  0.4321170000000 1.0
C      1  0.4309860000000  0.4933830000000  0.4852570000000 1.0
C      1  0.4717320000000  0.4932530000000  0.5573060000000 1.0
C      1  0.5479300000000  0.4815770000000  0.5516820000000 1.0
C      1  0.5158080000000  0.5077110000000  0.5746820000000 1.0
C      1  0.5736710000000  0.5047850000000  0.5134820000000 1.0
C      1  0.5334410000000  0.5118100000000  0.4355450000000 1.0
C      1  0.4394980000000  0.5089810000000  0.4409950000000 1.0
C      1  0.4373730000000  0.5131290000000  0.5296450000000 1.0
C      1  0.5101270000000  0.5140280000000  0.4197530000000 1.0
C      1  0.4204520000000  0.4993490000000  0.4594650000000 1.0
C      1  0.4467390000000  0.5067100000000  0.5553540000000 1.0
C      1  0.5425770000000  0.4990870000000  0.5731990000000 1.0
C      1  0.5804690000000  0.5070230000000  0.4859600000000 1.0
C      1  0.5240820000000  0.5048400000000  0.5121460000000 1.0
C      1  0.5245210000000  0.5146910000000  0.4846620000000 1.0
C      1  0.4725100000000  0.5334070000000  0.4657430000000 1.0
C      1  0.4596200000000  0.5332770000000  0.4917480000000 1.0
C      1  0.5047080000000  0.5179010000000  0.5295660000000 1.0
C      1  0.5346870000000  0.4977720000000  0.4619110000000 1.0
C      1  0.4664970000000  0.5163000000000  0.4439900000000 1.0
C      1  0.4410250000000  0.5144220000000  0.5017990000000 1.0
C      1  0.4961620000000  0.5076280000000  0.5545310000000 1.0
C      1  0.5490720000000  0.4893560000000  0.5216580000000 1.0
C      1  0.5245960000000  0.4479490000000  0.5048350000000 1.0
C      1  0.5071030000000  0.4553010000000  0.4836220000000 1.0
C      1  0.4813240000000  0.4451610000000  0.4907200000000 1.0
C      1  0.4816870000000  0.4373440000000  0.5185600000000 1.0
C      1  0.5096820000000  0.4364680000000  0.5267750000000 1.0
C      1  0.5091610000000  0.5265550000000  0.3956510000000 1.0
C      1  0.3941340000000  0.4960810000000  0.4532330000000 1.0
C      1  0.4324550000000  0.5131720000000  0.5777190000000 1.0
C      1  0.5616940000000  0.5070360000000  0.5908850000000 1.0
C      1  0.6000540000000  0.5231250000000  0.4762200000000 1.0
C      1  0.5619460000000  0.4619820000000  0.4777020000000 1.0
C      1  0.4922870000000  0.4749590000000  0.4425210000000 1.0
C      1  0.4393990000000  0.4670190000000  0.4918210000000 1.0
C      1  0.4732960000000  0.4646950000000  0.5570880000000 1.0
C      1  0.5455000000000  0.4525330000000  0.5537920000000 1.0
C      1  0.5522760000000  0.4594780000000  0.5069570000000 1.0
C      1  0.5183120000000  0.4692020000000  0.4589130000000 1.0
C      1  0.4597020000000  0.4547260000000  0.4756290000000 1.0
C      1  0.4620730000000  0.4506940000000  0.5345330000000 1.0
C      1  0.5183010000000  0.4429540000000  0.5532110000000 1.0
END
