TITL C-2323485-8600-484 5.40289287934688e-06 125000 -375.085827960078 0 0 60 (C3) n - 1
REM
REM in /home/bkarasulu/CARBON/AIRSS/Generating-Clusters/LCBOP/Higher-Symm/Only-C60/SD-CG/FIRE-HFTN
REM
REM
REM
REM
REM
REM ./C.cell (50c204cfd26239f34c78669fe23a5462)
REM
REM compiler GCC version 9.2.1 20190827 (Red Hat 9.2.1-1)
REM options -cpp -mtune=generic -march=x86-64 -g -O0 -fpre-include=/usr/include/finclude/math-vector-fortran.h
REM seed -338227492 1566267319 111497976 644579549 795999563 -655704921 -1997870665 -1373669566 893180029 264098100 1253634828 617767967 -2085239092 1123048923 -1512790428 2082893650 1823154411 -1863668950 151052550 473548066 -550073457 -282824017 1831074952 1393712289 1978397708 1135846 426735077 382116242 -133930425 -1325248696 -1209168841 793304348 -175773079
REM
CELL 1.54180   50.00000   50.00000   50.00000   90.00000   90.00000   90.00000
LATT -1
SFAC C  
C      1  0.4509660000000  0.5551000000000  0.4737520000000 1.0
C      1  0.5472490000000  0.5550990000000  0.4706580000000 1.0
C      1  0.5017870000000  0.5551000000000  0.5555890000000 1.0
C      1  0.4509660000000  0.5551000000000  0.5262480000000 1.0
C      1  0.5472490000000  0.5550990000000  0.5293420000000 1.0
C      1  0.5017870000000  0.5551000000000  0.4444110000000 1.0
C      1  0.5546570000000  0.5111770000000  0.4460530000000 1.0
C      1  0.5193910000000  0.5111770000000  0.5743080000000 1.0
C      1  0.4259520000000  0.5111780000000  0.4796390000000 1.0
C      1  0.5546570000000  0.5111770000000  0.5539470000000 1.0
C      1  0.5193910000000  0.5111770000000  0.4256920000000 1.0
C      1  0.4259520000000  0.5111780000000  0.5203610000000 1.0
C      1  0.5478490000000  0.4470960000000  0.5146960000000 1.0
C      1  0.4633480000000  0.4470960000000  0.5340900000000 1.0
C      1  0.4888020000000  0.4470960000000  0.4512130000000 1.0
C      1  0.5478490000000  0.4470960000000  0.4853040000000 1.0
C      1  0.4633480000000  0.4470960000000  0.4659100000000 1.0
C      1  0.4888020000000  0.4470960000000  0.5487870000000 1.0
C      1  0.4982930000000  0.4742270000000  0.5530510000000 1.0
C      1  0.4549100000000  0.4742270000000  0.4719970000000 1.0
C      1  0.5467960000000  0.4742270000000  0.4749520000000 1.0
C      1  0.4982930000000  0.4742270000000  0.4469490000000 1.0
C      1  0.4549100000000  0.4742270000000  0.5280030000000 1.0
C      1  0.5467960000000  0.4742270000000  0.5250480000000 1.0
C      1  0.4578310000000  0.4283330000000  0.4864660000000 1.0
C      1  0.5328040000000  0.4283330000000  0.4702490000000 1.0
C      1  0.5093630000000  0.4283330000000  0.5432850000000 1.0
C      1  0.4578310000000  0.4283330000000  0.5135340000000 1.0
C      1  0.5328040000000  0.4283330000000  0.5297520000000 1.0
C      1  0.5093630000000  0.4283330000000  0.4567150000000 1.0
C      1  0.5654100000000  0.4934910000000  0.4656460000000 1.0
C      1  0.4970460000000  0.4934910000000  0.5738240000000 1.0
C      1  0.4375440000000  0.4934920000000  0.4605300000000 1.0
C      1  0.5654100000000  0.4934910000000  0.5343540000000 1.0
C      1  0.4970460000000  0.4934910000000  0.4261760000000 1.0
C      1  0.4375440000000  0.4934920000000  0.5394700000000 1.0
C      1  0.5239510000000  0.4874600000000  0.5140080000000 1.0
C      1  0.4758930000000  0.4874610000000  0.5137380000000 1.0
C      1  0.5001550000000  0.4874610000000  0.4722540000000 1.0
C      1  0.5239510000000  0.4874600000000  0.4859920000000 1.0
C      1  0.4758930000000  0.4874610000000  0.4862620000000 1.0
C      1  0.5001550000000  0.4874610000000  0.5277460000000 1.0
C      1  0.5466130000000  0.5376890000000  0.4486220000000 1.0
C      1  0.5211890000000  0.5376890000000  0.5660560000000 1.0
C      1  0.4322000000000  0.5376900000000  0.4853220000000 1.0
C      1  0.5466130000000  0.5376890000000  0.5513780000000 1.0
C      1  0.5211890000000  0.5376890000000  0.4339440000000 1.0
C      1  0.4322000000000  0.5376900000000  0.5146780000000 1.0
C      1  0.4464100000000  0.5016360000000  0.5655260000000 1.0
C      1  0.4700480000000  0.5016360000000  0.4208270000000 1.0
C      1  0.5835420000000  0.5016350000000  0.5136470000000 1.0
C      1  0.4464100000000  0.5016360000000  0.4344740000000 1.0
C      1  0.4700480000000  0.5016360000000  0.5791730000000 1.0
C      1  0.5835420000000  0.5016350000000  0.4863530000000 1.0
C      1  0.4753460000000  0.5637910000000  0.4855330000000 1.0
C      1  0.5248570000000  0.5637900000000  0.4858820000000 1.0
C      1  0.4997990000000  0.5637900000000  0.5285850000000 1.0
C      1  0.4753460000000  0.5637910000000  0.5144670000000 1.0
C      1  0.5248570000000  0.5637900000000  0.5141180000000 1.0
C      1  0.4997990000000  0.5637900000000  0.4714150000000 1.0
END
