TITL C-2323481-8605-87 644.17455815016 125000 -357.082211958859 0 0 60 (C1) n - 1
REM
REM in /home/bkarasulu/CARBON/AIRSS/Generating-Clusters/LCBOP/Higher-Symm/Only-C60/SD-CG/FIRE-HFTN
REM
REM
REM
REM
REM
REM ./C.cell (50c204cfd26239f34c78669fe23a5462)
REM
REM compiler GCC version 9.2.1 20190827 (Red Hat 9.2.1-1)
REM options -cpp -mtune=generic -march=x86-64 -g -O0 -fpre-include=/usr/include/finclude/math-vector-fortran.h
REM seed 1892203995 1547708919 261056309 -1155589017 2009485439 -686548492 2107911021 -1355810893 -1269586178 -2080367283 1208215570 -585719289 -441952530 794430482 81737152 -904160808 -2140742808 -708986046 -590083593 95637707 665452727 299960785 1406614075 -864674279 1993371185 -1927844648 -853244137 -845719453 252746586 1337377972 1246733769 401865704 -369939674
REM
CELL 1.54180   50.00000   50.00000   50.00000   90.00000   90.00000   90.00000
LATT -1
SFAC C  
C      1  0.5355980000000  0.5391400000000  0.5406530000000 1.0
C      1  0.5552640000000  0.4657220000000  0.5384940000000 1.0
C      1  0.5107470000000  0.5395860000000  0.4489780000000 1.0
C      1  0.4763640000000  0.5705020000000  0.4596470000000 1.0
C      1  0.4303380000000  0.5260400000000  0.4577980000000 1.0
C      1  0.4889140000000  0.4606770000000  0.5857000000000 1.0
C      1  0.4078450000000  0.4844920000000  0.4458320000000 1.0
C      1  0.5601880000000  0.4617130000000  0.4932020000000 1.0
C      1  0.5248850000000  0.4977580000000  0.5130070000000 1.0
C      1  0.5560430000000  0.5249840000000  0.4737390000000 1.0
C      1  0.5417760000000  0.5469660000000  0.4855110000000 1.0
C      1  0.4271990000000  0.5849720000000  0.5351850000000 1.0
C      1  0.5404190000000  0.5494910000000  0.5141190000000 1.0
C      1  0.4609900000000  0.4865890000000  0.6474510000000 1.0
C      1  0.5256670000000  0.4304480000000  0.4998540000000 1.0
C      1  0.5509560000000  0.5161750000000  0.5493160000000 1.0
C      1  0.5136680000000  0.4739000000000  0.4112310000000 1.0
C      1  0.4829970000000  0.5025030000000  0.5347440000000 1.0
C      1  0.5531190000000  0.4596060000000  0.5661170000000 1.0
C      1  0.5462520000000  0.4939010000000  0.5321180000000 1.0
C      1  0.4863220000000  0.4757370000000  0.4058520000000 1.0
C      1  0.5242750000000  0.4491400000000  0.4221380000000 1.0
C      1  0.4320560000000  0.5527740000000  0.4451270000000 1.0
C      1  0.4568610000000  0.4841140000000  0.4483910000000 1.0
C      1  0.5112910000000  0.4510740000000  0.5138250000000 1.0
C      1  0.4976920000000  0.5061810000000  0.5107790000000 1.0
C      1  0.5582690000000  0.4435360000000  0.5117840000000 1.0
C      1  0.4316090000000  0.4984490000000  0.4505900000000 1.0
C      1  0.5186740000000  0.4398600000000  0.4709440000000 1.0
C      1  0.4916270000000  0.4538740000000  0.4700190000000 1.0
C      1  0.5342140000000  0.4531610000000  0.4494670000000 1.0
C      1  0.5414550000000  0.4828910000000  0.4481270000000 1.0
C      1  0.4959500000000  0.4543840000000  0.5380180000000 1.0
C      1  0.5311490000000  0.4430070000000  0.5718200000000 1.0
C      1  0.5042360000000  0.4484320000000  0.5651880000000 1.0
C      1  0.4406190000000  0.5604530000000  0.4894880000000 1.0
C      1  0.4760430000000  0.4751180000000  0.5376390000000 1.0
C      1  0.4833250000000  0.5416540000000  0.4568440000000 1.0
C      1  0.5093720000000  0.5395090000000  0.5521230000000 1.0
C      1  0.5197850000000  0.5219340000000  0.4296090000000 1.0
C      1  0.3858520000000  0.4712710000000  0.4412860000000 1.0
C      1  0.4841800000000  0.5087870000000  0.5823610000000 1.0
C      1  0.4707740000000  0.4859060000000  0.6233050000000 1.0
C      1  0.5234470000000  0.5593970000000  0.4672770000000 1.0
C      1  0.5248620000000  0.4738260000000  0.4998170000000 1.0
C      1  0.4651600000000  0.4781900000000  0.4220210000000 1.0
C      1  0.4898190000000  0.5192730000000  0.5569090000000 1.0
C      1  0.5592030000000  0.4983380000000  0.4644680000000 1.0
C      1  0.5602730000000  0.5078480000000  0.5748260000000 1.0
C      1  0.5610540000000  0.4815830000000  0.5826400000000 1.0
C      1  0.4766030000000  0.4786530000000  0.4698040000000 1.0
C      1  0.4811530000000  0.4851370000000  0.5974590000000 1.0
C      1  0.4714480000000  0.5254010000000  0.4768720000000 1.0
C      1  0.5265790000000  0.4951170000000  0.4264260000000 1.0
C      1  0.5743850000000  0.4811120000000  0.4805620000000 1.0
C      1  0.5025790000000  0.5805810000000  0.4682160000000 1.0
C      1  0.4832830000000  0.5019420000000  0.4862140000000 1.0
C      1  0.4477390000000  0.5717700000000  0.4628160000000 1.0
C      1  0.4332970000000  0.5732530000000  0.5127220000000 1.0
C      1  0.4442540000000  0.5321680000000  0.4835330000000 1.0
END
