TITL C-2323477-5056-179 4.17853345586355e-06 125000 -347.431623779398 0 0 60 (C3) n - 1
REM
REM in /home/bkarasulu/CARBON/AIRSS/Generating-Clusters/LCBOP/Higher-Symm/Only-C60/SD-CG/FIRE-HFTN
REM
REM
REM
REM
REM
REM ./C.cell (50c204cfd26239f34c78669fe23a5462)
REM
REM compiler GCC version 9.2.1 20190827 (Red Hat 9.2.1-1)
REM options -cpp -mtune=generic -march=x86-64 -g -O0 -fpre-include=/usr/include/finclude/math-vector-fortran.h
REM seed -1452794284 -1664576686 -319369568 154057016 517480006 1026410796 -1835835864 -379241872 -12903590 -1960695373 875571940 -470692409 1419013038 -478988679 243906197 1828060369 -1222999901 596038774 755221771 2118170079 -1602636544 -686753647 1795759613 -1621715972 1701974835 222368343 1510677381 445366793 1486536964 723752018 -678397858 -2124653780 -223118349
REM
CELL 1.54180   50.00000   50.00000   50.00000   90.00000   90.00000   90.00000
LATT -1
SFAC C  
C      1  0.5430840000000  0.5228950000000  0.4355190000000 1.0
C      1  0.4226160000000  0.5228970000000  0.4949290000000 1.0
C      1  0.5343010000000  0.5228960000000  0.5695520000000 1.0
C      1  0.4373920000000  0.5607530000000  0.5224200000000 1.0
C      1  0.5507220000000  0.5607520000000  0.5430100000000 1.0
C      1  0.5118880000000  0.5607520000000  0.4345690000000 1.0
C      1  0.5557060000000  0.5335320000000  0.5509860000000 1.0
C      1  0.5163030000000  0.5335320000000  0.4262640000000 1.0
C      1  0.4279920000000  0.5335330000000  0.5227490000000 1.0
C      1  0.4869360000000  0.5003930000000  0.5223990000000 1.0
C      1  0.5259300000000  0.5003920000000  0.5001140000000 1.0
C      1  0.4871340000000  0.5003920000000  0.4774870000000 1.0
C      1  0.4320760000000  0.4717660000000  0.4941870000000 1.0
C      1  0.5289280000000  0.4717650000000  0.5617300000000 1.0
C      1  0.5389960000000  0.4717640000000  0.4440830000000 1.0
C      1  0.4389270000000  0.5206220000000  0.5464220000000 1.0
C      1  0.5707400000000  0.5206200000000  0.5296800000000 1.0
C      1  0.4903350000000  0.5206210000000  0.4238980000000 1.0
C      1  0.4461440000000  0.5004230000000  0.4516620000000 1.0
C      1  0.4850670000000  0.5004240000000  0.5708100000000 1.0
C      1  0.5687900000000  0.5004220000000  0.4775280000000 1.0
C      1  0.4441050000000  0.4758500000000  0.5459400000000 1.0
C      1  0.5677320000000  0.4758490000000  0.5254360000000 1.0
C      1  0.4881620000000  0.4758490000000  0.4286240000000 1.0
C      1  0.5092980000000  0.4376230000000  0.4742990000000 1.0
C      1  0.4730920000000  0.4376240000000  0.5047980000000 1.0
C      1  0.5176080000000  0.4376230000000  0.5209040000000 1.0
C      1  0.5289200000000  0.5633520000000  0.5268690000000 1.0
C      1  0.5088110000000  0.5633520000000  0.4615200000000 1.0
C      1  0.4622710000000  0.5633530000000  0.5116090000000 1.0
C      1  0.5037030000000  0.5234910000000  0.5724280000000 1.0
C      1  0.5608730000000  0.5234900000000  0.4605790000000 1.0
C      1  0.4354250000000  0.5234910000000  0.4669930000000 1.0
C      1  0.4753900000000  0.4739620000000  0.4735880000000 1.0
C      1  0.4894310000000  0.4739620000000  0.5345180000000 1.0
C      1  0.5351780000000  0.4739610000000  0.4918940000000 1.0
C      1  0.5160770000000  0.4187090000000  0.4560240000000 1.0
C      1  0.4538760000000  0.4187100000000  0.5080650000000 1.0
C      1  0.5300450000000  0.4187100000000  0.5359120000000 1.0
C      1  0.5494100000000  0.5445020000000  0.4765810000000 1.0
C      1  0.4550140000000  0.5445030000000  0.4689200000000 1.0
C      1  0.4955770000000  0.5445030000000  0.5544990000000 1.0
C      1  0.4907370000000  0.4473730000000  0.5249940000000 1.0
C      1  0.5262760000000  0.4473730000000  0.4955250000000 1.0
C      1  0.4829850000000  0.4473730000000  0.4794820000000 1.0
C      1  0.5125910000000  0.5143250000000  0.4774760000000 1.0
C      1  0.4741990000000  0.5143260000000  0.5003580000000 1.0
C      1  0.5132110000000  0.5143250000000  0.5221660000000 1.0
C      1  0.5729610000000  0.4999760000000  0.5091020000000 1.0
C      1  0.4714020000000  0.4999770000000  0.4322630000000 1.0
C      1  0.4556370000000  0.4999780000000  0.5586350000000 1.0
C      1  0.5208560000000  0.5426340000000  0.4765990000000 1.0
C      1  0.4693060000000  0.5426350000000  0.4936390000000 1.0
C      1  0.5098390000000  0.5426340000000  0.5297620000000 1.0
C      1  0.4467930000000  0.4774980000000  0.4704270000000 1.0
C      1  0.5009920000000  0.4774980000000  0.5608650000000 1.0
C      1  0.5522140000000  0.4774970000000  0.4687080000000 1.0
C      1  0.5517880000000  0.4703210000000  0.5470040000000 1.0
C      1  0.5148120000000  0.4703210000000  0.4316480000000 1.0
C      1  0.4333990000000  0.4703230000000  0.5213480000000 1.0
END
