TITL C-2323480-5884-47 -0.0721011663705606 125000 -360.549017589106 0 0 60 (C2) n - 1
REM
REM in /home/bkarasulu/CARBON/AIRSS/Generating-Clusters/LCBOP/Higher-Symm/Only-C60/SD-CG/FIRE-HFTN
REM
REM
REM
REM
REM
REM ./C.cell (50c204cfd26239f34c78669fe23a5462)
REM
REM compiler GCC version 9.2.1 20190827 (Red Hat 9.2.1-1)
REM options -cpp -mtune=generic -march=x86-64 -g -O0 -fpre-include=/usr/include/finclude/math-vector-fortran.h
REM seed -2049903138 526335447 -450483830 2083185180 92500257 -803051490 896880320 2018900098 -1133489929 -1648444750 1811682768 1420042535 1652411273 305285242 1679437445 1794687783 -417799257 552982540 266876040 -2007693877 1128020641 -185662505 724633210 -2068857858 128318959 1914845117 -2040883492 353135349 -1675475947 -1905221512 -716220219 1253654615 -340110724
REM
CELL 1.54180   50.00000   50.00000   50.00000   90.00000   90.00000   90.00000
LATT -1
SFAC C  
C      1  0.5816690000000  0.5403820000000  0.5547050000000 1.0
C      1  0.4186490000000  0.4598080000000  0.5553160000000 1.0
C      1  0.5432620000000  0.5445520000000  0.5277100000000 1.0
C      1  0.4568990000000  0.4555440000000  0.5281130000000 1.0
C      1  0.4116910000000  0.5504340000000  0.5022930000000 1.0
C      1  0.5883210000000  0.4495740000000  0.5019570000000 1.0
C      1  0.5838970000000  0.4944450000000  0.5601450000000 1.0
C      1  0.4164520000000  0.5057640000000  0.5606090000000 1.0
C      1  0.5123260000000  0.5079020000000  0.5292110000000 1.0
C      1  0.4878430000000  0.4922000000000  0.5293090000000 1.0
C      1  0.5527980000000  0.4816320000000  0.4839060000000 1.0
C      1  0.4471100000000  0.5183130000000  0.4841480000000 1.0
C      1  0.6000320000000  0.4035420000000  0.4835150000000 1.0
C      1  0.3998730000000  0.5964010000000  0.4837590000000 1.0
C      1  0.6244740000000  0.4542210000000  0.5303310000000 1.0
C      1  0.3757030000000  0.5458850000000  0.5308910000000 1.0
C      1  0.5287450000000  0.5611100000000  0.5099000000000 1.0
C      1  0.4713130000000  0.4389250000000  0.5102780000000 1.0
C      1  0.4106560000000  0.5084380000000  0.5326830000000 1.0
C      1  0.5895310000000  0.4916740000000  0.5321950000000 1.0
C      1  0.5697560000000  0.2789680000000  0.3902050000000 1.0
C      1  0.4296080000000  0.7206510000000  0.3898450000000 1.0
C      1  0.5250700000000  0.4854610000000  0.4868790000000 1.0
C      1  0.4748550000000  0.5144940000000  0.4869740000000 1.0
C      1  0.4285550000000  0.4616210000000  0.5282460000000 1.0
C      1  0.5716060000000  0.5384760000000  0.5276990000000 1.0
C      1  0.4204790000000  0.4868120000000  0.5153200000000 1.0
C      1  0.5796080000000  0.5132400000000  0.5148140000000 1.0
C      1  0.3998020000000  0.5322520000000  0.5225210000000 1.0
C      1  0.6003270000000  0.4678250000000  0.5220530000000 1.0
C      1  0.3731890000000  0.5701790000000  0.5179530000000 1.0
C      1  0.6269130000000  0.4298820000000  0.5174620000000 1.0
C      1  0.5711260000000  0.5180290000000  0.5698970000000 1.0
C      1  0.4292800000000  0.4822140000000  0.5703680000000 1.0
C      1  0.5950210000000  0.3827060000000  0.4679490000000 1.0
C      1  0.4047940000000  0.6171840000000  0.4680930000000 1.0
C      1  0.4998580000000  0.5294650000000  0.4875170000000 1.0
C      1  0.5000700000000  0.4704920000000  0.4876180000000 1.0
C      1  0.4912910000000  0.4441280000000  0.4924590000000 1.0
C      1  0.5086640000000  0.5558460000000  0.4922160000000 1.0
C      1  0.5899530000000  0.3618910000000  0.4523510000000 1.0
C      1  0.4097720000000  0.6379440000000  0.4523940000000 1.0
C      1  0.4338490000000  0.5428300000000  0.4870800000000 1.0
C      1  0.5660760000000  0.4571250000000  0.4868470000000 1.0
C      1  0.4147510000000  0.6587030000000  0.4366940000000 1.0
C      1  0.5848840000000  0.3410780000000  0.4367520000000 1.0
C      1  0.4197300000000  0.6794630000000  0.4209940000000 1.0
C      1  0.5798140000000  0.3202640000000  0.4211530000000 1.0
C      1  0.5689920000000  0.5044930000000  0.4900660000000 1.0
C      1  0.4309520000000  0.4954740000000  0.4904810000000 1.0
C      1  0.6047160000000  0.4255540000000  0.4994780000000 1.0
C      1  0.3952820000000  0.5744450000000  0.4998260000000 1.0
C      1  0.5747430000000  0.2994450000000  0.4055510000000 1.0
C      1  0.4247100000000  0.7002280000000  0.4052900000000 1.0
C      1  0.4811670000000  0.4893580000000  0.5002890000000 1.0
C      1  0.5188340000000  0.5106430000000  0.5001440000000 1.0
C      1  0.4580440000000  0.4821590000000  0.5691270000000 1.0
C      1  0.5423540000000  0.5180800000000  0.5688210000000 1.0
C      1  0.5286260000000  0.5251010000000  0.5446750000000 1.0
C      1  0.4716330000000  0.4750540000000  0.5449260000000 1.0
END
