TITL C-2323486-8761-53 2.18487672247492e-05 125000 -371.744407516551 0 0 60 (C1) n - 1
REM
REM in /home/bkarasulu/CARBON/AIRSS/Generating-Clusters/LCBOP/Higher-Symm/Only-C60/SD-CG/FIRE-HFTN
REM
REM
REM
REM
REM
REM ./C.cell (50c204cfd26239f34c78669fe23a5462)
REM
REM compiler GCC version 9.2.1 20190827 (Red Hat 9.2.1-1)
REM options -cpp -mtune=generic -march=x86-64 -g -O0 -fpre-include=/usr/include/finclude/math-vector-fortran.h
REM seed 1396697201 21280495 1162595458 -1944426449 -114098772 -112266987 -1079192129 -1806093225 -1628288645 -1162500273 -1706047803 1797573527 -791118836 1946733471 1214796728 -296561610 -1284000606 633151425 265314430 -616968633 -759508459 1860098172 646856284 1916926481 214795232 -2063721878 147253411 -870725803 406836720 -1811351520 -1085019362 36870606 1509380560
REM
CELL 1.54180   50.00000   50.00000   50.00000   90.00000   90.00000   90.00000
LATT -1
SFAC C  
C      1  0.4312420000000  0.5252780000000  0.5488060000000 1.0
C      1  0.4404620000000  0.4442570000000  0.4996000000000 1.0
C      1  0.4325580000000  0.5309250000000  0.4516410000000 1.0
C      1  0.4947990000000  0.4690940000000  0.5898750000000 1.0
C      1  0.4899000000000  0.4348730000000  0.4373580000000 1.0
C      1  0.4988690000000  0.5959460000000  0.4812310000000 1.0
C      1  0.5375080000000  0.5592180000000  0.4675960000000 1.0
C      1  0.5300280000000  0.4974920000000  0.5613390000000 1.0
C      1  0.5313570000000  0.4447860000000  0.4705380000000 1.0
C      1  0.5084260000000  0.5339900000000  0.4408420000000 1.0
C      1  0.5031540000000  0.5341190000000  0.5492830000000 1.0
C      1  0.5136120000000  0.4233370000000  0.5068150000000 1.0
C      1  0.4297460000000  0.4706920000000  0.4974590000000 1.0
C      1  0.4232290000000  0.5163340000000  0.4747070000000 1.0
C      1  0.4250820000000  0.5122920000000  0.5242450000000 1.0
C      1  0.4315270000000  0.4881140000000  0.4742790000000 1.0
C      1  0.4248750000000  0.5292910000000  0.5006060000000 1.0
C      1  0.4380190000000  0.4873860000000  0.5194090000000 1.0
C      1  0.5516470000000  0.4471250000000  0.4900880000000 1.0
C      1  0.5514440000000  0.5354400000000  0.4605490000000 1.0
C      1  0.5466240000000  0.5154550000000  0.5474780000000 1.0
C      1  0.4612000000000  0.4297480000000  0.5095190000000 1.0
C      1  0.4566120000000  0.5329680000000  0.4387850000000 1.0
C      1  0.4544560000000  0.5380070000000  0.5549370000000 1.0
C      1  0.4963650000000  0.5827190000000  0.4575190000000 1.0
C      1  0.4888790000000  0.4954330000000  0.5853430000000 1.0
C      1  0.4952970000000  0.4165710000000  0.4568460000000 1.0
C      1  0.5300520000000  0.5387470000000  0.5382530000000 1.0
C      1  0.5400060000000  0.4367470000000  0.5158280000000 1.0
C      1  0.5326220000000  0.5179070000000  0.4450080000000 1.0
C      1  0.5498310000000  0.4574400000000  0.5358350000000 1.0
C      1  0.5384770000000  0.4910810000000  0.4545090000000 1.0
C      1  0.5436190000000  0.5477860000000  0.5143480000000 1.0
C      1  0.4988930000000  0.4831310000000  0.4821250000000 1.0
C      1  0.4828560000000  0.5261680000000  0.4915030000000 1.0
C      1  0.5072020000000  0.4702640000000  0.5302810000000 1.0
C      1  0.5142860000000  0.4554340000000  0.5760700000000 1.0
C      1  0.5008870000000  0.4599010000000  0.4375000000000 1.0
C      1  0.5176490000000  0.5887650000000  0.4996570000000 1.0
C      1  0.5636170000000  0.5272480000000  0.5067590000000 1.0
C      1  0.5656200000000  0.4785980000000  0.5214060000000 1.0
C      1  0.5612100000000  0.4917630000000  0.4735560000000 1.0
C      1  0.4827060000000  0.5227740000000  0.4449690000000 1.0
C      1  0.4777100000000  0.5415430000000  0.5386380000000 1.0
C      1  0.4867060000000  0.4233460000000  0.5164690000000 1.0
C      1  0.5657950000000  0.5197240000000  0.4796160000000 1.0
C      1  0.5647550000000  0.5065170000000  0.5273570000000 1.0
C      1  0.5653760000000  0.4717550000000  0.4931630000000 1.0
C      1  0.5354110000000  0.5670430000000  0.4953080000000 1.0
C      1  0.5272580000000  0.4682830000000  0.5523620000000 1.0
C      1  0.5176750000000  0.4701960000000  0.4606330000000 1.0
C      1  0.4711920000000  0.5433310000000  0.5104310000000 1.0
C      1  0.4911540000000  0.4795010000000  0.5100670000000 1.0
C      1  0.4813170000000  0.5045850000000  0.4693300000000 1.0
C      1  0.5131590000000  0.5609820000000  0.4510650000000 1.0
C      1  0.5047790000000  0.5110800000000  0.5679970000000 1.0
C      1  0.5137750000000  0.4227530000000  0.4771730000000 1.0
C      1  0.4571680000000  0.4872030000000  0.4621210000000 1.0
C      1  0.4442340000000  0.5503630000000  0.5032800000000 1.0
C      1  0.4660880000000  0.4871490000000  0.5206880000000 1.0
END
