TITL C-2323479-8056-478 -1.21796338807052e-07 125000 -339.385250510531 0 0 60 (C1) n - 1
REM
REM in /home/bkarasulu/CARBON/AIRSS/Generating-Clusters/LCBOP/Higher-Symm/Only-C60/SD-CG/FIRE-HFTN
REM
REM
REM
REM
REM
REM ./C.cell (50c204cfd26239f34c78669fe23a5462)
REM
REM compiler GCC version 9.2.1 20190827 (Red Hat 9.2.1-1)
REM options -cpp -mtune=generic -march=x86-64 -g -O0 -fpre-include=/usr/include/finclude/math-vector-fortran.h
REM seed 537806225 759107170 1555886222 -911040972 -2080956771 2010484760 1440777782 -406060786 1894333021 957224161 1791821578 966600627 784737016 -1795355987 -1987216566 -137647984 -375247302 -2141470021 -1012471472 370307065 -313071995 9596034 1841140776 978570367 1888620086 -588539414 -1819958410 -356464378 -1087270574 -1054994073 -1801941001 1598356562 953734206
REM
CELL 1.54180   50.00000   50.00000   50.00000   90.00000   90.00000   90.00000
LATT -1
SFAC C  
C      1  0.5828870000000  0.4879770000000  0.5189760000000 1.0
C      1  0.4495180000000  0.4322230000000  0.5145000000000 1.0
C      1  0.4691870000000  0.5758920000000  0.5148810000000 1.0
C      1  0.4739940000000  0.4159550000000  0.5223440000000 1.0
C      1  0.4431340000000  0.5641650000000  0.5262040000000 1.0
C      1  0.5854990000000  0.5170360000000  0.5290450000000 1.0
C      1  0.5116770000000  0.4497150000000  0.4438300000000 1.0
C      1  0.4372790000000  0.5161440000000  0.4484310000000 1.0
C      1  0.5484060000000  0.5436410000000  0.4479570000000 1.0
C      1  0.5460450000000  0.4853510000000  0.4488830000000 1.0
C      1  0.4597580000000  0.4722010000000  0.4477510000000 1.0
C      1  0.4942100000000  0.5369350000000  0.4479810000000 1.0
C      1  0.4203630000000  0.4800040000000  0.5115510000000 1.0
C      1  0.5238130000000  0.5754560000000  0.5074240000000 1.0
C      1  0.5552350000000  0.4416380000000  0.5098110000000 1.0
C      1  0.5696940000000  0.5385040000000  0.5129480000000 1.0
C      1  0.5007810000000  0.4234850000000  0.5083520000000 1.0
C      1  0.4323010000000  0.5387540000000  0.5121800000000 1.0
C      1  0.5642540000000  0.5226220000000  0.4886870000000 1.0
C      1  0.4905830000000  0.4402570000000  0.4859570000000 1.0
C      1  0.4485910000000  0.5401640000000  0.4875040000000 1.0
C      1  0.4763040000000  0.4885810000000  0.5671000000000 1.0
C      1  0.5013830000000  0.5288030000000  0.5656070000000 1.0
C      1  0.5235900000000  0.4867600000000  0.5661760000000 1.0
C      1  0.5147090000000  0.5282260000000  0.5087850000000 1.0
C      1  0.5157850000000  0.4771070000000  0.5101190000000 1.0
C      1  0.4661390000000  0.4968220000000  0.5114220000000 1.0
C      1  0.4977860000000  0.5836720000000  0.5214880000000 1.0
C      1  0.5746710000000  0.4593730000000  0.5255440000000 1.0
C      1  0.4278260000000  0.4522640000000  0.5243310000000 1.0
C      1  0.5583410000000  0.4753190000000  0.4729390000000 1.0
C      1  0.4472780000000  0.4629400000000  0.4722150000000 1.0
C      1  0.4936650000000  0.5570010000000  0.4696370000000 1.0
C      1  0.4767380000000  0.4901270000000  0.4355710000000 1.0
C      1  0.4984600000000  0.5095450000000  0.4371500000000 1.0
C      1  0.5252860000000  0.4980860000000  0.4362040000000 1.0
C      1  0.4992990000000  0.4734120000000  0.5579470000000 1.0
C      1  0.4768600000000  0.5157780000000  0.5573500000000 1.0
C      1  0.5249280000000  0.5143930000000  0.5572070000000 1.0
C      1  0.4975630000000  0.4676050000000  0.5299430000000 1.0
C      1  0.4724620000000  0.5178970000000  0.5292530000000 1.0
C      1  0.5306170000000  0.5161900000000  0.5293880000000 1.0
C      1  0.4229490000000  0.4741390000000  0.4826480000000 1.0
C      1  0.5164350000000  0.5725170000000  0.4789340000000 1.0
C      1  0.5587260000000  0.4481250000000  0.4815610000000 1.0
C      1  0.5198660000000  0.5174260000000  0.4819380000000 1.0
C      1  0.5036890000000  0.4875750000000  0.4814770000000 1.0
C      1  0.4718650000000  0.5008120000000  0.4836550000000 1.0
C      1  0.4724330000000  0.4706960000000  0.5170210000000 1.0
C      1  0.4884750000000  0.5351860000000  0.5133460000000 1.0
C      1  0.5380970000000  0.4920220000000  0.5159080000000 1.0
C      1  0.5436230000000  0.5289140000000  0.4702940000000 1.0
C      1  0.5031110000000  0.4590500000000  0.4679640000000 1.0
C      1  0.4526760000000  0.5176950000000  0.4708950000000 1.0
C      1  0.5620870000000  0.4935520000000  0.4967500000000 1.0
C      1  0.4636510000000  0.4508620000000  0.4948420000000 1.0
C      1  0.4747660000000  0.5537490000000  0.4935730000000 1.0
C      1  0.5294530000000  0.4274980000000  0.5150820000000 1.0
C      1  0.4211900000000  0.5103910000000  0.5177760000000 1.0
C      1  0.5500120000000  0.5617710000000  0.5157630000000 1.0
END
