TITL C-2323491-8878-618 3.37139818487261e-05 125000 -366.774687298408 0 0 60 (C1) n - 1
REM
REM in /home/bkarasulu/CARBON/AIRSS/Generating-Clusters/LCBOP/Higher-Symm/Only-C60/SD-CG/FIRE-HFTN
REM
REM
REM
REM
REM
REM ./C.cell (50c204cfd26239f34c78669fe23a5462)
REM
REM compiler GCC version 9.2.1 20190827 (Red Hat 9.2.1-1)
REM options -cpp -mtune=generic -march=x86-64 -g -O0 -fpre-include=/usr/include/finclude/math-vector-fortran.h
REM seed 283378200 -857891830 -1281285152 -1957629902 -462081464 1579376717 -850792006 500844224 -756696132 -2115875961 -934882999 994888136 227355920 -1640442956 2084521807 -22108434 947230781 167071079 -237019204 -530766856 1253607914 1609867142 -1551796784 462375512 -1498211852 750775304 102123016 1477516817 584164044 1268850622 -577593358 634159578 1647323540
REM
CELL 1.54180   50.00000   50.00000   50.00000   90.00000   90.00000   90.00000
LATT -1
SFAC C  
C      1  0.5981330000000  0.4673560000000  0.5220440000000 1.0
C      1  0.4470700000000  0.4577660000000  0.5644240000000 1.0
C      1  0.3980960000000  0.4679200000000  0.4294920000000 1.0
C      1  0.6088530000000  0.4440060000000  0.5147100000000 1.0
C      1  0.4552520000000  0.4328780000000  0.5694450000000 1.0
C      1  0.4054880000000  0.4422680000000  0.4312430000000 1.0
C      1  0.4436520000000  0.5459210000000  0.5375430000000 1.0
C      1  0.5018060000000  0.5250680000000  0.4399490000000 1.0
C      1  0.5505120000000  0.5455280000000  0.5227940000000 1.0
C      1  0.4597500000000  0.4555240000000  0.4687920000000 1.0
C      1  0.5604430000000  0.4358810000000  0.4740060000000 1.0
C      1  0.5140150000000  0.4416920000000  0.5367430000000 1.0
C      1  0.5008630000000  0.4230810000000  0.5531240000000 1.0
C      1  0.4468030000000  0.4332700000000  0.4576070000000 1.0
C      1  0.5845640000000  0.4219720000000  0.4781550000000 1.0
C      1  0.5622760000000  0.4998450000000  0.5328070000000 1.0
C      1  0.4402010000000  0.4978950000000  0.5366990000000 1.0
C      1  0.5050960000000  0.4789440000000  0.4542020000000 1.0
C      1  0.5243600000000  0.4332390000000  0.5122550000000 1.0
C      1  0.4861490000000  0.4621480000000  0.4622950000000 1.0
C      1  0.5384370000000  0.4295540000000  0.4900890000000 1.0
C      1  0.5535670000000  0.5352390000000  0.4573330000000 1.0
C      1  0.5059840000000  0.5425580000000  0.5568920000000 1.0
C      1  0.4539780000000  0.5438580000000  0.4807490000000 1.0
C      1  0.5804650000000  0.4983680000000  0.4885500000000 1.0
C      1  0.4783240000000  0.4956320000000  0.5656000000000 1.0
C      1  0.4240540000000  0.5080650000000  0.4507720000000 1.0
C      1  0.5190290000000  0.5185380000000  0.5485850000000 1.0
C      1  0.4410130000000  0.5226820000000  0.4945450000000 1.0
C      1  0.5446590000000  0.5081960000000  0.4558790000000 1.0
C      1  0.4589120000000  0.5434960000000  0.4527720000000 1.0
C      1  0.5696830000000  0.5446200000000  0.4787120000000 1.0
C      1  0.4802560000000  0.5440410000000  0.5684380000000 1.0
C      1  0.4252230000000  0.4281520000000  0.4425940000000 1.0
C      1  0.6042940000000  0.4252600000000  0.4960860000000 1.0
C      1  0.4775650000000  0.4187020000000  0.5654180000000 1.0
C      1  0.5110090000000  0.5913370000000  0.4565690000000 1.0
C      1  0.5288810000000  0.5959410000000  0.4757950000000 1.0
C      1  0.4504780000000  0.6105890000000  0.5706060000000 1.0
C      1  0.5441420000000  0.5211370000000  0.5356580000000 1.0
C      1  0.4396550000000  0.5222870000000  0.5227130000000 1.0
C      1  0.5175380000000  0.5034490000000  0.4488610000000 1.0
C      1  0.5611810000000  0.4614470000000  0.4624650000000 1.0
C      1  0.5136710000000  0.4688430000000  0.5440210000000 1.0
C      1  0.4437990000000  0.4753060000000  0.4809280000000 1.0
C      1  0.4852350000000  0.5475480000000  0.4433340000000 1.0
C      1  0.5571480000000  0.5597010000000  0.4993890000000 1.0
C      1  0.4593470000000  0.5592900000000  0.5567610000000 1.0
C      1  0.4053700000000  0.4924200000000  0.4371870000000 1.0
C      1  0.5804580000000  0.4878170000000  0.5150600000000 1.0
C      1  0.4548950000000  0.4829440000000  0.5553750000000 1.0
C      1  0.5623640000000  0.4888290000000  0.4680020000000 1.0
C      1  0.5043740000000  0.4937790000000  0.5529060000000 1.0
C      1  0.4331620000000  0.5010130000000  0.4773570000000 1.0
C      1  0.5892050000000  0.5253150000000  0.4857230000000 1.0
C      1  0.4735960000000  0.5193180000000  0.5806970000000 1.0
C      1  0.4389500000000  0.5290550000000  0.4387450000000 1.0
C      1  0.5458490000000  0.5844230000000  0.4928540000000 1.0
C      1  0.4546630000000  0.5857560000000  0.5638990000000 1.0
C      1  0.4962060000000  0.5732930000000  0.4437490000000 1.0
END
