TITL C-2323484-8600-526 -0.00908516769550746 125000 -351.922599443757 0 0 60 (C1) n - 1
REM
REM in /home/bkarasulu/CARBON/AIRSS/Generating-Clusters/LCBOP/Higher-Symm/Only-C60/SD-CG/FIRE-HFTN
REM
REM
REM
REM
REM
REM ./C.cell (50c204cfd26239f34c78669fe23a5462)
REM
REM compiler GCC version 9.2.1 20190827 (Red Hat 9.2.1-1)
REM options -cpp -mtune=generic -march=x86-64 -g -O0 -fpre-include=/usr/include/finclude/math-vector-fortran.h
REM seed -1410358063 1118991461 1761941486 -1483886522 974196888 1608592914 -1961465334 1534218860 2133681207 584089929 559979767 -204792188 -67870675 689675067 -1914617691 651237640 984844175 -1694957737 -897652680 -851350685 468423173 -219014404 1948045455 -1312265234 -1405242445 -1977927066 -572463728 -1722315335 33749924 410772763 -62555240 200023434 -670435230
REM
CELL 1.54180   50.00000   50.00000   50.00000   90.00000   90.00000   90.00000
LATT -1
SFAC C  
C      1  0.4223280000000  0.4832130000000  0.5114500000000 1.0
C      1  0.5042950000000  0.4207630000000  0.4652330000000 1.0
C      1  0.4908880000000  0.5099290000000  0.4348540000000 1.0
C      1  0.5696850000000  0.4854800000000  0.4828090000000 1.0
C      1  0.4297480000000  0.5195150000000  0.4797400000000 1.0
C      1  0.5649950000000  0.5158740000000  0.5156310000000 1.0
C      1  0.4792380000000  0.4311600000000  0.5120150000000 1.0
C      1  0.5214580000000  0.5781990000000  0.5202550000000 1.0
C      1  0.4826840000000  0.5757180000000  0.4864610000000 1.0
C      1  0.5180010000000  0.5160610000000  0.5732650000000 1.0
C      1  0.4816170000000  0.4823730000000  0.5754370000000 1.0
C      1  0.5255080000000  0.4817700000000  0.4302100000000 1.0
C      1  0.4247400000000  0.5136260000000  0.5156950000000 1.0
C      1  0.5030920000000  0.5749950000000  0.4654720000000 1.0
C      1  0.4958090000000  0.4801070000000  0.4313070000000 1.0
C      1  0.5705170000000  0.5152200000000  0.4844470000000 1.0
C      1  0.4299320000000  0.4838670000000  0.4832410000000 1.0
C      1  0.5623510000000  0.4822330000000  0.5174860000000 1.0
C      1  0.4928660000000  0.5746610000000  0.5156450000000 1.0
C      1  0.5078990000000  0.4285130000000  0.5203420000000 1.0
C      1  0.4784170000000  0.4283970000000  0.4810490000000 1.0
C      1  0.5206080000000  0.4879520000000  0.5734940000000 1.0
C      1  0.4831450000000  0.5157900000000  0.5713240000000 1.0
C      1  0.5251130000000  0.5177240000000  0.4327680000000 1.0
C      1  0.4792300000000  0.4602640000000  0.5558020000000 1.0
C      1  0.5639640000000  0.4713110000000  0.4593080000000 1.0
C      1  0.4610710000000  0.5558820000000  0.4831970000000 1.0
C      1  0.5411680000000  0.4611500000000  0.4445260000000 1.0
C      1  0.4736290000000  0.5209360000000  0.4549690000000 1.0
C      1  0.5299840000000  0.5318120000000  0.5520810000000 1.0
C      1  0.4424480000000  0.4691240000000  0.5275290000000 1.0
C      1  0.5514710000000  0.5365720000000  0.5312270000000 1.0
C      1  0.4485250000000  0.5361820000000  0.4641980000000 1.0
C      1  0.5387480000000  0.5565060000000  0.5124680000000 1.0
C      1  0.4613300000000  0.4465910000000  0.5339190000000 1.0
C      1  0.5273500000000  0.4398890000000  0.4613630000000 1.0
C      1  0.4653970000000  0.5331310000000  0.5512170000000 1.0
C      1  0.5636260000000  0.5292080000000  0.4607000000000 1.0
C      1  0.4653980000000  0.4500000000000  0.4650910000000 1.0
C      1  0.5392990000000  0.5372230000000  0.4469550000000 1.0
C      1  0.4878060000000  0.4635760000000  0.4522570000000 1.0
C      1  0.5263700000000  0.4727430000000  0.5503730000000 1.0
C      1  0.4456460000000  0.5170610000000  0.5361920000000 1.0
C      1  0.5439110000000  0.4646500000000  0.5289860000000 1.0
C      1  0.4546110000000  0.4725460000000  0.4796130000000 1.0
C      1  0.5291590000000  0.4462480000000  0.5114640000000 1.0
C      1  0.4824220000000  0.5476930000000  0.5291950000000 1.0
C      1  0.5243360000000  0.5559250000000  0.4636970000000 1.0
C      1  0.5277530000000  0.5432620000000  0.4891920000000 1.0
C      1  0.5075370000000  0.5324850000000  0.5343970000000 1.0
C      1  0.5131360000000  0.5191460000000  0.4914580000000 1.0
C      1  0.4602630000000  0.4921600000000  0.5329130000000 1.0
C      1  0.4709700000000  0.5356200000000  0.5027140000000 1.0
C      1  0.5235950000000  0.4559820000000  0.4856630000000 1.0
C      1  0.4879930000000  0.4889670000000  0.5203870000000 1.0
C      1  0.4847520000000  0.5154570000000  0.4824620000000 1.0
C      1  0.5020710000000  0.4721970000000  0.4772160000000 1.0
C      1  0.5005650000000  0.4688590000000  0.5382640000000 1.0
C      1  0.5094190000000  0.5098820000000  0.5180160000000 1.0
C      1  0.4801120000000  0.4866220000000  0.4913610000000 1.0
END
