TITL C-2323487-9546-602 3.04200231341858e-06 125000 -368.735888603916 0 0 60 (C2v) n - 1
REM
REM in /home/bkarasulu/CARBON/AIRSS/Generating-Clusters/LCBOP/Higher-Symm/Only-C60/SD-CG/FIRE-HFTN
REM
REM
REM
REM
REM
REM ./C.cell (50c204cfd26239f34c78669fe23a5462)
REM
REM compiler GCC version 9.2.1 20190827 (Red Hat 9.2.1-1)
REM options -cpp -mtune=generic -march=x86-64 -g -O0 -fpre-include=/usr/include/finclude/math-vector-fortran.h
REM seed -1958879779 -1100417777 429425816 -1527459259 -104671600 -1331812292 1864746777 515115561 1209565263 650795269 -598311513 1437553107 -524654328 -1614977967 1507058338 2120586162 1122289147 -798731229 1431007477 112598580 1090130137 -1181474643 109640268 -1847854720 -137323288 -1299744469 -934556056 -948153713 669657733 550421180 1805970979 -966224181 908470304
REM
CELL 1.54180   50.00000   50.00000   50.00000   90.00000   90.00000   90.00000
LATT -1
SFAC C  
C      1  0.4861620000000  0.5052020000000  0.4667310000000 1.0
C      1  0.5330170000000  0.5059340000000  0.4864650000000 1.0
C      1  0.5138410000000  0.5051810000000  0.5332710000000 1.0
C      1  0.4669860000000  0.5059450000000  0.5135370000000 1.0
C      1  0.4864650000000  0.5059360000000  0.5330160000000 1.0
C      1  0.5332710000000  0.5051800000000  0.5138400000000 1.0
C      1  0.5135370000000  0.5059430000000  0.4669860000000 1.0
C      1  0.4667310000000  0.5052030000000  0.4861610000000 1.0
C      1  0.4852580000000  0.5563950000000  0.5356020000000 1.0
C      1  0.4644850000000  0.5563790000000  0.4853140000000 1.0
C      1  0.5147700000000  0.5564030000000  0.4644220000000 1.0
C      1  0.5355440000000  0.5563550000000  0.5147100000000 1.0
C      1  0.4853160000000  0.5563780000000  0.4644820000000 1.0
C      1  0.4644240000000  0.5564050000000  0.5147680000000 1.0
C      1  0.5147120000000  0.5563550000000  0.5355420000000 1.0
C      1  0.5356050000000  0.5563930000000  0.4852560000000 1.0
C      1  0.4406150000000  0.5127680000000  0.4750810000000 1.0
C      1  0.5247820000000  0.5126950000000  0.4405490000000 1.0
C      1  0.5593910000000  0.5127270000000  0.5249250000000 1.0
C      1  0.4752240000000  0.5126820000000  0.5594560000000 1.0
C      1  0.4405490000000  0.5126990000000  0.5247820000000 1.0
C      1  0.5249250000000  0.5127280000000  0.5593900000000 1.0
C      1  0.5594570000000  0.5126790000000  0.4752230000000 1.0
C      1  0.4750810000000  0.5127670000000  0.4406150000000 1.0
C      1  0.4312750000000  0.4868750000000  0.5342440000000 1.0
C      1  0.4662500000000  0.4874130000000  0.4298140000000 1.0
C      1  0.5687170000000  0.4868550000000  0.4657500000000 1.0
C      1  0.5337430000000  0.4873650000000  0.5701800000000 1.0
C      1  0.4298140000000  0.4874140000000  0.4662500000000 1.0
C      1  0.4657490000000  0.4868590000000  0.5687180000000 1.0
C      1  0.5701790000000  0.4873630000000  0.5337440000000 1.0
C      1  0.5342440000000  0.4868710000000  0.4312760000000 1.0
C      1  0.4252380000000  0.4694020000000  0.4882670000000 1.0
C      1  0.5146550000000  0.4658060000000  0.4367770000000 1.0
C      1  0.5747450000000  0.4693580000000  0.5117200000000 1.0
C      1  0.4853260000000  0.4657870000000  0.5632080000000 1.0
C      1  0.4367750000000  0.4658100000000  0.5146570000000 1.0
C      1  0.5117180000000  0.4693610000000  0.5747470000000 1.0
C      1  0.5632070000000  0.4657830000000  0.4853280000000 1.0
C      1  0.4882650000000  0.4694000000000  0.4252400000000 1.0
C      1  0.5164700000000  0.4516510000000  0.4625440000000 1.0
C      1  0.5276530000000  0.4418500000000  0.5086780000000 1.0
C      1  0.4835040000000  0.4516440000000  0.5374350000000 1.0
C      1  0.4723160000000  0.4418680000000  0.4912970000000 1.0
C      1  0.5086750000000  0.4418510000000  0.5276560000000 1.0
C      1  0.5374330000000  0.4516410000000  0.4835070000000 1.0
C      1  0.4912940000000  0.4418680000000  0.4723190000000 1.0
C      1  0.4625420000000  0.4516530000000  0.5164720000000 1.0
C      1  0.4403380000000  0.5414880000000  0.4752980000000 1.0
C      1  0.5247230000000  0.5414740000000  0.4402420000000 1.0
C      1  0.5596830000000  0.5414470000000  0.5247200000000 1.0
C      1  0.4752980000000  0.5414610000000  0.5597750000000 1.0
C      1  0.4402440000000  0.5414780000000  0.5247210000000 1.0
C      1  0.5247220000000  0.5414480000000  0.5596820000000 1.0
C      1  0.5597770000000  0.5414570000000  0.4752960000000 1.0
C      1  0.4752990000000  0.5414870000000  0.4403360000000 1.0
C      1  0.5613440000000  0.4816600000000  0.4386460000000 1.0
C      1  0.4386460000000  0.4816660000000  0.5613450000000 1.0
C      1  0.5591520000000  0.4792200000000  0.5591530000000 1.0
C      1  0.4408370000000  0.4792760000000  0.4408370000000 1.0
END
