TITL C-2323491-8878-465 -4.59957988249466e-05 125000 -365.923421058872 0 0 60 (C2) n - 1
REM
REM in /home/bkarasulu/CARBON/AIRSS/Generating-Clusters/LCBOP/Higher-Symm/Only-C60/SD-CG/FIRE-HFTN
REM
REM
REM
REM
REM
REM ./C.cell (50c204cfd26239f34c78669fe23a5462)
REM
REM compiler GCC version 9.2.1 20190827 (Red Hat 9.2.1-1)
REM options -cpp -mtune=generic -march=x86-64 -g -O0 -fpre-include=/usr/include/finclude/math-vector-fortran.h
REM seed -191101141 248030410 1439051626 396412617 -1190177723 659215770 1842583131 2055506947 867596576 -2016158942 -583541131 -259223651 950191951 -173354447 973327565 -1503945496 1177744463 1870366107 1390045909 411973998 -1543065537 -1892522504 -595855690 1464177902 -1647406060 -87812202 -1793127568 827708645 1103180641 1396571699 616581691 372064074 -226436382
REM
CELL 1.54180   50.00000   50.00000   50.00000   90.00000   90.00000   90.00000
LATT -1
SFAC C  
C      1  0.5465560000000  0.4985300000000  0.5499020000000 1.0
C      1  0.5288140000000  0.4499870000000  0.5400210000000 1.0
C      1  0.4534710000000  0.5014620000000  0.5499280000000 1.0
C      1  0.4712080000000  0.5500070000000  0.5400440000000 1.0
C      1  0.4506330000000  0.5300780000000  0.5402870000000 1.0
C      1  0.5002620000000  0.4534350000000  0.5496890000000 1.0
C      1  0.5493890000000  0.4699150000000  0.5402550000000 1.0
C      1  0.4997640000000  0.5465570000000  0.5496960000000 1.0
C      1  0.4644520000000  0.5138620000000  0.4527010000000 1.0
C      1  0.5095300000000  0.5302870000000  0.4374470000000 1.0
C      1  0.5355220000000  0.4861450000000  0.4526790000000 1.0
C      1  0.4904360000000  0.4697220000000  0.4374470000000 1.0
C      1  0.5330420000000  0.5125580000000  0.4419610000000 1.0
C      1  0.4851560000000  0.5338990000000  0.4518640000000 1.0
C      1  0.4669260000000  0.4874510000000  0.4419770000000 1.0
C      1  0.5148180000000  0.4661090000000  0.4518500000000 1.0
C      1  0.5101920000000  0.5305940000000  0.5708640000000 1.0
C      1  0.5276870000000  0.4910070000000  0.5927480000000 1.0
C      1  0.4898460000000  0.4693950000000  0.5708640000000 1.0
C      1  0.4723630000000  0.5089790000000  0.5927650000000 1.0
C      1  0.4916970000000  0.5280380000000  0.5926560000000 1.0
C      1  0.4692360000000  0.4905760000000  0.5709710000000 1.0
C      1  0.5083530000000  0.4719480000000  0.5926470000000 1.0
C      1  0.5308020000000  0.5094140000000  0.5709550000000 1.0
C      1  0.5150540000000  0.5575360000000  0.5269170000000 1.0
C      1  0.5688130000000  0.4696420000000  0.5168320000000 1.0
C      1  0.4849610000000  0.4424600000000  0.5269170000000 1.0
C      1  0.4311960000000  0.5303560000000  0.5168740000000 1.0
C      1  0.4713610000000  0.5691170000000  0.5163360000000 1.0
C      1  0.4420450000000  0.4864160000000  0.5272250000000 1.0
C      1  0.5286480000000  0.4308810000000  0.5163090000000 1.0
C      1  0.5579700000000  0.5135800000000  0.5271950000000 1.0
C      1  0.4782050000000  0.5575400000000  0.4675010000000 1.0
C      1  0.5573950000000  0.5231590000000  0.4308180000000 1.0
C      1  0.5217770000000  0.4424650000000  0.4674800000000 1.0
C      1  0.4425670000000  0.4768510000000  0.4308450000000 1.0
C      1  0.5133330000000  0.5488250000000  0.4157490000000 1.0
C      1  0.4413300000000  0.5226750000000  0.4681510000000 1.0
C      1  0.4866210000000  0.4511880000000  0.4157490000000 1.0
C      1  0.5586530000000  0.4773300000000  0.4681160000000 1.0
C      1  0.5375600000000  0.5171250000000  0.5079270000000 1.0
C      1  0.5064590000000  0.4741750000000  0.4989490000000 1.0
C      1  0.4624450000000  0.4828740000000  0.5079450000000 1.0
C      1  0.4935410000000  0.5258250000000  0.4989560000000 1.0
C      1  0.4742690000000  0.5073710000000  0.4993250000000 1.0
C      1  0.4817270000000  0.4630150000000  0.5077450000000 1.0
C      1  0.5257300000000  0.4926290000000  0.4993100000000 1.0
C      1  0.5182770000000  0.5369840000000  0.5077410000000 1.0
C      1  0.4398350000000  0.5403660000000  0.4912340000000 1.0
C      1  0.5369620000000  0.5557180000000  0.4042350000000 1.0
C      1  0.5601600000000  0.4596350000000  0.4911950000000 1.0
C      1  0.4629850000000  0.4442970000000  0.4042460000000 1.0
C      1  0.5595630000000  0.5429310000000  0.4123030000000 1.0
C      1  0.4609130000000  0.5603930000000  0.4908830000000 1.0
C      1  0.4403900000000  0.4570830000000  0.4123290000000 1.0
C      1  0.5390820000000  0.4396090000000  0.4908520000000 1.0
C      1  0.4987060000000  0.5794500000000  0.5170760000000 1.0
C      1  0.5796680000000  0.4967990000000  0.5176410000000 1.0
C      1  0.5013030000000  0.4205480000000  0.5170630000000 1.0
C      1  0.4203410000000  0.5031990000000  0.5176850000000 1.0
END
