TITL C-2323489-8765-2 0.000185671423489324 125000 -369.517903162301 0 0 60 (C1) n - 1
REM
REM in /home/bkarasulu/CARBON/AIRSS/Generating-Clusters/LCBOP/Higher-Symm/Only-C60/SD-CG/FIRE-HFTN
REM
REM
REM
REM
REM
REM ./C.cell (50c204cfd26239f34c78669fe23a5462)
REM
REM compiler GCC version 9.2.1 20190827 (Red Hat 9.2.1-1)
REM options -cpp -mtune=generic -march=x86-64 -g -O0 -fpre-include=/usr/include/finclude/math-vector-fortran.h
REM seed -1783500457 -868522035 831057616 -441765490 -900263428 -233876948 -1232687663 -585317148 70070290 -1363866139 524696073 -1649390023 1838907361 600453788 -1232430831 978001990 231968285 -1799009146 895180245 1221233297 -1907194823 2053811239 -1584675476 1734312513 790939557 2100762997 -1833980039 -1949508609 1862215950 1000446393 -2110939756 -1439013046 -1559647246
REM
CELL 1.54180   50.00000   50.00000   50.00000   90.00000   90.00000   90.00000
LATT -1
SFAC C  
C      1  0.4274320000000  0.4870160000000  0.5139990000000 1.0
C      1  0.4268830000000  0.5072330000000  0.4911070000000 1.0
C      1  0.5687770000000  0.5102880000000  0.5149770000000 1.0
C      1  0.5720070000000  0.4907880000000  0.4916810000000 1.0
C      1  0.4841910000000  0.4320790000000  0.5540950000000 1.0
C      1  0.4816490000000  0.5632950000000  0.4471510000000 1.0
C      1  0.5336150000000  0.5843660000000  0.5500710000000 1.0
C      1  0.5196030000000  0.4378790000000  0.4412240000000 1.0
C      1  0.5237620000000  0.5382870000000  0.4470820000000 1.0
C      1  0.5138290000000  0.4701820000000  0.5478010000000 1.0
C      1  0.4762690000000  0.4618530000000  0.4448420000000 1.0
C      1  0.4913680000000  0.5127200000000  0.5527870000000 1.0
C      1  0.4597710000000  0.4457350000000  0.5125280000000 1.0
C      1  0.4621080000000  0.5460010000000  0.4906040000000 1.0
C      1  0.5389310000000  0.5517150000000  0.5134370000000 1.0
C      1  0.5391210000000  0.4493940000000  0.4857960000000 1.0
C      1  0.5522790000000  0.4726500000000  0.4438280000000 1.0
C      1  0.5431110000000  0.5368590000000  0.5587280000000 1.0
C      1  0.4498230000000  0.5276730000000  0.4462970000000 1.0
C      1  0.4474210000000  0.4619210000000  0.5572940000000 1.0
C      1  0.4758740000000  0.4900460000000  0.4844390000000 1.0
C      1  0.4766110000000  0.5010500000000  0.5086780000000 1.0
C      1  0.5213410000000  0.5056360000000  0.4823320000000 1.0
C      1  0.5212120000000  0.4921870000000  0.5051600000000 1.0
C      1  0.5611230000000  0.4643640000000  0.5001920000000 1.0
C      1  0.5625420000000  0.5371750000000  0.5046280000000 1.0
C      1  0.4380120000000  0.5329390000000  0.5014980000000 1.0
C      1  0.4357860000000  0.4605410000000  0.5032140000000 1.0
C      1  0.5390520000000  0.4510790000000  0.4567710000000 1.0
C      1  0.5384260000000  0.5585100000000  0.5411350000000 1.0
C      1  0.4630200000000  0.5477670000000  0.4615530000000 1.0
C      1  0.4615660000000  0.4430170000000  0.5412980000000 1.0
C      1  0.4947760000000  0.4443990000000  0.4331310000000 1.0
C      1  0.5284940000000  0.6086490000000  0.5580230000000 1.0
C      1  0.5060010000000  0.5575140000000  0.4369960000000 1.0
C      1  0.5058660000000  0.4467270000000  0.5608740000000 1.0
C      1  0.5418110000000  0.5206080000000  0.4341120000000 1.0
C      1  0.5154490000000  0.4971290000000  0.5572320000000 1.0
C      1  0.4590110000000  0.4807280000000  0.4326300000000 1.0
C      1  0.4684470000000  0.5050570000000  0.5678200000000 1.0
C      1  0.5415510000000  0.5088040000000  0.5557300000000 1.0
C      1  0.5584460000000  0.5001450000000  0.4451020000000 1.0
C      1  0.4460800000000  0.4901640000000  0.5587300000000 1.0
C      1  0.4425850000000  0.5004440000000  0.4449600000000 1.0
C      1  0.5194170000000  0.5323050000000  0.4745030000000 1.0
C      1  0.5156290000000  0.4689190000000  0.5197170000000 1.0
C      1  0.4786150000000  0.4646110000000  0.4729650000000 1.0
C      1  0.4857390000000  0.5218670000000  0.5259690000000 1.0
C      1  0.4327610000000  0.5301860000000  0.5301980000000 1.0
C      1  0.4272320000000  0.4632590000000  0.4753810000000 1.0
C      1  0.5623460000000  0.4675200000000  0.5298550000000 1.0
C      1  0.5729190000000  0.5353800000000  0.4775360000000 1.0
C      1  0.5733760000000  0.5078440000000  0.4680400000000 1.0
C      1  0.5607400000000  0.4957360000000  0.5387590000000 1.0
C      1  0.4269270000000  0.4912040000000  0.4668120000000 1.0
C      1  0.4307730000000  0.5023490000000  0.5383570000000 1.0
C      1  0.5145280000000  0.5490500000000  0.4973550000000 1.0
C      1  0.5128130000000  0.4468480000000  0.5012360000000 1.0
C      1  0.4839190000000  0.4453210000000  0.4939500000000 1.0
C      1  0.4872330000000  0.5449910000000  0.5078020000000 1.0
END
