TITL C-2323481-8605-452 -0.257567103112644 125000 -376.105867841295 0 0 60 (C1) n - 1
REM
REM in /home/bkarasulu/CARBON/AIRSS/Generating-Clusters/LCBOP/Higher-Symm/Only-C60/SD-CG/FIRE-HFTN
REM
REM
REM
REM
REM
REM ./C.cell (50c204cfd26239f34c78669fe23a5462)
REM
REM compiler GCC version 9.2.1 20190827 (Red Hat 9.2.1-1)
REM options -cpp -mtune=generic -march=x86-64 -g -O0 -fpre-include=/usr/include/finclude/math-vector-fortran.h
REM seed 1782003170 -1878409768 -300005207 1556248528 -848618842 -1879986867 1340663562 -1839310917 923222303 610014824 -56257716 -815195405 1020024336 -890693426 602611242 455245235 1603623225 1513036513 -1045356780 -1486542015 257405743 930510148 570463866 -2075469462 -1768796955 -344402744 846177760 1381972580 976753233 623124603 -538042499 -699136414 1667604413
REM
CELL 1.54180   50.00000   50.00000   50.00000   90.00000   90.00000   90.00000
LATT -1
SFAC C  
C      1  0.5492700000000  0.5570370000000  0.4827800000000 1.0
C      1  0.4762920000000  0.5746010000000  0.4812300000000 1.0
C      1  0.4264010000000  0.5146670000000  0.4844810000000 1.0
C      1  0.4505710000000  0.4447160000000  0.4848530000000 1.0
C      1  0.5231740000000  0.4295880000000  0.4849360000000 1.0
C      1  0.5733050000000  0.4841190000000  0.4855280000000 1.0
C      1  0.4504640000000  0.5563950000000  0.5152330000000 1.0
C      1  0.5228560000000  0.5714890000000  0.5143380000000 1.0
C      1  0.5739660000000  0.5141830000000  0.5171220000000 1.0
C      1  0.5525760000000  0.4422230000000  0.5185610000000 1.0
C      1  0.4760840000000  0.4253870000000  0.5184530000000 1.0
C      1  0.4233990000000  0.4832750000000  0.5185430000000 1.0
C      1  0.5249180000000  0.5139360000000  0.5644790000000 1.0
C      1  0.5001520000000  0.5279840000000  0.5634660000000 1.0
C      1  0.4755620000000  0.5135130000000  0.5631210000000 1.0
C      1  0.4758040000000  0.4849760000000  0.5635290000000 1.0
C      1  0.5006370000000  0.4709430000000  0.5640490000000 1.0
C      1  0.5251650000000  0.4854400000000  0.5646380000000 1.0
C      1  0.4754160000000  0.5147590000000  0.4358980000000 1.0
C      1  0.5001050000000  0.5290010000000  0.4351820000000 1.0
C      1  0.5248090000000  0.5147560000000  0.4351110000000 1.0
C      1  0.5248580000000  0.4862720000000  0.4357570000000 1.0
C      1  0.5001760000000  0.4720030000000  0.4358170000000 1.0
C      1  0.4754610000000  0.4862340000000  0.4359060000000 1.0
C      1  0.5003160000000  0.5698300000000  0.4684160000000 1.0
C      1  0.4401070000000  0.5345420000000  0.4700210000000 1.0
C      1  0.4404640000000  0.4663340000000  0.4699900000000 1.0
C      1  0.4994510000000  0.4319950000000  0.4700400000000 1.0
C      1  0.5590020000000  0.4653920000000  0.4702630000000 1.0
C      1  0.5597050000000  0.5355010000000  0.4685790000000 1.0
C      1  0.4994350000000  0.5686610000000  0.5295660000000 1.0
C      1  0.5604770000000  0.5339720000000  0.5313010000000 1.0
C      1  0.5606260000000  0.4653440000000  0.5314200000000 1.0
C      1  0.5003210000000  0.4295280000000  0.5310900000000 1.0
C      1  0.4393010000000  0.4644480000000  0.5310450000000 1.0
C      1  0.4402530000000  0.5344860000000  0.5296500000000 1.0
C      1  0.5011150000000  0.4442700000000  0.5549840000000 1.0
C      1  0.5485500000000  0.4724530000000  0.5557760000000 1.0
C      1  0.5481390000000  0.5272430000000  0.5556730000000 1.0
C      1  0.5002470000000  0.5544520000000  0.5537980000000 1.0
C      1  0.4525170000000  0.5266790000000  0.5536540000000 1.0
C      1  0.4528480000000  0.4712530000000  0.5546860000000 1.0
C      1  0.5001660000000  0.4454920000000  0.4453800000000 1.0
C      1  0.4525480000000  0.4728830000000  0.4454520000000 1.0
C      1  0.4525580000000  0.5280020000000  0.4457330000000 1.0
C      1  0.5003950000000  0.5557220000000  0.4441160000000 1.0
C      1  0.5478260000000  0.5282870000000  0.4441160000000 1.0
C      1  0.5477420000000  0.4731880000000  0.4457260000000 1.0
C      1  0.4487520000000  0.4433230000000  0.5151900000000 1.0
C      1  0.5233910000000  0.4274130000000  0.5152710000000 1.0
C      1  0.5730560000000  0.4852090000000  0.5159330000000 1.0
C      1  0.5519770000000  0.5565610000000  0.5178420000000 1.0
C      1  0.4750510000000  0.5716170000000  0.5164380000000 1.0
C      1  0.4251980000000  0.5158650000000  0.5148970000000 1.0
C      1  0.5487600000000  0.4431110000000  0.4834540000000 1.0
C      1  0.4751320000000  0.4293940000000  0.4833650000000 1.0
C      1  0.4255910000000  0.4857580000000  0.4833160000000 1.0
C      1  0.4489070000000  0.5567840000000  0.4848130000000 1.0
C      1  0.5237120000000  0.5707050000000  0.4839300000000 1.0
C      1  0.5749450000000  0.5168060000000  0.4820650000000 1.0
END
