TITL C-2323484-8600-59 0.180930453576502 125000 -357.83773108662 0 0 60 (C1) n - 1
REM
REM in /home/bkarasulu/CARBON/AIRSS/Generating-Clusters/LCBOP/Higher-Symm/Only-C60/SD-CG/FIRE-HFTN
REM
REM
REM
REM
REM
REM ./C.cell (50c204cfd26239f34c78669fe23a5462)
REM
REM compiler GCC version 9.2.1 20190827 (Red Hat 9.2.1-1)
REM options -cpp -mtune=generic -march=x86-64 -g -O0 -fpre-include=/usr/include/finclude/math-vector-fortran.h
REM seed -1913945711 1544492328 1361909301 -2070826993 -429888816 -21243323 1810207480 -988728268 -8795765 1744655173 69818059 1262166999 1517091087 482430465 -1800323605 881471463 954056004 -981822909 2017384656 294620273 -121826176 2060483216 892854269 -1373264184 1419642373 -1336035016 -1909503797 1152843277 -1771350404 -649734796 -502376593 -1571865313 -655913564
REM
CELL 1.54180   50.00000   50.00000   50.00000   90.00000   90.00000   90.00000
LATT -1
SFAC C  
C      1  0.4917320000000  0.5627770000000  0.5263330000000 1.0
C      1  0.5331590000000  0.5749620000000  0.5406510000000 1.0
C      1  0.4817330000000  0.5842230000000  0.5126460000000 1.0
C      1  0.4956020000000  0.5436520000000  0.4649040000000 1.0
C      1  0.5307040000000  0.5724320000000  0.4880930000000 1.0
C      1  0.4880150000000  0.5149670000000  0.4136850000000 1.0
C      1  0.5805830000000  0.4767760000000  0.4900800000000 1.0
C      1  0.5508730000000  0.5499760000000  0.5772970000000 1.0
C      1  0.4456470000000  0.4575010000000  0.4835630000000 1.0
C      1  0.5376170000000  0.4085520000000  0.5140500000000 1.0
C      1  0.4363040000000  0.5070130000000  0.5291670000000 1.0
C      1  0.5448630000000  0.5234280000000  0.5214230000000 1.0
C      1  0.4526600000000  0.4331170000000  0.4707750000000 1.0
C      1  0.4998950000000  0.4551520000000  0.4388690000000 1.0
C      1  0.4966290000000  0.5362360000000  0.5157550000000 1.0
C      1  0.4272790000000  0.4801150000000  0.4859180000000 1.0
C      1  0.5216830000000  0.5053200000000  0.4827390000000 1.0
C      1  0.4256110000000  0.4921080000000  0.4365250000000 1.0
C      1  0.5409750000000  0.4753700000000  0.5537610000000 1.0
C      1  0.4298300000000  0.4994050000000  0.4636770000000 1.0
C      1  0.4912140000000  0.4813810000000  0.5618240000000 1.0
C      1  0.5379650000000  0.5770280000000  0.5139870000000 1.0
C      1  0.4483180000000  0.5289180000000  0.5179220000000 1.0
C      1  0.4815510000000  0.3940140000000  0.4667360000000 1.0
C      1  0.5647600000000  0.5247900000000  0.5392390000000 1.0
C      1  0.5312670000000  0.4764160000000  0.4861900000000 1.0
C      1  0.4859590000000  0.5867820000000  0.4857560000000 1.0
C      1  0.4462340000000  0.5229310000000  0.4653700000000 1.0
C      1  0.5684530000000  0.5341600000000  0.5641870000000 1.0
C      1  0.5275220000000  0.5602170000000  0.5647470000000 1.0
C      1  0.4801920000000  0.4603660000000  0.5171220000000 1.0
C      1  0.4787010000000  0.4212730000000  0.4663830000000 1.0
C      1  0.6506270000000  0.4849010000000  0.4543270000000 1.0
C      1  0.4837990000000  0.4617230000000  0.5432780000000 1.0
C      1  0.4836120000000  0.5282870000000  0.5715340000000 1.0
C      1  0.5556020000000  0.4749920000000  0.5023350000000 1.0
C      1  0.4824550000000  0.4829730000000  0.4720760000000 1.0
C      1  0.4929980000000  0.4811900000000  0.4458190000000 1.0
C      1  0.5205730000000  0.4484830000000  0.4814050000000 1.0
C      1  0.4723170000000  0.5028320000000  0.5652760000000 1.0
C      1  0.5530240000000  0.4715920000000  0.5302130000000 1.0
C      1  0.5017770000000  0.4382400000000  0.4614710000000 1.0
C      1  0.4213940000000  0.4864860000000  0.5137170000000 1.0
C      1  0.4150550000000  0.4674850000000  0.5350510000000 1.0
C      1  0.5202980000000  0.5212090000000  0.5077550000000 1.0
C      1  0.4698060000000  0.5346200000000  0.4754640000000 1.0
C      1  0.5024170000000  0.5057510000000  0.4361280000000 1.0
C      1  0.4706470000000  0.4686730000000  0.4926230000000 1.0
C      1  0.5306630000000  0.4285160000000  0.4988060000000 1.0
C      1  0.4395790000000  0.4986400000000  0.4143210000000 1.0
C      1  0.5187730000000  0.4819610000000  0.5672920000000 1.0
C      1  0.6040590000000  0.4794460000000  0.4781160000000 1.0
C      1  0.5123090000000  0.5207930000000  0.4586190000000 1.0
C      1  0.5056580000000  0.5692920000000  0.4742210000000 1.0
C      1  0.4626980000000  0.5095590000000  0.4059020000000 1.0
C      1  0.4716700000000  0.5306230000000  0.5033470000000 1.0
C      1  0.4455830000000  0.4972120000000  0.5555020000000 1.0
C      1  0.4287740000000  0.4735460000000  0.5586260000000 1.0
C      1  0.6275360000000  0.4821950000000  0.4661230000000 1.0
C      1  0.5027680000000  0.5474210000000  0.5712790000000 1.0
END
