TITL C-2323480-5884-412 95.1345010689043 125000 -333.627338896937 0 0 60 (Cs) n - 1
REM
REM in /home/bkarasulu/CARBON/AIRSS/Generating-Clusters/LCBOP/Higher-Symm/Only-C60/SD-CG/FIRE-HFTN
REM
REM
REM
REM
REM
REM ./C.cell (50c204cfd26239f34c78669fe23a5462)
REM
REM compiler GCC version 9.2.1 20190827 (Red Hat 9.2.1-1)
REM options -cpp -mtune=generic -march=x86-64 -g -O0 -fpre-include=/usr/include/finclude/math-vector-fortran.h
REM seed -1975987100 -326011325 -1819595668 840674690 -82316726 1829278461 19965582 -14249018 204985285 -1897664511 -627202719 -757720469 -1418828396 -1389394415 -1428566956 20648584 1116902148 153327846 683032152 1179660760 -64691539 950309263 338682843 1386765415 1791269525 -1304424216 -402264079 575068830 1222277659 865344520 1255507547 725056821 623274670
REM
CELL 1.54180   50.00000   50.00000   50.00000   90.00000   90.00000   90.00000
LATT -1
SFAC C  
C      1  0.5145310000000  0.5739430000000  0.4789960000000 1.0
C      1  0.5145150000000  0.4261820000000  0.5219190000000 1.0
C      1  0.4854660000000  0.5739430000000  0.4789970000000 1.0
C      1  0.4854880000000  0.4261810000000  0.5219200000000 1.0
C      1  0.4461570000000  0.5527070000000  0.4587740000000 1.0
C      1  0.4457270000000  0.4468880000000  0.5412880000000 1.0
C      1  0.5538390000000  0.5527080000000  0.4587690000000 1.0
C      1  0.5542770000000  0.4468880000000  0.5412830000000 1.0
C      1  0.4797410000000  0.4262580000000  0.4947740000000 1.0
C      1  0.4797550000000  0.5739100000000  0.5061170000000 1.0
C      1  0.5202590000000  0.4262580000000  0.4947720000000 1.0
C      1  0.5202450000000  0.5739110000000  0.5061150000000 1.0
C      1  0.5314310000000  0.4455720000000  0.4528280000000 1.0
C      1  0.5313970000000  0.5540830000000  0.5478360000000 1.0
C      1  0.4685650000000  0.4455720000000  0.4528310000000 1.0
C      1  0.4686070000000  0.5540830000000  0.5478390000000 1.0
C      1  0.5176570000000  0.5257920000000  0.4881890000000 1.0
C      1  0.5175650000000  0.4741880000000  0.5119010000000 1.0
C      1  0.4823420000000  0.5257920000000  0.4881900000000 1.0
C      1  0.4824370000000  0.4741880000000  0.5119030000000 1.0
C      1  0.4338580000000  0.5311270000000  0.4687730000000 1.0
C      1  0.4354780000000  0.4680330000000  0.5266430000000 1.0
C      1  0.5661390000000  0.5311280000000  0.4687670000000 1.0
C      1  0.5645250000000  0.4680330000000  0.5266370000000 1.0
C      1  0.5133750000000  0.5446490000000  0.4385540000000 1.0
C      1  0.5133930000000  0.4561210000000  0.5619620000000 1.0
C      1  0.4866190000000  0.5446480000000  0.4385550000000 1.0
C      1  0.4866130000000  0.4561210000000  0.5619630000000 1.0
C      1  0.5309220000000  0.5089050000000  0.5443030000000 1.0
C      1  0.5308840000000  0.4907470000000  0.4556480000000 1.0
C      1  0.4690820000000  0.5089050000000  0.5443060000000 1.0
C      1  0.4691120000000  0.4907470000000  0.4556510000000 1.0
C      1  0.4424870000000  0.5029710000000  0.4639880000000 1.0
C      1  0.4428080000000  0.4964120000000  0.5348980000000 1.0
C      1  0.5575100000000  0.5029720000000  0.4639820000000 1.0
C      1  0.5571950000000  0.4964130000000  0.5348930000000 1.0
C      1  0.5162230000000  0.5313930000000  0.5581760000000 1.0
C      1  0.5161540000000  0.4680470000000  0.4421860000000 1.0
C      1  0.4837830000000  0.5313930000000  0.5581770000000 1.0
C      1  0.4838410000000  0.4680460000000  0.4421880000000 1.0
C      1  0.4384750000000  0.5365440000000  0.5039020000000 1.0
C      1  0.4385650000000  0.4640080000000  0.4970590000000 1.0
C      1  0.5615250000000  0.5365450000000  0.5038960000000 1.0
C      1  0.5614350000000  0.4640080000000  0.4970530000000 1.0
C      1  0.4325420000000  0.4907200000000  0.4882360000000 1.0
C      1  0.4326320000000  0.5103050000000  0.5115730000000 1.0
C      1  0.5674570000000  0.4907200000000  0.4882290000000 1.0
C      1  0.5673690000000  0.5103050000000  0.5115660000000 1.0
C      1  0.5143000000000  0.4922510000000  0.4797660000000 1.0
C      1  0.5142560000000  0.5078470000000  0.5202140000000 1.0
C      1  0.4856990000000  0.4922510000000  0.4797680000000 1.0
C      1  0.4857450000000  0.5078470000000  0.5202150000000 1.0
C      1  0.5257260000000  0.5512170000000  0.4643300000000 1.0
C      1  0.5256960000000  0.4490300000000  0.5364740000000 1.0
C      1  0.4742700000000  0.5512170000000  0.4643330000000 1.0
C      1  0.4743080000000  0.4490300000000  0.5364760000000 1.0
C      1  0.4607890000000  0.5579710000000  0.5202620000000 1.0
C      1  0.4607950000000  0.4421760000000  0.4804520000000 1.0
C      1  0.5392130000000  0.5579710000000  0.5202580000000 1.0
C      1  0.5392030000000  0.4421760000000  0.4804490000000 1.0
END
