TITL C-2323486-8761-392 0.000266912332942186 125000 -374.861139427427 0 0 60 (Td) n - 1
REM
REM in /home/bkarasulu/CARBON/AIRSS/Generating-Clusters/LCBOP/Higher-Symm/Only-C60/SD-CG/FIRE-HFTN
REM
REM
REM
REM
REM
REM ./C.cell (50c204cfd26239f34c78669fe23a5462)
REM
REM compiler GCC version 9.2.1 20190827 (Red Hat 9.2.1-1)
REM options -cpp -mtune=generic -march=x86-64 -g -O0 -fpre-include=/usr/include/finclude/math-vector-fortran.h
REM seed -303216120 362336961 -601858025 1222919616 -1624258359 661243829 -792855258 1618019769 -1752862084 -1001903749 -5585104 -1470937250 -1304749799 -684118328 2138760893 -883533787 -829195615 1542788657 602779961 242945538 -1004860781 1073295634 -21143912 1448354264 -1485283247 -114631700 422417466 1600373303 965169949 1202049720 -1508906573 -443417317 -1906623810
REM
CELL 1.54180   50.00000   50.00000   50.00000   90.00000   90.00000   90.00000
LATT -1
SFAC C  
C      1  0.4337510000000  0.5330200000000  0.4872660000000 1.0
C      1  0.5330200000000  0.4872660000000  0.4337510000000 1.0
C      1  0.4872660000000  0.4337510000000  0.5330200000000 1.0
C      1  0.5662490000000  0.5330200000000  0.5127330000000 1.0
C      1  0.5662490000000  0.4669800000000  0.4872670000000 1.0
C      1  0.4337510000000  0.4669800000000  0.5127340000000 1.0
C      1  0.4669800000000  0.4872670000000  0.5662490000000 1.0
C      1  0.4669800000000  0.5127330000000  0.4337510000000 1.0
C      1  0.5330200000000  0.5127340000000  0.5662490000000 1.0
C      1  0.5127330000000  0.4337510000000  0.4669810000000 1.0
C      1  0.5127340000000  0.5662490000000  0.5330190000000 1.0
C      1  0.4872670000000  0.5662490000000  0.4669800000000 1.0
C      1  0.4872660000000  0.5330190000000  0.4337510000000 1.0
C      1  0.4337510000000  0.4872670000000  0.5330200000000 1.0
C      1  0.5330200000000  0.4337510000000  0.4872670000000 1.0
C      1  0.5127340000000  0.5330200000000  0.5662490000000 1.0
C      1  0.4872660000000  0.4669810000000  0.5662490000000 1.0
C      1  0.5127340000000  0.4669800000000  0.4337510000000 1.0
C      1  0.5662490000000  0.4872660000000  0.4669800000000 1.0
C      1  0.4337510000000  0.5127340000000  0.4669800000000 1.0
C      1  0.5662490000000  0.5127340000000  0.5330200000000 1.0
C      1  0.4669800000000  0.4337510000000  0.5127340000000 1.0
C      1  0.5330200000000  0.5662490000000  0.5127330000000 1.0
C      1  0.4669800000000  0.5662490000000  0.4872660000000 1.0
C      1  0.5537140000000  0.4868730000000  0.5328580000000 1.0
C      1  0.4868730000000  0.5328590000000  0.5537140000000 1.0
C      1  0.5328580000000  0.5537140000000  0.4868720000000 1.0
C      1  0.4462860000000  0.4868730000000  0.4671420000000 1.0
C      1  0.4462860000000  0.5131280000000  0.5328580000000 1.0
C      1  0.5537140000000  0.5131270000000  0.4671420000000 1.0
C      1  0.5131270000000  0.5328580000000  0.4462860000000 1.0
C      1  0.5131270000000  0.4671420000000  0.5537140000000 1.0
C      1  0.4868730000000  0.4671410000000  0.4462860000000 1.0
C      1  0.4671420000000  0.5537140000000  0.5131270000000 1.0
C      1  0.4671420000000  0.4462860000000  0.4868730000000 1.0
C      1  0.5328580000000  0.4462860000000  0.5131280000000 1.0
C      1  0.5328580000000  0.4868730000000  0.5537140000000 1.0
C      1  0.5537140000000  0.5328580000000  0.4868730000000 1.0
C      1  0.4868730000000  0.5537140000000  0.5328580000000 1.0
C      1  0.4671420000000  0.4868720000000  0.4462860000000 1.0
C      1  0.5328580000000  0.5131270000000  0.4462860000000 1.0
C      1  0.4671420000000  0.5131280000000  0.5537140000000 1.0
C      1  0.4462860000000  0.5328580000000  0.5131270000000 1.0
C      1  0.5537140000000  0.4671420000000  0.5131280000000 1.0
C      1  0.4462860000000  0.4671420000000  0.4868730000000 1.0
C      1  0.5131270000000  0.5537140000000  0.4671410000000 1.0
C      1  0.4868730000000  0.4462860000000  0.4671420000000 1.0
C      1  0.5131270000000  0.4462860000000  0.5328590000000 1.0
C      1  0.4440350000000  0.4731650000000  0.5559650000000 1.0
C      1  0.4731650000000  0.5559650000000  0.4440350000000 1.0
C      1  0.5559650000000  0.4731650000000  0.4440350000000 1.0
C      1  0.4440350000000  0.5268350000000  0.4440350000000 1.0
C      1  0.5268350000000  0.4440350000000  0.4440350000000 1.0
C      1  0.4440350000000  0.4440350000000  0.5268350000000 1.0
C      1  0.4440350000000  0.5559650000000  0.4731650000000 1.0
C      1  0.4731650000000  0.4440360000000  0.5559650000000 1.0
C      1  0.5559650000000  0.4440350000000  0.4731650000000 1.0
C      1  0.5559650000000  0.5268350000000  0.5559650000000 1.0
C      1  0.5268350000000  0.5559650000000  0.5559650000000 1.0
C      1  0.5559650000000  0.5559650000000  0.5268350000000 1.0
END
