TITL C-2323477-5056-72 0.000129834709471489 125000 -361.647069729409 0 0 60 (C1) n - 1
REM
REM in /home/bkarasulu/CARBON/AIRSS/Generating-Clusters/LCBOP/Higher-Symm/Only-C60/SD-CG/FIRE-HFTN
REM
REM
REM
REM
REM
REM ./C.cell (50c204cfd26239f34c78669fe23a5462)
REM
REM compiler GCC version 9.2.1 20190827 (Red Hat 9.2.1-1)
REM options -cpp -mtune=generic -march=x86-64 -g -O0 -fpre-include=/usr/include/finclude/math-vector-fortran.h
REM seed 1186248119 1725094539 -407538745 -1897070141 -527622073 -1875847340 985614782 -177211236 -145827232 1036081063 -79838332 -1224809036 515141505 98582422 -251459457 -1638094248 938914837 -1085707346 -1153679590 -685740113 2110823457 -287772527 -1837508306 -1399314337 561569018 -666641988 -1284962124 -2105362407 184196996 -314935484 -1174236941 -720336300 -714267030
REM
CELL 1.54180   50.00000   50.00000   50.00000   90.00000   90.00000   90.00000
LATT -1
SFAC C  
C      1  0.4600740000000  0.4763890000000  0.5594960000000 1.0
C      1  0.4582630000000  0.5346210000000  0.5567690000000 1.0
C      1  0.5132150000000  0.5515550000000  0.5530480000000 1.0
C      1  0.5487690000000  0.5070130000000  0.5612260000000 1.0
C      1  0.5146350000000  0.4599000000000  0.5620010000000 1.0
C      1  0.4618230000000  0.4652610000000  0.4417920000000 1.0
C      1  0.4605300000000  0.5235700000000  0.4341890000000 1.0
C      1  0.5155730000000  0.5405500000000  0.4365360000000 1.0
C      1  0.5511900000000  0.4952780000000  0.4388430000000 1.0
C      1  0.5162740000000  0.4488370000000  0.4454820000000 1.0
C      1  0.4438720000000  0.5403170000000  0.4813040000000 1.0
C      1  0.5222960000000  0.5685230000000  0.4796220000000 1.0
C      1  0.5703360000000  0.5009330000000  0.4875490000000 1.0
C      1  0.5224010000000  0.4257150000000  0.4913210000000 1.0
C      1  0.4406810000000  0.4509570000000  0.4869390000000 1.0
C      1  0.4405460000000  0.5450060000000  0.5092530000000 1.0
C      1  0.5225840000000  0.5739090000000  0.5074790000000 1.0
C      1  0.5734380000000  0.5040030000000  0.5157460000000 1.0
C      1  0.5216510000000  0.4311200000000  0.5192650000000 1.0
C      1  0.4425280000000  0.4558090000000  0.5149530000000 1.0
C      1  0.5093820000000  0.4773130000000  0.5173760000000 1.0
C      1  0.4788440000000  0.4868800000000  0.5165840000000 1.0
C      1  0.4796390000000  0.5169910000000  0.5193060000000 1.0
C      1  0.5077200000000  0.5267710000000  0.5117490000000 1.0
C      1  0.5247480000000  0.5030640000000  0.5214690000000 1.0
C      1  0.5107430000000  0.4731940000000  0.4865800000000 1.0
C      1  0.4768370000000  0.4835930000000  0.4831750000000 1.0
C      1  0.4802850000000  0.5115350000000  0.4742660000000 1.0
C      1  0.5078020000000  0.5225650000000  0.4808640000000 1.0
C      1  0.5247100000000  0.4976250000000  0.4767690000000 1.0
C      1  0.4808440000000  0.5076250000000  0.4218490000000 1.0
C      1  0.5088960000000  0.5168810000000  0.4222760000000 1.0
C      1  0.5266220000000  0.4933680000000  0.4243290000000 1.0
C      1  0.5093270000000  0.4697550000000  0.4276140000000 1.0
C      1  0.4812990000000  0.4784130000000  0.4258410000000 1.0
C      1  0.4780950000000  0.5215570000000  0.5724610000000 1.0
C      1  0.5059940000000  0.5309460000000  0.5712420000000 1.0
C      1  0.5236940000000  0.5076620000000  0.5746790000000 1.0
C      1  0.5067350000000  0.4836420000000  0.5753870000000 1.0
C      1  0.4786470000000  0.4921780000000  0.5740780000000 1.0
C      1  0.5150240000000  0.5525070000000  0.5246790000000 1.0
C      1  0.5505590000000  0.5048080000000  0.5329440000000 1.0
C      1  0.5158980000000  0.4541540000000  0.5343640000000 1.0
C      1  0.4587110000000  0.4716570000000  0.5316530000000 1.0
C      1  0.4582460000000  0.5331170000000  0.5283740000000 1.0
C      1  0.5159260000000  0.5458240000000  0.4643560000000 1.0
C      1  0.5512380000000  0.4979390000000  0.4671070000000 1.0
C      1  0.5167890000000  0.4475280000000  0.4737960000000 1.0
C      1  0.4585630000000  0.4653210000000  0.4699550000000 1.0
C      1  0.4596090000000  0.5266540000000  0.4624090000000 1.0
C      1  0.5366830000000  0.6220820000000  0.5270760000000 1.0
C      1  0.6228350000000  0.5084320000000  0.5370550000000 1.0
C      1  0.5282940000000  0.4002860000000  0.4816710000000 1.0
C      1  0.4221720000000  0.4328720000000  0.4766750000000 1.0
C      1  0.4004400000000  0.5767650000000  0.5265000000000 1.0
C      1  0.5299000000000  0.5988660000000  0.5173710000000 1.0
C      1  0.5990810000000  0.5062650000000  0.5265570000000 1.0
C      1  0.5337260000000  0.3766320000000  0.4721770000000 1.0
C      1  0.4050360000000  0.4160070000000  0.4666190000000 1.0
C      1  0.4197260000000  0.5614580000000  0.5179590000000 1.0
END
