TITL C-2323478-8180-1 77.0529809400971 125000 -347.887099382521 0 0 60 (C1) n - 1
REM
REM in /home/bkarasulu/CARBON/AIRSS/Generating-Clusters/LCBOP/Higher-Symm/Only-C60/SD-CG/FIRE-HFTN
REM
REM
REM
REM
REM
REM ./C.cell (50c204cfd26239f34c78669fe23a5462)
REM
REM compiler GCC version 9.2.1 20190827 (Red Hat 9.2.1-1)
REM options -cpp -mtune=generic -march=x86-64 -g -O0 -fpre-include=/usr/include/finclude/math-vector-fortran.h
REM seed -1479923179 -1787311450 -1256155595 -1949074780 -266005495 -249793827 1490595499 -1105478966 1862231971 108314709 -827299076 1381664662 -2024617373 557952567 -1267487717 1425973824 1945698459 -1337161524 1668025485 -733578555 -1108853368 -1218428460 1014936111 818980940 1164464428 1098283547 -1183548643 -1602269771 408623922 2062411397 2124379828 1214463928 902985672
REM
CELL 1.54180   50.00000   50.00000   50.00000   90.00000   90.00000   90.00000
LATT -1
SFAC C  
C      1  0.5681790000000  0.5046110000000  0.5137610000000 1.0
C      1  0.4912060000000  0.5025140000000  0.5677570000000 1.0
C      1  0.4371520000000  0.5134630000000  0.4863190000000 1.0
C      1  0.5169050000000  0.5103920000000  0.4382940000000 1.0
C      1  0.5135940000000  0.5597130000000  0.4561370000000 1.0
C      1  0.5438620000000  0.5540000000000  0.5064680000000 1.0
C      1  0.5005110000000  0.5465470000000  0.5440820000000 1.0
C      1  0.4420510000000  0.5627110000000  0.4821720000000 1.0
C      1  0.5204020000000  0.4231330000000  0.5415620000000 1.0
C      1  0.4558340000000  0.4371530000000  0.5260410000000 1.0
C      1  0.4734240000000  0.4359960000000  0.4577270000000 1.0
C      1  0.5435180000000  0.4265260000000  0.4731850000000 1.0
C      1  0.5046550000000  0.4555160000000  0.5762850000000 1.0
C      1  0.4263180000000  0.4692270000000  0.5055680000000 1.0
C      1  0.4993860000000  0.4642660000000  0.4278940000000 1.0
C      1  0.5751210000000  0.4555020000000  0.4971010000000 1.0
C      1  0.5655250000000  0.4968230000000  0.5432940000000 1.0
C      1  0.4607490000000  0.5014470000000  0.5628140000000 1.0
C      1  0.4430790000000  0.5029130000000  0.4590770000000 1.0
C      1  0.5448790000000  0.5007070000000  0.4423940000000 1.0
C      1  0.4786930000000  0.4516950000000  0.5352950000000 1.0
C      1  0.4648740000000  0.4498000000000  0.4810780000000 1.0
C      1  0.5201850000000  0.4416680000000  0.4664840000000 1.0
C      1  0.5376630000000  0.4327370000000  0.5204310000000 1.0
C      1  0.4991770000000  0.5217300000000  0.4829740000000 1.0
C      1  0.5229760000000  0.5119330000000  0.4984700000000 1.0
C      1  0.5159370000000  0.5044180000000  0.5261270000000 1.0
C      1  0.4797350000000  0.5338380000000  0.5023650000000 1.0
C      1  0.5728840000000  0.4841460000000  0.4910850000000 1.0
C      1  0.5116510000000  0.4829280000000  0.5771520000000 1.0
C      1  0.4306360000000  0.4972620000000  0.5112810000000 1.0
C      1  0.4936690000000  0.4922130000000  0.4318680000000 1.0
C      1  0.4840120000000  0.4959770000000  0.4752350000000 1.0
C      1  0.5295790000000  0.4878080000000  0.4818840000000 1.0
C      1  0.5268840000000  0.4790720000000  0.5322480000000 1.0
C      1  0.4734920000000  0.5045530000000  0.5204830000000 1.0
C      1  0.5137990000000  0.5799640000000  0.4757850000000 1.0
C      1  0.5187970000000  0.5716570000000  0.5045720000000 1.0
C      1  0.4927020000000  0.5583740000000  0.5175100000000 1.0
C      1  0.4343640000000  0.5850170000000  0.4701150000000 1.0
C      1  0.4444340000000  0.4472720000000  0.5015820000000 1.0
C      1  0.4992810000000  0.4423760000000  0.4465250000000 1.0
C      1  0.5571830000000  0.4320840000000  0.4982950000000 1.0
C      1  0.4991100000000  0.4401850000000  0.5527160000000 1.0
C      1  0.5252520000000  0.4578010000000  0.5148550000000 1.0
C      1  0.4815430000000  0.4763630000000  0.5188450000000 1.0
C      1  0.4857850000000  0.4700800000000  0.4896990000000 1.0
C      1  0.5149620000000  0.4627470000000  0.4874860000000 1.0
C      1  0.4721210000000  0.5803780000000  0.5217080000000 1.0
C      1  0.4280510000000  0.6073890000000  0.4583150000000 1.0
C      1  0.5092010000000  0.6061500000000  0.4693240000000 1.0
C      1  0.5252060000000  0.5965280000000  0.5216710000000 1.0
C      1  0.5415550000000  0.4842410000000  0.5556240000000 1.0
C      1  0.4487410000000  0.5036590000000  0.5351050000000 1.0
C      1  0.4703180000000  0.4970690000000  0.4499510000000 1.0
C      1  0.5544490000000  0.4898460000000  0.4679320000000 1.0
C      1  0.5492770000000  0.5263060000000  0.5045260000000 1.0
C      1  0.5045800000000  0.5192250000000  0.5478890000000 1.0
C      1  0.4517380000000  0.5382080000000  0.4911950000000 1.0
C      1  0.5091550000000  0.5321430000000  0.4563830000000 1.0
END
