TITL C-2323492-8884-426 267.173061853028 125000 -341.209090483105 0 0 60 (C3v) n - 1
REM
REM in /home/bkarasulu/CARBON/AIRSS/Generating-Clusters/LCBOP/Higher-Symm/Only-C60/SD-CG/FIRE-HFTN
REM
REM
REM
REM
REM
REM ./C.cell (50c204cfd26239f34c78669fe23a5462)
REM
REM compiler GCC version 9.2.1 20190827 (Red Hat 9.2.1-1)
REM options -cpp -mtune=generic -march=x86-64 -g -O0 -fpre-include=/usr/include/finclude/math-vector-fortran.h
REM seed 234321361 1263873738 -2136048728 1830058951 1087424189 1229081873 1232855472 687989889 -1091247852 -1125263358 1999722796 -534342379 118127486 1370517369 -1870469403 797514874 -698145101 961969170 1696407690 -1462945143 1027954590 -212998722 1237432002 -1668842065 -1125614920 -1651674458 1646223587 -815377952 -355801746 117964826 -269325863 -1186663662 737748780
REM
CELL 1.54180   50.00000   50.00000   50.00000   90.00000   90.00000   90.00000
LATT -1
SFAC C  
C      1  0.4866130000000  0.4896080000000  0.5245890000000 1.0
C      1  0.4866130000000  0.5264900000000  0.4967060000000 1.0
C      1  0.4866110000000  0.4839030000000  0.4787070000000 1.0
C      1  0.5140090000000  0.4896570000000  0.5244700000000 1.0
C      1  0.5140090000000  0.5263630000000  0.4967210000000 1.0
C      1  0.5140070000000  0.4839790000000  0.4788080000000 1.0
C      1  0.5250680000000  0.5150810000000  0.5199490000000 1.0
C      1  0.5250660000000  0.5097360000000  0.4769620000000 1.0
C      1  0.5250660000000  0.4751810000000  0.5030850000000 1.0
C      1  0.4756010000000  0.5151010000000  0.5199750000000 1.0
C      1  0.4755990000000  0.5097490000000  0.4769370000000 1.0
C      1  0.4756000000000  0.4751520000000  0.5030910000000 1.0
C      1  0.5172790000000  0.5406770000000  0.5538060000000 1.0
C      1  0.5172730000000  0.5262590000000  0.4378680000000 1.0
C      1  0.5172740000000  0.4330630000000  0.5083230000000 1.0
C      1  0.4823290000000  0.5408420000000  0.5540240000000 1.0
C      1  0.4823240000000  0.5263660000000  0.4376200000000 1.0
C      1  0.4823240000000  0.4327940000000  0.5083590000000 1.0
C      1  0.4676210000000  0.5508310000000  0.4598410000000 1.0
C      1  0.4676190000000  0.4398050000000  0.4760610000000 1.0
C      1  0.4676250000000  0.5093660000000  0.5641020000000 1.0
C      1  0.5316520000000  0.5506900000000  0.4610690000000 1.0
C      1  0.5316500000000  0.4409400000000  0.4755630000000 1.0
C      1  0.5316560000000  0.5083670000000  0.5633630000000 1.0
C      1  0.4448720000000  0.4868840000000  0.4560620000000 1.0
C      1  0.4448750000000  0.4685070000000  0.5333330000000 1.0
C      1  0.4448760000000  0.5446140000000  0.5106130000000 1.0
C      1  0.5556360000000  0.4869070000000  0.4559520000000 1.0
C      1  0.5556390000000  0.4684000000000  0.5333580000000 1.0
C      1  0.5556400000000  0.5446890000000  0.5106820000000 1.0
C      1  0.5556410000000  0.4980930000000  0.5459070000000 1.0
C      1  0.5556390000000  0.5407100000000  0.4786920000000 1.0
C      1  0.5556360000000  0.4611920000000  0.4753920000000 1.0
C      1  0.4448760000000  0.4980460000000  0.5458180000000 1.0
C      1  0.4448740000000  0.5406570000000  0.4787890000000 1.0
C      1  0.4448720000000  0.4613020000000  0.4754010000000 1.0
C      1  0.5138000000000  0.5682080000000  0.4760780000000 1.0
C      1  0.5137960000000  0.4451790000000  0.4528900000000 1.0
C      1  0.5138020000000  0.4866120000000  0.5710300000000 1.0
C      1  0.4856570000000  0.5691820000000  0.4711510000000 1.0
C      1  0.4856530000000  0.4404250000000  0.4545130000000 1.0
C      1  0.4856600000000  0.4903940000000  0.5743390000000 1.0
C      1  0.5535100000000  0.5184490000000  0.5244030000000 1.0
C      1  0.5535070000000  0.5119090000000  0.4718160000000 1.0
C      1  0.5535070000000  0.4696370000000  0.5037730000000 1.0
C      1  0.4471200000000  0.5182840000000  0.5241870000000 1.0
C      1  0.4471170000000  0.5118040000000  0.4720770000000 1.0
C      1  0.4471180000000  0.4699160000000  0.5037440000000 1.0
C      1  0.4676240000000  0.5591200000000  0.5264890000000 1.0
C      1  0.4676180000000  0.4933800000000  0.4355590000000 1.0
C      1  0.4676220000000  0.4475030000000  0.5379560000000 1.0
C      1  0.5316560000000  0.5586810000000  0.5253260000000 1.0
C      1  0.5316500000000  0.4925930000000  0.4365150000000 1.0
C      1  0.5316530000000  0.4487240000000  0.5381550000000 1.0
C      1  0.5138020000000  0.5719900000000  0.5064860000000 1.0
C      1  0.5137950000000  0.4696220000000  0.4344110000000 1.0
C      1  0.5138010000000  0.4583870000000  0.5591010000000 1.0
C      1  0.4856590000000  0.5741410000000  0.5110270000000 1.0
C      1  0.4856530000000  0.4724790000000  0.4302800000000 1.0
C      1  0.4856580000000  0.4533810000000  0.5586950000000 1.0
END
