TITL C-2323483-8886-276 -0.00179623805870709 125000 -377.915930830517 0 0 60 (C1) n - 1
REM
REM in /home/bkarasulu/CARBON/AIRSS/Generating-Clusters/LCBOP/Higher-Symm/Only-C60/SD-CG/FIRE-HFTN
REM
REM
REM
REM
REM
REM ./C.cell (50c204cfd26239f34c78669fe23a5462)
REM
REM compiler GCC version 9.2.1 20190827 (Red Hat 9.2.1-1)
REM options -cpp -mtune=generic -march=x86-64 -g -O0 -fpre-include=/usr/include/finclude/math-vector-fortran.h
REM seed -1996206354 -844698381 -688230 781510332 1040955291 -1508612975 1677585623 -96801250 1574236156 -1355255848 -743647316 1943065967 -222099899 289600949 1382768437 1597664012 -1272067562 1239585474 830908249 -645320446 -203184599 -72250039 -1447858615 1021774217 967183850 236484044 509570937 101002371 -1056937827 -559851396 -2094308942 -1850800269 730798330
REM
CELL 1.54180   50.00000   50.00000   50.00000   90.00000   90.00000   90.00000
LATT -1
SFAC C  
C      1  0.5610480000000  0.4584630000000  0.5162990000000 1.0
C      1  0.5570790000000  0.4729180000000  0.4616800000000 1.0
C      1  0.5593890000000  0.5262560000000  0.4605040000000 1.0
C      1  0.5634770000000  0.5457000000000  0.5137410000000 1.0
C      1  0.5635100000000  0.5007840000000  0.5447140000000 1.0
C      1  0.5577070000000  0.4559010000000  0.4836440000000 1.0
C      1  0.5580760000000  0.4742980000000  0.5383200000000 1.0
C      1  0.5594930000000  0.5273010000000  0.5406560000000 1.0
C      1  0.5636020000000  0.5451330000000  0.4870700000000 1.0
C      1  0.5625810000000  0.4996080000000  0.4563570000000 1.0
C      1  0.4430260000000  0.4557930000000  0.4852720000000 1.0
C      1  0.4415460000000  0.4996510000000  0.4555460000000 1.0
C      1  0.4358270000000  0.5405640000000  0.4881830000000 1.0
C      1  0.4424540000000  0.5276320000000  0.5369470000000 1.0
C      1  0.4365590000000  0.4754630000000  0.5321590000000 1.0
C      1  0.4430490000000  0.4564370000000  0.5130820000000 1.0
C      1  0.4361430000000  0.5009200000000  0.5408060000000 1.0
C      1  0.4424930000000  0.5443800000000  0.5147820000000 1.0
C      1  0.4354850000000  0.5242900000000  0.4668350000000 1.0
C      1  0.4376460000000  0.4744060000000  0.4653120000000 1.0
C      1  0.5366670000000  0.5431850000000  0.4494870000000 1.0
C      1  0.5359840000000  0.5619280000000  0.5282260000000 1.0
C      1  0.5351870000000  0.4922230000000  0.5720210000000 1.0
C      1  0.5359790000000  0.4334890000000  0.5142090000000 1.0
C      1  0.5362550000000  0.4674130000000  0.4415110000000 1.0
C      1  0.5359480000000  0.5435970000000  0.5508970000000 1.0
C      1  0.5368800000000  0.5619100000000  0.4718380000000 1.0
C      1  0.5343890000000  0.4921470000000  0.4285060000000 1.0
C      1  0.5362910000000  0.4342990000000  0.4852670000000 1.0
C      1  0.5367800000000  0.4680940000000  0.5577170000000 1.0
C      1  0.5125580000000  0.5675090000000  0.5140740000000 1.0
C      1  0.5117490000000  0.5073020000000  0.5722760000000 1.0
C      1  0.5123020000000  0.4370550000000  0.5285710000000 1.0
C      1  0.5125330000000  0.4532280000000  0.4474370000000 1.0
C      1  0.5123330000000  0.5342310000000  0.4388400000000 1.0
C      1  0.5132100000000  0.5680700000000  0.4853170000000 1.0
C      1  0.5109410000000  0.5073450000000  0.4291050000000 1.0
C      1  0.5122300000000  0.4363520000000  0.4707610000000 1.0
C      1  0.5128900000000  0.4541900000000  0.5516480000000 1.0
C      1  0.5117960000000  0.5337940000000  0.5613290000000 1.0
C      1  0.4876460000000  0.4322330000000  0.4853060000000 1.0
C      1  0.4863310000000  0.4922760000000  0.4312580000000 1.0
C      1  0.4886430000000  0.5643390000000  0.4705730000000 1.0
C      1  0.4873570000000  0.5454450000000  0.5512710000000 1.0
C      1  0.4881350000000  0.4652500000000  0.5618160000000 1.0
C      1  0.4876460000000  0.4330130000000  0.5140990000000 1.0
C      1  0.4873340000000  0.4919990000000  0.5717290000000 1.0
C      1  0.4877350000000  0.5622580000000  0.5278730000000 1.0
C      1  0.4882260000000  0.5473510000000  0.4476350000000 1.0
C      1  0.4876850000000  0.4644490000000  0.4379500000000 1.0
C      1  0.4647550000000  0.4512640000000  0.4466780000000 1.0
C      1  0.4645040000000  0.5345500000000  0.4401750000000 1.0
C      1  0.4638810000000  0.5642440000000  0.5127660000000 1.0
C      1  0.4638940000000  0.5070610000000  0.5700420000000 1.0
C      1  0.4637100000000  0.4409990000000  0.5269190000000 1.0
C      1  0.4647830000000  0.4535370000000  0.5518300000000 1.0
C      1  0.4631560000000  0.5318780000000  0.5571930000000 1.0
C      1  0.4652030000000  0.5686410000000  0.4852020000000 1.0
C      1  0.4627190000000  0.5067740000000  0.4367030000000 1.0
C      1  0.4635620000000  0.4391830000000  0.4720360000000 1.0
END
