TITL C-2323478-8180-10 35375.2196051124 125000 -373.172822881979 0 0 60 (C3) n - 1
REM
REM in /home/bkarasulu/CARBON/AIRSS/Generating-Clusters/LCBOP/Higher-Symm/Only-C60/SD-CG/FIRE-HFTN
REM
REM
REM
REM
REM
REM ./C.cell (50c204cfd26239f34c78669fe23a5462)
REM
REM compiler GCC version 9.2.1 20190827 (Red Hat 9.2.1-1)
REM options -cpp -mtune=generic -march=x86-64 -g -O0 -fpre-include=/usr/include/finclude/math-vector-fortran.h
REM seed 709161992 795080281 2012446141 1358213911 -1506951906 1155646831 1682992324 -34921724 1404374680 1876445768 1775146938 535854041 667242827 1520500102 -1883617430 -1825011556 -855513053 -111472555 2105773535 1465971796 -593718039 -351534667 -964107489 -1934595473 93932871 1507066211 -180971398 746488833 -279346907 492680306 1243190055 -731673722 831728347
REM
CELL 1.54180   50.00000   50.00000   50.00000   90.00000   90.00000   90.00000
LATT -1
SFAC C  
C      1  0.5324700000000  0.5220700000000  0.5475070000000 1.0
C      1  0.4645160000000  0.5168850000000  0.5473910000000 1.0
C      1  0.5029270000000  0.4611010000000  0.5473390000000 1.0
C      1  0.4306000000000  0.5343270000000  0.5195440000000 1.0
C      1  0.5049330000000  0.4228730000000  0.5196880000000 1.0
C      1  0.5644140000000  0.5428630000000  0.5196050000000 1.0
C      1  0.5395050000000  0.4552960000000  0.4616820000000 1.0
C      1  0.5189550000000  0.5565090000000  0.4616320000000 1.0
C      1  0.4415640000000  0.4881130000000  0.4616200000000 1.0
C      1  0.5271960000000  0.4912950000000  0.4339170000000 1.0
C      1  0.4939370000000  0.5278240000000  0.4338880000000 1.0
C      1  0.4789300000000  0.4807560000000  0.4339080000000 1.0
C      1  0.4965810000000  0.5268090000000  0.5141330000000 1.0
C      1  0.4786540000000  0.4838180000000  0.5137680000000 1.0
C      1  0.5248310000000  0.4897760000000  0.5138860000000 1.0
C      1  0.5008770000000  0.5804070000000  0.5317890000000 1.0
C      1  0.4298820000000  0.4606590000000  0.5318230000000 1.0
C      1  0.5692160000000  0.4589830000000  0.5318470000000 1.0
C      1  0.4800420000000  0.5080100000000  0.5684270000000 1.0
C      1  0.5023410000000  0.4791570000000  0.5682710000000 1.0
C      1  0.5173410000000  0.5123970000000  0.5684970000000 1.0
C      1  0.5216560000000  0.5188030000000  0.4335020000000 1.0
C      1  0.4728850000000  0.5092710000000  0.4334850000000 1.0
C      1  0.5055230000000  0.4718000000000  0.4335220000000 1.0
C      1  0.4795590000000  0.5774190000000  0.5481530000000 1.0
C      1  0.4430910000000  0.4437210000000  0.5482440000000 1.0
C      1  0.5773870000000  0.4789090000000  0.5481960000000 1.0
C      1  0.5143780000000  0.4332110000000  0.4948330000000 1.0
C      1  0.5506660000000  0.5458340000000  0.4947820000000 1.0
C      1  0.4349350000000  0.5209490000000  0.4947250000000 1.0
C      1  0.5215170000000  0.5166610000000  0.5216490000000 1.0
C      1  0.4749010000000  0.5104160000000  0.5215310000000 1.0
C      1  0.5036090000000  0.4732020000000  0.5214110000000 1.0
C      1  0.5545410000000  0.5266160000000  0.4720440000000 1.0
C      1  0.4496630000000  0.5338920000000  0.4719920000000 1.0
C      1  0.4958110000000  0.4394400000000  0.4720780000000 1.0
C      1  0.4323870000000  0.4911920000000  0.4894040000000 1.0
C      1  0.5414300000000  0.4458570000000  0.4894840000000 1.0
C      1  0.5261710000000  0.5629300000000  0.4894280000000 1.0
C      1  0.5727810000000  0.4829960000000  0.4912640000000 1.0
C      1  0.4783260000000  0.5715230000000  0.4911820000000 1.0
C      1  0.4489020000000  0.4454830000000  0.4912670000000 1.0
C      1  0.4462310000000  0.5385740000000  0.5432280000000 1.0
C      1  0.4933810000000  0.4343760000000  0.5432990000000 1.0
C      1  0.5603730000000  0.5271470000000  0.5432730000000 1.0
C      1  0.5039340000000  0.5740130000000  0.5044790000000 1.0
C      1  0.4339290000000  0.4664370000000  0.5045090000000 1.0
C      1  0.5621220000000  0.4595750000000  0.5045490000000 1.0
C      1  0.5475140000000  0.4817800000000  0.4521610000000 1.0
C      1  0.4920180000000  0.5501910000000  0.4521150000000 1.0
C      1  0.4605110000000  0.4679290000000  0.4521430000000 1.0
C      1  0.4564480000000  0.5637850000000  0.5509230000000 1.0
C      1  0.4664650000000  0.4305490000000  0.5510370000000 1.0
C      1  0.5771740000000  0.5057450000000  0.5509350000000 1.0
C      1  0.5127620000000  0.4499260000000  0.4509010000000 1.0
C      1  0.5369780000000  0.5360270000000  0.4508660000000 1.0
C      1  0.4503010000000  0.5139520000000  0.4508320000000 1.0
C      1  0.5613590000000  0.4986700000000  0.4708190000000 1.0
C      1  0.4704660000000  0.5537610000000  0.4707630000000 1.0
C      1  0.4682010000000  0.4475140000000  0.4708300000000 1.0
END
