TITL C-2323489-8765-423 4.36285238742345e-06 125000 -355.949881244691 0 0 60 (C2) n - 1
REM
REM in /home/bkarasulu/CARBON/AIRSS/Generating-Clusters/LCBOP/Higher-Symm/Only-C60/SD-CG/FIRE-HFTN
REM
REM
REM
REM
REM
REM ./C.cell (50c204cfd26239f34c78669fe23a5462)
REM
REM compiler GCC version 9.2.1 20190827 (Red Hat 9.2.1-1)
REM options -cpp -mtune=generic -march=x86-64 -g -O0 -fpre-include=/usr/include/finclude/math-vector-fortran.h
REM seed -1060130084 1351262367 401761446 1124505628 -1483187249 1108920303 -151128978 -1561373874 -100182675 640186508 -789323764 -161841103 487763084 1338700054 1937041952 -263770976 425028161 2041676857 -130754075 -1178072878 1465475454 -1326107914 1328386418 -223287641 -1468072593 2103028463 -1736630418 1832185927 145558141 318345169 -496376284 935980986 317121762
REM
CELL 1.54180   50.00000   50.00000   50.00000   90.00000   90.00000   90.00000
LATT -1
SFAC C  
C      1  0.4640840000000  0.4288220000000  0.4681380000000 1.0
C      1  0.4642730000000  0.5082090000000  0.5773210000000 1.0
C      1  0.4637780000000  0.5633050000000  0.4539960000000 1.0
C      1  0.5359150000000  0.4288220000000  0.5318640000000 1.0
C      1  0.5357270000000  0.5082070000000  0.4226790000000 1.0
C      1  0.5362230000000  0.5633050000000  0.5460030000000 1.0
C      1  0.5499320000000  0.5050220000000  0.4469010000000 1.0
C      1  0.5501090000000  0.4513220000000  0.5222800000000 1.0
C      1  0.5503070000000  0.5437580000000  0.5312000000000 1.0
C      1  0.4500680000000  0.5050240000000  0.5530990000000 1.0
C      1  0.4498900000000  0.4513220000000  0.4777200000000 1.0
C      1  0.4496940000000  0.5437580000000  0.4687990000000 1.0
C      1  0.4574170000000  0.4610470000000  0.5036120000000 1.0
C      1  0.4574470000000  0.5223590000000  0.5314840000000 1.0
C      1  0.4574040000000  0.5164900000000  0.4643780000000 1.0
C      1  0.5425820000000  0.4610460000000  0.4963890000000 1.0
C      1  0.5425530000000  0.5223580000000  0.4685150000000 1.0
C      1  0.5425960000000  0.5164900000000  0.5356210000000 1.0
C      1  0.4407190000000  0.4790590000000  0.5456520000000 1.0
C      1  0.4406370000000  0.5500760000000  0.4951610000000 1.0
C      1  0.4406510000000  0.4709990000000  0.4591760000000 1.0
C      1  0.5592810000000  0.4790570000000  0.4543480000000 1.0
C      1  0.5593640000000  0.5500750000000  0.5048380000000 1.0
C      1  0.5593490000000  0.4709990000000  0.5408250000000 1.0
C      1  0.4941840000000  0.5624210000000  0.4161570000000 1.0
C      1  0.4943080000000  0.3963680000000  0.4878980000000 1.0
C      1  0.4944480000000  0.5414070000000  0.5958710000000 1.0
C      1  0.5058170000000  0.5624230000000  0.5838420000000 1.0
C      1  0.5056900000000  0.3963680000000  0.5121050000000 1.0
C      1  0.5055530000000  0.5414040000000  0.4041290000000 1.0
C      1  0.4890370000000  0.5773550000000  0.5418520000000 1.0
C      1  0.4886960000000  0.4975480000000  0.4119380000000 1.0
C      1  0.4887720000000  0.4249510000000  0.5462160000000 1.0
C      1  0.5109650000000  0.5773540000000  0.4581460000000 1.0
C      1  0.5113040000000  0.4975490000000  0.5880620000000 1.0
C      1  0.5112270000000  0.4249500000000  0.4537850000000 1.0
C      1  0.5220160000000  0.5090840000000  0.5190910000000 1.0
C      1  0.5227500000000  0.5113830000000  0.4840090000000 1.0
C      1  0.5222400000000  0.4793490000000  0.4980100000000 1.0
C      1  0.4779840000000  0.5090840000000  0.4809090000000 1.0
C      1  0.4772500000000  0.5113840000000  0.5159910000000 1.0
C      1  0.4777600000000  0.4793490000000  0.5019910000000 1.0
C      1  0.4885370000000  0.5704330000000  0.4425440000000 1.0
C      1  0.4887510000000  0.4151720000000  0.4677000000000 1.0
C      1  0.4888780000000  0.5145550000000  0.5895220000000 1.0
C      1  0.5114640000000  0.5704340000000  0.5574540000000 1.0
C      1  0.5112470000000  0.4151730000000  0.5323010000000 1.0
C      1  0.5111220000000  0.5145530000000  0.4104780000000 1.0
C      1  0.5499590000000  0.5484140000000  0.4779080000000 1.0
C      1  0.5501870000000  0.4563620000000  0.4691370000000 1.0
C      1  0.5501840000000  0.4950900000000  0.5531290000000 1.0
C      1  0.4500420000000  0.5484160000000  0.5220910000000 1.0
C      1  0.4498120000000  0.4563630000000  0.5308640000000 1.0
C      1  0.4498160000000  0.4950900000000  0.4468710000000 1.0
C      1  0.5349600000000  0.5698500000000  0.4673520000000 1.0
C      1  0.5353160000000  0.4364960000000  0.4556910000000 1.0
C      1  0.5353560000000  0.4932950000000  0.5770790000000 1.0
C      1  0.4650410000000  0.5698520000000  0.5326470000000 1.0
C      1  0.4646820000000  0.4364980000000  0.5443100000000 1.0
C      1  0.4646440000000  0.4932940000000  0.4229210000000 1.0
END
