TITL C-2323481-8605-130 2.60483747677524e-05 125000 -349.04233781515 0 0 60 (C1) n - 1
REM
REM in /home/bkarasulu/CARBON/AIRSS/Generating-Clusters/LCBOP/Higher-Symm/Only-C60/SD-CG/FIRE-HFTN
REM
REM
REM
REM
REM
REM ./C.cell (50c204cfd26239f34c78669fe23a5462)
REM
REM compiler GCC version 9.2.1 20190827 (Red Hat 9.2.1-1)
REM options -cpp -mtune=generic -march=x86-64 -g -O0 -fpre-include=/usr/include/finclude/math-vector-fortran.h
REM seed -2054961677 -102063209 453459090 -1560621639 -1415875023 -1090249282 -1128691939 -2112427092 1600710934 1876005196 94423458 1772158562 1792906975 672353864 1484727632 485192098 832452481 813413559 801797411 -624975278 -1741474408 302250916 1178975132 1251783324 1135394830 595483710 -1847526572 -1161932026 -1474939750 1015406297 -1376186074 -2066653051 648252712
REM
CELL 1.54180   50.00000   50.00000   50.00000   90.00000   90.00000   90.00000
LATT -1
SFAC C  
C      1  0.4562740000000  0.4987840000000  0.4927560000000 1.0
C      1  0.4753890000000  0.5080610000000  0.4697360000000 1.0
C      1  0.5044560000000  0.5016180000000  0.4600250000000 1.0
C      1  0.5307770000000  0.4999420000000  0.4712570000000 1.0
C      1  0.5433100000000  0.5262020000000  0.5382750000000 1.0
C      1  0.5168400000000  0.5252800000000  0.5486790000000 1.0
C      1  0.4613250000000  0.5062270000000  0.5201850000000 1.0
C      1  0.4669850000000  0.5378280000000  0.5253570000000 1.0
C      1  0.4588260000000  0.5488620000000  0.4975150000000 1.0
C      1  0.4710990000000  0.5402430000000  0.4725700000000 1.0
C      1  0.5291160000000  0.5602450000000  0.4576280000000 1.0
C      1  0.5575570000000  0.5542190000000  0.4980650000000 1.0
C      1  0.5590700000000  0.5489250000000  0.5261140000000 1.0
C      1  0.4914450000000  0.5419440000000  0.5442840000000 1.0
C      1  0.5326580000000  0.4404820000000  0.4541710000000 1.0
C      1  0.5492330000000  0.4428140000000  0.5019410000000 1.0
C      1  0.5301130000000  0.4455870000000  0.5471760000000 1.0
C      1  0.4833680000000  0.4443700000000  0.5583930000000 1.0
C      1  0.4544790000000  0.4309430000000  0.5209520000000 1.0
C      1  0.4517100000000  0.4349470000000  0.4689270000000 1.0
C      1  0.4872060000000  0.4391280000000  0.4366270000000 1.0
C      1  0.5245010000000  0.5489280000000  0.4336420000000 1.0
C      1  0.5777110000000  0.5424200000000  0.4820080000000 1.0
C      1  0.5852480000000  0.5455390000000  0.5385080000000 1.0
C      1  0.4841220000000  0.5471760000000  0.5724350000000 1.0
C      1  0.4427830000000  0.5424820000000  0.5456550000000 1.0
C      1  0.4300270000000  0.5491210000000  0.4945320000000 1.0
C      1  0.4613760000000  0.5477090000000  0.4463650000000 1.0
C      1  0.4166590000000  0.5261370000000  0.4884610000000 1.0
C      1  0.4530390000000  0.5263500000000  0.4310810000000 1.0
C      1  0.5172650000000  0.5260710000000  0.4211640000000 1.0
C      1  0.5765400000000  0.5182810000000  0.4702370000000 1.0
C      1  0.5881480000000  0.5194590000000  0.5473290000000 1.0
C      1  0.4944570000000  0.5272790000000  0.5887950000000 1.0
C      1  0.4325040000000  0.5186350000000  0.5547160000000 1.0
C      1  0.4508850000000  0.4283040000000  0.4946990000000 1.0
C      1  0.4623870000000  0.4479830000000  0.4465370000000 1.0
C      1  0.5133570000000  0.4494090000000  0.4354620000000 1.0
C      1  0.5512130000000  0.4477760000000  0.4742050000000 1.0
C      1  0.5486250000000  0.4540950000000  0.5278530000000 1.0
C      1  0.5086480000000  0.4559360000000  0.5620920000000 1.0
C      1  0.4594140000000  0.4461660000000  0.5439420000000 1.0
C      1  0.5114530000000  0.4813540000000  0.5740980000000 1.0
C      1  0.4439520000000  0.4691940000000  0.5481690000000 1.0
C      1  0.4122260000000  0.4779790000000  0.4814810000000 1.0
C      1  0.4537100000000  0.4737050000000  0.4386570000000 1.0
C      1  0.5157050000000  0.4746200000000  0.4222720000000 1.0
C      1  0.5674390000000  0.4700050000000  0.4675550000000 1.0
C      1  0.5618800000000  0.4782000000000  0.5341730000000 1.0
C      1  0.5111830000000  0.5092880000000  0.5734210000000 1.0
C      1  0.4445700000000  0.4961340000000  0.5419360000000 1.0
C      1  0.4276770000000  0.4998850000000  0.4864350000000 1.0
C      1  0.4581970000000  0.5008290000000  0.4429160000000 1.0
C      1  0.5096150000000  0.5007660000000  0.4311370000000 1.0
C      1  0.5588430000000  0.4966630000000  0.4687990000000 1.0
C      1  0.5636300000000  0.5046150000000  0.5429120000000 1.0
C      1  0.5084850000000  0.5132180000000  0.5065980000000 1.0
C      1  0.5133970000000  0.5379020000000  0.4974400000000 1.0
C      1  0.5320050000000  0.5549820000000  0.4852770000000 1.0
C      1  0.5070620000000  0.4878360000000  0.5128840000000 1.0
END
