TITL C-2323486-8761-466 -0.0294382442592225 125000 -356.57303404984 0 0 60 (C1) n - 1
REM
REM in /home/bkarasulu/CARBON/AIRSS/Generating-Clusters/LCBOP/Higher-Symm/Only-C60/SD-CG/FIRE-HFTN
REM
REM
REM
REM
REM
REM ./C.cell (50c204cfd26239f34c78669fe23a5462)
REM
REM compiler GCC version 9.2.1 20190827 (Red Hat 9.2.1-1)
REM options -cpp -mtune=generic -march=x86-64 -g -O0 -fpre-include=/usr/include/finclude/math-vector-fortran.h
REM seed -623314256 -665329428 -1422141426 1361166554 719578146 -753146547 61181896 1274662979 420248188 -1357825610 1615415312 471039956 -185747090 -1000507132 30679953 -183524011 -1566156539 1267487682 1466520007 1407162843 250437387 178491529 1104758376 -1559766293 1207600818 -1661918166 -280039106 -1245087721 -624266055 -672649768 110518106 -258152246 131563238
REM
CELL 1.54180   50.00000   50.00000   50.00000   90.00000   90.00000   90.00000
LATT -1
SFAC C  
C      1  0.5619900000000  0.4945700000000  0.5224230000000 1.0
C      1  0.4946010000000  0.5251380000000  0.5502280000000 1.0
C      1  0.5298480000000  0.5750170000000  0.4917300000000 1.0
C      1  0.5587230000000  0.5121040000000  0.4758430000000 1.0
C      1  0.4487010000000  0.4893550000000  0.4759250000000 1.0
C      1  0.4339300000000  0.5029230000000  0.5267620000000 1.0
C      1  0.4908020000000  0.4712580000000  0.4289630000000 1.0
C      1  0.5114450000000  0.5293570000000  0.4384400000000 1.0
C      1  0.5066520000000  0.4711570000000  0.5559460000000 1.0
C      1  0.5243740000000  0.4264960000000  0.5082070000000 1.0
C      1  0.4716870000000  0.5696980000000  0.5084720000000 1.0
C      1  0.4700190000000  0.4330220000000  0.4917950000000 1.0
C      1  0.5756500000000  0.5304310000000  0.4916360000000 1.0
C      1  0.4956910000000  0.5606920000000  0.5211150000000 1.0
C      1  0.5259760000000  0.4935770000000  0.5513880000000 1.0
C      1  0.5706530000000  0.4715510000000  0.5075310000000 1.0
C      1  0.4338450000000  0.4699220000000  0.4912610000000 1.0
C      1  0.4268330000000  0.5244070000000  0.5077630000000 1.0
C      1  0.4897920000000  0.4474890000000  0.4765620000000 1.0
C      1  0.5025960000000  0.4332310000000  0.5276040000000 1.0
C      1  0.5108170000000  0.5649200000000  0.4715820000000 1.0
C      1  0.5263610000000  0.5073100000000  0.4289610000000 1.0
C      1  0.4716670000000  0.5069560000000  0.5550370000000 1.0
C      1  0.4725330000000  0.4915620000000  0.4286230000000 1.0
C      1  0.4821080000000  0.5582890000000  0.4635180000000 1.0
C      1  0.5567720000000  0.4623160000000  0.4835330000000 1.0
C      1  0.4592500000000  0.4803750000000  0.5648000000000 1.0
C      1  0.4759940000000  0.4314910000000  0.5413400000000 1.0
C      1  0.5214620000000  0.5633580000000  0.5374560000000 1.0
C      1  0.5148590000000  0.4422930000000  0.4620080000000 1.0
C      1  0.5648130000000  0.5427810000000  0.5169150000000 1.0
C      1  0.4357680000000  0.4567060000000  0.5181860000000 1.0
C      1  0.4401570000000  0.5359140000000  0.4832750000000 1.0
C      1  0.4632370000000  0.5165330000000  0.4402430000000 1.0
C      1  0.5356320000000  0.4832570000000  0.4418720000000 1.0
C      1  0.5408020000000  0.5195320000000  0.5582620000000 1.0
C      1  0.4797670000000  0.4593890000000  0.5652700000000 1.0
C      1  0.5544870000000  0.4849490000000  0.4642250000000 1.0
C      1  0.4613560000000  0.5576030000000  0.4841150000000 1.0
C      1  0.4831770000000  0.5370560000000  0.4424150000000 1.0
C      1  0.5200780000000  0.5403850000000  0.5579040000000 1.0
C      1  0.5160030000000  0.4620090000000  0.4404070000000 1.0
C      1  0.5640430000000  0.5210520000000  0.5375990000000 1.0
C      1  0.4435100000000  0.5148070000000  0.4621040000000 1.0
C      1  0.4317640000000  0.4766050000000  0.5406800000000 1.0
C      1  0.4564830000000  0.4355750000000  0.5184910000000 1.0
C      1  0.5359670000000  0.4399020000000  0.4833310000000 1.0
C      1  0.5427950000000  0.5640360000000  0.5164500000000 1.0
C      1  0.5029470000000  0.4626430000000  0.5271390000000 1.0
C      1  0.5330870000000  0.5241100000000  0.4807780000000 1.0
C      1  0.5239720000000  0.5413780000000  0.4611470000000 1.0
C      1  0.4634270000000  0.5028720000000  0.5261380000000 1.0
C      1  0.4762270000000  0.4946480000000  0.4842490000000 1.0
C      1  0.5161070000000  0.4755840000000  0.5051830000000 1.0
C      1  0.4956040000000  0.4748520000000  0.4849690000000 1.0
C      1  0.4771790000000  0.5153710000000  0.5040080000000 1.0
C      1  0.4968320000000  0.5306640000000  0.5184610000000 1.0
C      1  0.4749910000000  0.4745850000000  0.5231430000000 1.0
C      1  0.5223510000000  0.5201290000000  0.5067230000000 1.0
C      1  0.5318050000000  0.4948110000000  0.5198680000000 1.0
END
