TITL C-2323479-8056-31 -3.90678242097437e-07 125000 -385.192978687609 0 0 60 (C6) n - 1
REM
REM in /home/bkarasulu/CARBON/AIRSS/Generating-Clusters/LCBOP/Higher-Symm/Only-C60/SD-CG/FIRE-HFTN
REM
REM
REM
REM
REM
REM ./C.cell (50c204cfd26239f34c78669fe23a5462)
REM
REM compiler GCC version 9.2.1 20190827 (Red Hat 9.2.1-1)
REM options -cpp -mtune=generic -march=x86-64 -g -O0 -fpre-include=/usr/include/finclude/math-vector-fortran.h
REM seed -1903673147 -256743032 -333992265 1642223675 1110469598 838911666 1069416130 -873349255 -462576042 -290779806 -565855058 856251073 -1562547692 -1701344609 1899489967 769058557 459695640 -507198583 -728826689 2082404550 -931124417 1482693695 -589879304 -346490365 -576220071 1830917296 -433362038 1246902700 1408342495 -234512346 -1056327238 -1772639833 -1700616153
REM
CELL 1.54180   50.00000   50.00000   50.00000   90.00000   90.00000   90.00000
LATT -1
SFAC C  
C      1  0.4361330000000  0.5036420000000  0.5328840000000 1.0
C      1  0.4965450000000  0.5036430000000  0.5717520000000 1.0
C      1  0.5604110000000  0.5036440000000  0.5388690000000 1.0
C      1  0.5638670000000  0.5036440000000  0.4671160000000 1.0
C      1  0.5034550000000  0.5036430000000  0.4282480000000 1.0
C      1  0.4395890000000  0.5036420000000  0.4611310000000 1.0
C      1  0.5555360000000  0.5498000000000  0.4866840000000 1.0
C      1  0.5162370000000  0.5497990000000  0.4452460000000 1.0
C      1  0.4606990000000  0.5497980000000  0.4585610000000 1.0
C      1  0.4444620000000  0.5497980000000  0.5133150000000 1.0
C      1  0.4837620000000  0.5497990000000  0.5547540000000 1.0
C      1  0.5392990000000  0.5498000000000  0.5414390000000 1.0
C      1  0.4814930000000  0.5046760000000  0.5209150000000 1.0
C      1  0.5088590000000  0.5046770000000  0.5264850000000 1.0
C      1  0.5273660000000  0.5046770000000  0.5055700000000 1.0
C      1  0.5185070000000  0.5046770000000  0.4790850000000 1.0
C      1  0.4911410000000  0.5046760000000  0.4735150000000 1.0
C      1  0.4726340000000  0.5046760000000  0.4944300000000 1.0
C      1  0.5203510000000  0.5592320000000  0.5212700000000 1.0
C      1  0.5285950000000  0.5592320000000  0.4930100000000 1.0
C      1  0.5082440000000  0.5592310000000  0.4717400000000 1.0
C      1  0.4796480000000  0.5592310000000  0.4787300000000 1.0
C      1  0.4714030000000  0.5592310000000  0.5069900000000 1.0
C      1  0.4917550000000  0.5592310000000  0.5282600000000 1.0
C      1  0.4917150000000  0.4746670000000  0.5708460000000 1.0
C      1  0.5572120000000  0.4746680000000  0.5425980000000 1.0
C      1  0.5654970000000  0.4746680000000  0.4717520000000 1.0
C      1  0.5082850000000  0.4746670000000  0.4291540000000 1.0
C      1  0.4427880000000  0.4746660000000  0.4574020000000 1.0
C      1  0.4345030000000  0.4746670000000  0.5282480000000 1.0
C      1  0.5550500000000  0.4595550000000  0.5176470000000 1.0
C      1  0.5428070000000  0.4595540000000  0.4611490000000 1.0
C      1  0.4877580000000  0.4595540000000  0.4435030000000 1.0
C      1  0.4449520000000  0.4595530000000  0.4823540000000 1.0
C      1  0.4571940000000  0.4595530000000  0.5388510000000 1.0
C      1  0.5122430000000  0.4595540000000  0.5564970000000 1.0
C      1  0.5397260000000  0.4641760000000  0.5623360000000 1.0
C      1  0.5738480000000  0.4641760000000  0.4967650000000 1.0
C      1  0.5341220000000  0.4641750000000  0.4344290000000 1.0
C      1  0.4602750000000  0.4641750000000  0.4376640000000 1.0
C      1  0.4261530000000  0.4641740000000  0.5032350000000 1.0
C      1  0.4658790000000  0.4641750000000  0.5655710000000 1.0
C      1  0.4823440000000  0.5100530000000  0.4464970000000 1.0
C      1  0.4448370000000  0.5100520000000  0.4885390000000 1.0
C      1  0.4624930000000  0.5100530000000  0.5420420000000 1.0
C      1  0.5176550000000  0.5100530000000  0.5535030000000 1.0
C      1  0.5551630000000  0.5100540000000  0.5114610000000 1.0
C      1  0.5375070000000  0.5100530000000  0.4579580000000 1.0
C      1  0.5671760000000  0.5233150000000  0.4892700000000 1.0
C      1  0.5242950000000  0.5233140000000  0.4364580000000 1.0
C      1  0.4571190000000  0.5233140000000  0.4471880000000 1.0
C      1  0.4328230000000  0.5233130000000  0.5107300000000 1.0
C      1  0.4757040000000  0.5233140000000  0.5635420000000 1.0
C      1  0.5428810000000  0.5233150000000  0.5528120000000 1.0
C      1  0.4940150000000  0.4508860000000  0.4712130000000 1.0
C      1  0.4720780000000  0.4508860000000  0.4907900000000 1.0
C      1  0.4780630000000  0.4508860000000  0.5195770000000 1.0
C      1  0.5059860000000  0.4508870000000  0.5287870000000 1.0
C      1  0.5279240000000  0.4508870000000  0.5092100000000 1.0
C      1  0.5219380000000  0.4508870000000  0.4804230000000 1.0
END
