TITL C-2323489-8765-416 -4.61317367397145e-07 125000 -415.942885872526 0 0 60 (Ih) n - 1
REM
REM in /home/bkarasulu/CARBON/AIRSS/Generating-Clusters/LCBOP/Higher-Symm/Only-C60/SD-CG/FIRE-HFTN
REM
REM
REM
REM
REM
REM ./C.cell (50c204cfd26239f34c78669fe23a5462)
REM
REM compiler GCC version 9.2.1 20190827 (Red Hat 9.2.1-1)
REM options -cpp -mtune=generic -march=x86-64 -g -O0 -fpre-include=/usr/include/finclude/math-vector-fortran.h
REM seed -2046135078 438530505 -1111049988 -1008165952 619013029 -891163619 313484814 -2068618058 943637315 970853932 1211817160 -2005390323 2107871434 694743054 1974716299 762589087 1999191335 613184918 -2022196239 -636536742 832041341 -1552165993 -21504768 -688543390 -1957600220 1649083431 -1218051594 1476305989 -1325920675 512769336 -734955247 -2064025914 1689423092
REM
CELL 1.54180   50.00000   50.00000   50.00000   90.00000   90.00000   90.00000
LATT -1
SFAC C  
C      1  0.4713070000000  0.4764060000000  0.4390110000000 1.0
C      1  0.4390030000000  0.4713140000000  0.4764180000000 1.0
C      1  0.4764040000000  0.4390050000000  0.4713210000000 1.0
C      1  0.4713240000000  0.5235940000000  0.5609970000000 1.0
C      1  0.5286760000000  0.5235900000000  0.4390020000000 1.0
C      1  0.5286940000000  0.4764100000000  0.5609900000000 1.0
C      1  0.4390100000000  0.5286850000000  0.5236000000000 1.0
C      1  0.5609900000000  0.5286840000000  0.4763990000000 1.0
C      1  0.5609970000000  0.4713160000000  0.5235840000000 1.0
C      1  0.4764120000000  0.5609940000000  0.5286860000000 1.0
C      1  0.5235870000000  0.5609930000000  0.4713100000000 1.0
C      1  0.5235960000000  0.4390080000000  0.5286830000000 1.0
C      1  0.4535850000000  0.4477230000000  0.4854280000000 1.0
C      1  0.4477170000000  0.4854180000000  0.4535950000000 1.0
C      1  0.4854120000000  0.4535850000000  0.4477270000000 1.0
C      1  0.4535890000000  0.5522770000000  0.5145850000000 1.0
C      1  0.5464150000000  0.4477240000000  0.5145760000000 1.0
C      1  0.5464110000000  0.5522760000000  0.4854110000000 1.0
C      1  0.4477300000000  0.5145820000000  0.5464200000000 1.0
C      1  0.5522830000000  0.4854210000000  0.5464060000000 1.0
C      1  0.5522700000000  0.5145790000000  0.4535790000000 1.0
C      1  0.4854270000000  0.5464150000000  0.5522770000000 1.0
C      1  0.5145880000000  0.4535890000000  0.5522760000000 1.0
C      1  0.5145730000000  0.5464110000000  0.4477200000000 1.0
C      1  0.5522700000000  0.4854180000000  0.4535800000000 1.0
C      1  0.4535850000000  0.5522760000000  0.4854240000000 1.0
C      1  0.4854270000000  0.4535890000000  0.5522800000000 1.0
C      1  0.5522830000000  0.5145820000000  0.5464050000000 1.0
C      1  0.4477170000000  0.5145790000000  0.4535940000000 1.0
C      1  0.4477300000000  0.4854210000000  0.5464210000000 1.0
C      1  0.4535890000000  0.4477240000000  0.5145890000000 1.0
C      1  0.5464110000000  0.4477230000000  0.4854150000000 1.0
C      1  0.5464150000000  0.5522770000000  0.5145720000000 1.0
C      1  0.4854120000000  0.5464110000000  0.4477240000000 1.0
C      1  0.5145880000000  0.5464150000000  0.5522730000000 1.0
C      1  0.5145730000000  0.4535850000000  0.4477230000000 1.0
C      1  0.5609900000000  0.4713150000000  0.4764000000000 1.0
C      1  0.4713240000000  0.4764100000000  0.5609980000000 1.0
C      1  0.4764040000000  0.5609920000000  0.4713170000000 1.0
C      1  0.5609970000000  0.5286860000000  0.5235820000000 1.0
C      1  0.4390100000000  0.4713160000000  0.5236010000000 1.0
C      1  0.4390030000000  0.5286840000000  0.4764160000000 1.0
C      1  0.4713060000000  0.5235900000000  0.4390100000000 1.0
C      1  0.5286760000000  0.4764060000000  0.4390030000000 1.0
C      1  0.5286930000000  0.5235940000000  0.5609890000000 1.0
C      1  0.4764130000000  0.4390070000000  0.5286900000000 1.0
C      1  0.5235960000000  0.5609950000000  0.5286790000000 1.0
C      1  0.5235880000000  0.4390060000000  0.4713140000000 1.0
C      1  0.4859060000000  0.5000020000000  0.5700070000000 1.0
C      1  0.5700050000000  0.4858960000000  0.4999900000000 1.0
C      1  0.4999980000000  0.5700040000000  0.4858930000000 1.0
C      1  0.4858860000000  0.4999980000000  0.4299970000000 1.0
C      1  0.5141140000000  0.5000020000000  0.5700030000000 1.0
C      1  0.5140940000000  0.4999980000000  0.4299930000000 1.0
C      1  0.5700050000000  0.5141050000000  0.4999890000000 1.0
C      1  0.4299950000000  0.5141040000000  0.5000100000000 1.0
C      1  0.4299950000000  0.4858950000000  0.5000110000000 1.0
C      1  0.5000020000000  0.4299960000000  0.5141070000000 1.0
C      1  0.4999980000000  0.4299950000000  0.4858980000000 1.0
C      1  0.5000020000000  0.5700050000000  0.5141020000000 1.0
END
