TITL C-2323486-8761-59 3.64869277244593e-05 125000 -378.984719819476 0 0 60 (C1) n - 1
REM
REM in /home/bkarasulu/CARBON/AIRSS/Generating-Clusters/LCBOP/Higher-Symm/Only-C60/SD-CG/FIRE-HFTN
REM
REM
REM
REM
REM
REM ./C.cell (50c204cfd26239f34c78669fe23a5462)
REM
REM compiler GCC version 9.2.1 20190827 (Red Hat 9.2.1-1)
REM options -cpp -mtune=generic -march=x86-64 -g -O0 -fpre-include=/usr/include/finclude/math-vector-fortran.h
REM seed -146957600 666458123 -1649801461 -1840436317 -2069454924 1948203706 -285898601 -57789387 -409663653 1770167308 -787637601 -543642669 -434590683 -120060170 -1092215477 84332664 87764016 1496644623 462350072 1361766958 -2057721657 -2112096090 -1531606888 -397164794 -2001186284 -2027940156 -1137290181 -1629804400 507889032 -63820729 -919415350 1858283873 1389784651
REM
CELL 1.54180   50.00000   50.00000   50.00000   90.00000   90.00000   90.00000
LATT -1
SFAC C  
C      1  0.5513010000000  0.5118060000000  0.5483190000000 1.0
C      1  0.5573150000000  0.5116070000000  0.4662250000000 1.0
C      1  0.4845380000000  0.5110820000000  0.4360380000000 1.0
C      1  0.4350690000000  0.5212410000000  0.4885000000000 1.0
C      1  0.4696290000000  0.5127820000000  0.5666250000000 1.0
C      1  0.4516800000000  0.5188260000000  0.5452750000000 1.0
C      1  0.4337470000000  0.5104540000000  0.4622250000000 1.0
C      1  0.5126920000000  0.5112650000000  0.4312360000000 1.0
C      1  0.5665110000000  0.5124510000000  0.4934810000000 1.0
C      1  0.5267210000000  0.5113620000000  0.5629930000000 1.0
C      1  0.4596870000000  0.5112610000000  0.4994410000000 1.0
C      1  0.4829900000000  0.4861840000000  0.5642810000000 1.0
C      1  0.5607630000000  0.4874410000000  0.5361570000000 1.0
C      1  0.5485450000000  0.4865980000000  0.4543430000000 1.0
C      1  0.4708080000000  0.4856620000000  0.4411570000000 1.0
C      1  0.5684810000000  0.4879330000000  0.5086270000000 1.0
C      1  0.5120240000000  0.4864560000000  0.5661440000000 1.0
C      1  0.4566860000000  0.5004750000000  0.5245930000000 1.0
C      1  0.4476630000000  0.4841880000000  0.4592030000000 1.0
C      1  0.5272810000000  0.4867720000000  0.4351100000000 1.0
C      1  0.5128480000000  0.4637960000000  0.4293380000000 1.0
C      1  0.4475490000000  0.4611800000000  0.4780500000000 1.0
C      1  0.4531740000000  0.4731890000000  0.5278050000000 1.0
C      1  0.5260100000000  0.4625980000000  0.5600190000000 1.0
C      1  0.5674490000000  0.4646190000000  0.4932810000000 1.0
C      1  0.4854990000000  0.4620450000000  0.4357490000000 1.0
C      1  0.5538340000000  0.4628870000000  0.4688280000000 1.0
C      1  0.5513730000000  0.4640450000000  0.5481200000000 1.0
C      1  0.4712690000000  0.4639780000000  0.5480020000000 1.0
C      1  0.4394160000000  0.4624450000000  0.5055040000000 1.0
C      1  0.4858990000000  0.4403210000000  0.4554580000000 1.0
C      1  0.4682830000000  0.4211720000000  0.4964040000000 1.0
C      1  0.4858220000000  0.4400610000000  0.5414800000000 1.0
C      1  0.5334210000000  0.4347120000000  0.5263200000000 1.0
C      1  0.5352890000000  0.4407840000000  0.4737640000000 1.0
C      1  0.5132560000000  0.4358290000000  0.4582250000000 1.0
C      1  0.5406960000000  0.4347680000000  0.5004020000000 1.0
C      1  0.5136770000000  0.4409100000000  0.5448710000000 1.0
C      1  0.4751000000000  0.4222450000000  0.5223670000000 1.0
C      1  0.4653230000000  0.4385160000000  0.4741950000000 1.0
C      1  0.4699430000000  0.5352220000000  0.4421320000000 1.0
C      1  0.4244200000000  0.5380610000000  0.5094360000000 1.0
C      1  0.4856480000000  0.5344170000000  0.5742110000000 1.0
C      1  0.5593520000000  0.5353330000000  0.5358020000000 1.0
C      1  0.5462630000000  0.5356070000000  0.4558020000000 1.0
C      1  0.5276740000000  0.5342780000000  0.4345660000000 1.0
C      1  0.5623020000000  0.5364210000000  0.5079260000000 1.0
C      1  0.5124180000000  0.5355910000000  0.5656740000000 1.0
C      1  0.4412280000000  0.5431600000000  0.5332090000000 1.0
C      1  0.4418630000000  0.5300340000000  0.4429500000000 1.0
C      1  0.4670230000000  0.5702870000000  0.4778220000000 1.0
C      1  0.4610950000000  0.5638230000000  0.5297730000000 1.0
C      1  0.5109980000000  0.5568710000000  0.5453040000000 1.0
C      1  0.5408040000000  0.5553210000000  0.5005180000000 1.0
C      1  0.5091940000000  0.5595340000000  0.4594880000000 1.0
C      1  0.5327540000000  0.5550200000000  0.4737930000000 1.0
C      1  0.5296280000000  0.5604630000000  0.5255220000000 1.0
C      1  0.4837770000000  0.5631940000000  0.5460510000000 1.0
C      1  0.4626540000000  0.5750630000000  0.5038360000000 1.0
C      1  0.4816460000000  0.5563560000000  0.4580290000000 1.0
END
