TITL C-2323488-8613-233 44.3836426173358 125000 -362.910904422461 0 0 60 (C1) n - 1
REM
REM in /home/bkarasulu/CARBON/AIRSS/Generating-Clusters/LCBOP/Higher-Symm/Only-C60/SD-CG/FIRE-HFTN
REM
REM
REM
REM
REM
REM ./C.cell (50c204cfd26239f34c78669fe23a5462)
REM
REM compiler GCC version 9.2.1 20190827 (Red Hat 9.2.1-1)
REM options -cpp -mtune=generic -march=x86-64 -g -O0 -fpre-include=/usr/include/finclude/math-vector-fortran.h
REM seed 534178767 327879894 1361658080 -311812433 358797836 76434036 846634560 -789176506 1457500446 -538148696 1326820447 -452888514 -206811589 955499903 -910800446 -176187012 237557766 -224694442 -1628962796 -1877251109 -911073570 -854078318 -1651685475 2031319272 -1376215775 900016325 -232724597 -1297699865 -1096356371 1945575508 1983798992 646547244 -525892278
REM
CELL 1.54180   50.00000   50.00000   50.00000   90.00000   90.00000   90.00000
LATT -1
SFAC C  
C      1  0.4336720000000  0.4958520000000  0.4774920000000 1.0
C      1  0.3920350000000  0.4989860000000  0.4515790000000 1.0
C      1  0.4510440000000  0.4488360000000  0.4918790000000 1.0
C      1  0.5560380000000  0.4547050000000  0.6026000000000 1.0
C      1  0.6026300000000  0.4849650000000  0.5713410000000 1.0
C      1  0.5284860000000  0.4867700000000  0.5794610000000 1.0
C      1  0.4661970000000  0.5261020000000  0.5192690000000 1.0
C      1  0.3804250000000  0.5357770000000  0.5139170000000 1.0
C      1  0.5359620000000  0.5430110000000  0.5056210000000 1.0
C      1  0.5954280000000  0.5063390000000  0.4559550000000 1.0
C      1  0.6259830000000  0.5378540000000  0.4418570000000 1.0
C      1  0.3295420000000  0.4439670000000  0.4746120000000 1.0
C      1  0.6172950000000  0.5238750000000  0.4195730000000 1.0
C      1  0.6072450000000  0.5407370000000  0.4909220000000 1.0
C      1  0.5119640000000  0.5165730000000  0.4712640000000 1.0
C      1  0.3786400000000  0.5120300000000  0.4724580000000 1.0
C      1  0.5067420000000  0.5014930000000  0.5360230000000 1.0
C      1  0.3444820000000  0.4223150000000  0.4783760000000 1.0
C      1  0.5763380000000  0.4929300000000  0.4122860000000 1.0
C      1  0.4385730000000  0.5279040000000  0.5170590000000 1.0
C      1  0.5326380000000  0.5002150000000  0.5252590000000 1.0
C      1  0.4931850000000  0.5197390000000  0.5176770000000 1.0
C      1  0.5835300000000  0.5564360000000  0.4925500000000 1.0
C      1  0.5782860000000  0.4933700000000  0.5840100000000 1.0
C      1  0.5542620000000  0.4782830000000  0.5886360000000 1.0
C      1  0.5336540000000  0.4884300000000  0.4376140000000 1.0
C      1  0.4498990000000  0.4747540000000  0.4859090000000 1.0
C      1  0.4924330000000  0.5224260000000  0.4528010000000 1.0
C      1  0.4240280000000  0.5161130000000  0.4953800000000 1.0
C      1  0.3246470000000  0.4700770000000  0.4735550000000 1.0
C      1  0.5724040000000  0.5207510000000  0.5347320000000 1.0
C      1  0.3958430000000  0.5455360000000  0.5351190000000 1.0
C      1  0.5565360000000  0.5579050000000  0.4934110000000 1.0
C      1  0.3963570000000  0.5229890000000  0.4928500000000 1.0
C      1  0.6213370000000  0.5312180000000  0.5139100000000 1.0
C      1  0.4183820000000  0.4928030000000  0.4536470000000 1.0
C      1  0.5822480000000  0.4903500000000  0.4747480000000 1.0
C      1  0.4176770000000  0.4093790000000  0.4928880000000 1.0
C      1  0.5322330000000  0.4970260000000  0.4644930000000 1.0
C      1  0.5077260000000  0.4935100000000  0.5631840000000 1.0
C      1  0.5456050000000  0.5264630000000  0.5265080000000 1.0
C      1  0.3532520000000  0.5304470000000  0.5062270000000 1.0
C      1  0.5796110000000  0.5333030000000  0.5587700000000 1.0
C      1  0.4226850000000  0.5417220000000  0.5361410000000 1.0
C      1  0.5762220000000  0.5216770000000  0.5829780000000 1.0
C      1  0.4389740000000  0.4252410000000  0.4941920000000 1.0
C      1  0.5513550000000  0.4851300000000  0.5104030000000 1.0
C      1  0.3515090000000  0.5140320000000  0.4823110000000 1.0
C      1  0.5534920000000  0.4880230000000  0.4813690000000 1.0
C      1  0.5507350000000  0.4867440000000  0.4171070000000 1.0
C      1  0.5779600000000  0.4945270000000  0.5218290000000 1.0
C      1  0.6263800000000  0.5145250000000  0.5346670000000 1.0
C      1  0.3920350000000  0.4036390000000  0.4889160000000 1.0
C      1  0.3318220000000  0.4955760000000  0.4760030000000 1.0
C      1  0.3664160000000  0.4082640000000  0.4836070000000 1.0
C      1  0.5956450000000  0.4876190000000  0.5003740000000 1.0
C      1  0.5111410000000  0.5304400000000  0.4964350000000 1.0
C      1  0.6202000000000  0.4964390000000  0.5539290000000 1.0
C      1  0.5968710000000  0.5047970000000  0.4267460000000 1.0
C      1  0.6120650000000  0.5290580000000  0.4655710000000 1.0
END
