TITL C-2323485-8600-587 1.33461546875177 125000 -360.583381892335 0 0 60 (Cs) n - 1
REM
REM in /home/bkarasulu/CARBON/AIRSS/Generating-Clusters/LCBOP/Higher-Symm/Only-C60/SD-CG/FIRE-HFTN
REM
REM
REM
REM
REM
REM ./C.cell (50c204cfd26239f34c78669fe23a5462)
REM
REM compiler GCC version 9.2.1 20190827 (Red Hat 9.2.1-1)
REM options -cpp -mtune=generic -march=x86-64 -g -O0 -fpre-include=/usr/include/finclude/math-vector-fortran.h
REM seed -97641866 1621729747 -863957536 -290415794 -1919861867 1550528066 -89574507 -2136944199 508542466 1613278274 -1163086023 -224548036 -1161514511 1302911623 -1248991935 -1606344512 313547594 -247750385 -114374311 13008491 384215485 -1080734130 -1915475933 -1085034260 1522018497 1273772481 482410475 -1622172156 -2040035256 1410855469 1726228708 -2109164601 1418341565
REM
CELL 1.54180   50.00000   50.00000   50.00000   90.00000   90.00000   90.00000
LATT -1
SFAC C  
C      1  0.5097070000000  0.4867530000000  0.4841630000000 1.0
C      1  0.5097040000000  0.5132480000000  0.4841620000000 1.0
C      1  0.4362810000000  0.5762290000000  0.5344610000000 1.0
C      1  0.4362940000000  0.4237630000000  0.5344680000000 1.0
C      1  0.5325550000000  0.5511900000000  0.5031750000000 1.0
C      1  0.5325640000000  0.4488160000000  0.5031800000000 1.0
C      1  0.5746640000000  0.5280820000000  0.5233180000000 1.0
C      1  0.5746690000000  0.4719330000000  0.5233210000000 1.0
C      1  0.5004160000000  0.4863580000000  0.4063030000000 1.0
C      1  0.5004140000000  0.5136340000000  0.4063010000000 1.0
C      1  0.5078060000000  0.4863890000000  0.5708350000000 1.0
C      1  0.5078040000000  0.5136190000000  0.5708340000000 1.0
C      1  0.4690200000000  0.4368190000000  0.5009600000000 1.0
C      1  0.4690090000000  0.5631750000000  0.5009540000000 1.0
C      1  0.4801060000000  0.4482790000000  0.4301560000000 1.0
C      1  0.4800970000000  0.5517110000000  0.4301510000000 1.0
C      1  0.4839440000000  0.5615060000000  0.4545940000000 1.0
C      1  0.4839550000000  0.4384870000000  0.4546000000000 1.0
C      1  0.4675420000000  0.5146930000000  0.5423500000000 1.0
C      1  0.4675450000000  0.4853050000000  0.5423520000000 1.0
C      1  0.4883660000000  0.4431660000000  0.4818370000000 1.0
C      1  0.4883560000000  0.5568310000000  0.4818310000000 1.0
C      1  0.3942450000000  0.6311310000000  0.5736760000000 1.0
C      1  0.3942690000000  0.3688570000000  0.5736880000000 1.0
C      1  0.4476860000000  0.5292210000000  0.5278790000000 1.0
C      1  0.4476910000000  0.4707720000000  0.5278820000000 1.0
C      1  0.4082870000000  0.3871500000000  0.5605940000000 1.0
C      1  0.4082670000000  0.6128400000000  0.5605840000000 1.0
C      1  0.5919970000000  0.4590420000000  0.4623140000000 1.0
C      1  0.5919900000000  0.5409710000000  0.4623110000000 1.0
C      1  0.5766900000000  0.5345960000000  0.4412660000000 1.0
C      1  0.5766960000000  0.4654120000000  0.4412690000000 1.0
C      1  0.3804810000000  0.3508650000000  0.5865660000000 1.0
C      1  0.3804540000000  0.6491220000000  0.5865520000000 1.0
C      1  0.6298260000000  0.4863740000000  0.4767350000000 1.0
C      1  0.6298230000000  0.5136470000000  0.4767340000000 1.0
C      1  0.6055710000000  0.5273800000000  0.4827830000000 1.0
C      1  0.6055760000000  0.4726380000000  0.4827850000000 1.0
C      1  0.4223020000000  0.4054390000000  0.5475050000000 1.0
C      1  0.4222850000000  0.5945520000000  0.5474970000000 1.0
C      1  0.4776990000000  0.4709840000000  0.4142400000000 1.0
C      1  0.4776940000000  0.5290040000000  0.4142370000000 1.0
C      1  0.4536470000000  0.5136310000000  0.4133410000000 1.0
C      1  0.4536490000000  0.4863530000000  0.4133430000000 1.0
C      1  0.5903130000000  0.4853240000000  0.5034990000000 1.0
C      1  0.5903100000000  0.5146920000000  0.5034980000000 1.0
C      1  0.4884360000000  0.4729890000000  0.5572190000000 1.0
C      1  0.4884310000000  0.5270150000000  0.5572170000000 1.0
C      1  0.4508270000000  0.5565230000000  0.5211540000000 1.0
C      1  0.4508370000000  0.4434700000000  0.5211590000000 1.0
C      1  0.5556700000000  0.4529420000000  0.5157420000000 1.0
C      1  0.5556620000000  0.5470690000000  0.5157370000000 1.0
C      1  0.4263900000000  0.4864800000000  0.5179620000000 1.0
C      1  0.4263880000000  0.5135090000000  0.5179600000000 1.0
C      1  0.5104780000000  0.5407470000000  0.4895550000000 1.0
C      1  0.5104850000000  0.4592540000000  0.4895590000000 1.0
C      1  0.5721150000000  0.4864230000000  0.5476130000000 1.0
C      1  0.5721130000000  0.5135950000000  0.5476120000000 1.0
C      1  0.5669530000000  0.4866300000000  0.4282140000000 1.0
C      1  0.5669510000000  0.5133750000000  0.4282130000000 1.0
END
