TITL C-2323491-8878-550 0.00465799894594494 125000 -335.880963721982 0 0 60 (C1) n - 1
REM
REM in /home/bkarasulu/CARBON/AIRSS/Generating-Clusters/LCBOP/Higher-Symm/Only-C60/SD-CG/FIRE-HFTN
REM
REM
REM
REM
REM
REM ./C.cell (50c204cfd26239f34c78669fe23a5462)
REM
REM compiler GCC version 9.2.1 20190827 (Red Hat 9.2.1-1)
REM options -cpp -mtune=generic -march=x86-64 -g -O0 -fpre-include=/usr/include/finclude/math-vector-fortran.h
REM seed 1810128 -1640372737 941809265 -191673531 -1127174472 -18793826 1100487399 -267238811 -887201171 1128347238 622450443 1721481436 -1688264868 533866054 1064941347 47100042 1270357530 338520256 1548809462 -2015198022 -1371177632 -2000035153 -145614259 -1173767616 874010188 -1113796969 16589871 -493100953 -1272878755 -1835269090 -1809928617 -278118797 602836545
REM
CELL 1.54180   50.00000   50.00000   50.00000   90.00000   90.00000   90.00000
LATT -1
SFAC C  
C      1  0.4556920000000  0.5570300000000  0.5152810000000 1.0
C      1  0.5542550000000  0.5525410000000  0.5056610000000 1.0
C      1  0.5512800000000  0.4897400000000  0.5449400000000 1.0
C      1  0.4399950000000  0.4939870000000  0.5479370000000 1.0
C      1  0.4391910000000  0.5067720000000  0.4702760000000 1.0
C      1  0.5575230000000  0.5018730000000  0.4660040000000 1.0
C      1  0.5336000000000  0.5323570000000  0.4949930000000 1.0
C      1  0.4693610000000  0.5324360000000  0.5017490000000 1.0
C      1  0.5185190000000  0.5721630000000  0.4778910000000 1.0
C      1  0.4897970000000  0.5716840000000  0.4826860000000 1.0
C      1  0.4835570000000  0.4392900000000  0.5633550000000 1.0
C      1  0.5075750000000  0.4894000000000  0.6018780000000 1.0
C      1  0.5537080000000  0.4270430000000  0.5011480000000 1.0
C      1  0.4446010000000  0.4161060000000  0.4747660000000 1.0
C      1  0.5129520000000  0.5388340000000  0.5163730000000 1.0
C      1  0.4897030000000  0.5226380000000  0.5249690000000 1.0
C      1  0.4707430000000  0.4703400000000  0.4756290000000 1.0
C      1  0.5333010000000  0.4529720000000  0.4533120000000 1.0
C      1  0.4481690000000  0.5103040000000  0.4998480000000 1.0
C      1  0.5485540000000  0.5050550000000  0.4960420000000 1.0
C      1  0.4356600000000  0.5149890000000  0.5287850000000 1.0
C      1  0.5598500000000  0.5079930000000  0.5245310000000 1.0
C      1  0.5116190000000  0.4026640000000  0.5016840000000 1.0
C      1  0.4851360000000  0.4006720000000  0.4969230000000 1.0
C      1  0.4853630000000  0.5439750000000  0.4799930000000 1.0
C      1  0.5191690000000  0.5339980000000  0.4663080000000 1.0
C      1  0.4832250000000  0.4665450000000  0.5670910000000 1.0
C      1  0.5074920000000  0.4791450000000  0.5763480000000 1.0
C      1  0.5338110000000  0.4267870000000  0.4059060000000 1.0
C      1  0.5335050000000  0.4399580000000  0.4283910000000 1.0
C      1  0.4437630000000  0.5427290000000  0.5381260000000 1.0
C      1  0.5594990000000  0.5374920000000  0.5319840000000 1.0
C      1  0.4438500000000  0.4785250000000  0.4634070000000 1.0
C      1  0.5519510000000  0.4748560000000  0.4565810000000 1.0
C      1  0.4736800000000  0.5790040000000  0.5071090000000 1.0
C      1  0.5365310000000  0.5757880000000  0.5021860000000 1.0
C      1  0.5112990000000  0.4785710000000  0.5163770000000 1.0
C      1  0.4876900000000  0.4923690000000  0.5213390000000 1.0
C      1  0.4704320000000  0.4199930000000  0.4825090000000 1.0
C      1  0.5280450000000  0.4237170000000  0.4924880000000 1.0
C      1  0.4887920000000  0.5321960000000  0.5542660000000 1.0
C      1  0.5157120000000  0.5384200000000  0.5638170000000 1.0
C      1  0.4862910000000  0.4788380000000  0.4048310000000 1.0
C      1  0.4893340000000  0.4829900000000  0.4303850000000 1.0
C      1  0.4588710000000  0.4804280000000  0.5617870000000 1.0
C      1  0.5316480000000  0.4807620000000  0.5612260000000 1.0
C      1  0.4624050000000  0.5417840000000  0.5603700000000 1.0
C      1  0.5417910000000  0.5421580000000  0.5551030000000 1.0
C      1  0.4667270000000  0.4851050000000  0.5030710000000 1.0
C      1  0.5242060000000  0.4878800000000  0.4938060000000 1.0
C      1  0.5088880000000  0.4998920000000  0.4725000000000 1.0
C      1  0.4900060000000  0.4864530000000  0.4581350000000 1.0
C      1  0.4966730000000  0.5372580000000  0.4385550000000 1.0
C      1  0.4709860000000  0.5340350000000  0.4375970000000 1.0
C      1  0.5447780000000  0.5246160000000  0.4512570000000 1.0
C      1  0.4484850000000  0.5253130000000  0.4503030000000 1.0
C      1  0.4935790000000  0.5851300000000  0.5267930000000 1.0
C      1  0.5164820000000  0.5689440000000  0.5234770000000 1.0
C      1  0.5153170000000  0.4417100000000  0.4736030000000 1.0
C      1  0.4853820000000  0.4437540000000  0.4763140000000 1.0
END
