TITL C-2323492-8884-382 -4518.87682447192 125000 -362.752583025834 0 0 60 (C3) n - 1
REM
REM in /home/bkarasulu/CARBON/AIRSS/Generating-Clusters/LCBOP/Higher-Symm/Only-C60/SD-CG/FIRE-HFTN
REM
REM
REM
REM
REM
REM ./C.cell (50c204cfd26239f34c78669fe23a5462)
REM
REM compiler GCC version 9.2.1 20190827 (Red Hat 9.2.1-1)
REM options -cpp -mtune=generic -march=x86-64 -g -O0 -fpre-include=/usr/include/finclude/math-vector-fortran.h
REM seed 151953998 -1121782488 1018804725 1065609503 -1514656285 -577712999 1646405783 -2105645890 1824268664 1154035700 1901687034 939003579 -694965051 -481063659 1724654705 116490841 236936894 -2028310651 -1480416069 -1269501883 892227167 -1374288894 -627374872 -2055849822 2067027491 -811375883 1705619175 814065170 -1840879696 497144814 1639899982 -1419037666 1295626613
REM
CELL 1.54180   50.00000   50.00000   50.00000   90.00000   90.00000   90.00000
LATT -1
SFAC C  
C      1  0.4575190000000  0.4689900000000  0.4706620000000 1.0
C      1  0.4575270000000  0.5409870000000  0.4878000000000 1.0
C      1  0.4574440000000  0.4901220000000  0.5415940000000 1.0
C      1  0.4563990000000  0.4495970000000  0.5699210000000 1.0
C      1  0.4566520000000  0.4646550000000  0.4213930000000 1.0
C      1  0.4568350000000  0.5857580000000  0.5088200000000 1.0
C      1  0.5174280000000  0.4159470000000  0.4479000000000 1.0
C      1  0.5174390000000  0.5870660000000  0.4531910000000 1.0
C      1  0.5171890000000  0.4967640000000  0.5989920000000 1.0
C      1  0.5066730000000  0.4520450000000  0.5205380000000 1.0
C      1  0.5063210000000  0.5062410000000  0.4477110000000 1.0
C      1  0.5064940000000  0.5419850000000  0.5315250000000 1.0
C      1  0.5288870000000  0.5443280000000  0.5177010000000 1.0
C      1  0.5291450000000  0.4627520000000  0.5293910000000 1.0
C      1  0.5287500000000  0.4931370000000  0.4525220000000 1.0
C      1  0.5361330000000  0.4780940000000  0.5897670000000 1.0
C      1  0.5363540000000  0.4332560000000  0.4362940000000 1.0
C      1  0.5364270000000  0.5883260000000  0.4739370000000 1.0
C      1  0.5176110000000  0.4503210000000  0.3908760000000 1.0
C      1  0.5179240000000  0.6191030000000  0.5115670000000 1.0
C      1  0.5173520000000  0.4301900000000  0.5974540000000 1.0
C      1  0.4643890000000  0.5224460000000  0.4669020000000 1.0
C      1  0.4644410000000  0.5174490000000  0.5359660000000 1.0
C      1  0.4645190000000  0.4602270000000  0.4971490000000 1.0
C      1  0.4697540000000  0.4910880000000  0.5893490000000 1.0
C      1  0.4699910000000  0.4271490000000  0.4477040000000 1.0
C      1  0.4700110000000  0.5818460000000  0.4631290000000 1.0
C      1  0.4866260000000  0.5311090000000  0.5477960000000 1.0
C      1  0.4867730000000  0.4432530000000  0.5030890000000 1.0
C      1  0.4865010000000  0.5258120000000  0.4490570000000 1.0
C      1  0.5507710000000  0.5651300000000  0.4810030000000 1.0
C      1  0.5506710000000  0.4836050000000  0.5662810000000 1.0
C      1  0.5507610000000  0.4510250000000  0.4527390000000 1.0
C      1  0.4588790000000  0.4530390000000  0.4469210000000 1.0
C      1  0.4589460000000  0.5695270000000  0.4859350000000 1.0
C      1  0.4586800000000  0.4775130000000  0.5672720000000 1.0
C      1  0.4531420000000  0.5298740000000  0.5133640000000 1.0
C      1  0.4531200000000  0.4735180000000  0.5191970000000 1.0
C      1  0.4530620000000  0.4966710000000  0.4674800000000 1.0
C      1  0.5491800000000  0.5430970000000  0.4983890000000 1.0
C      1  0.5493470000000  0.4799520000000  0.5384400000000 1.0
C      1  0.5491770000000  0.4771090000000  0.4630990000000 1.0
C      1  0.5648020000000  0.4927650000000  0.5198380000000 1.0
C      1  0.5646650000000  0.4874570000000  0.4831670000000 1.0
C      1  0.5644670000000  0.5203970000000  0.4971140000000 1.0
C      1  0.4704240000000  0.4674110000000  0.3986560000000 1.0
C      1  0.4707150000000  0.6039770000000  0.5225910000000 1.0
C      1  0.4701490000000  0.4284760000000  0.5788110000000 1.0
C      1  0.4912390000000  0.5302390000000  0.5754400000000 1.0
C      1  0.4914090000000  0.4196900000000  0.4886120000000 1.0
C      1  0.4911460000000  0.5501740000000  0.4359750000000 1.0
C      1  0.4937060000000  0.4615420000000  0.3869660000000 1.0
C      1  0.4940510000000  0.6169430000000  0.5233150000000 1.0
C      1  0.4934390000000  0.4212270000000  0.5896830000000 1.0
C      1  0.4925350000000  0.4165850000000  0.4607650000000 1.0
C      1  0.4924620000000  0.5757770000000  0.4473350000000 1.0
C      1  0.4923210000000  0.5076420000000  0.5920090000000 1.0
C      1  0.5339690000000  0.6091000000000  0.4927170000000 1.0
C      1  0.5335010000000  0.4514340000000  0.5982750000000 1.0
C      1  0.5337590000000  0.4390600000000  0.4089110000000 1.0
END
