TITL C-2323484-8600-459 0.00508811943666561 125000 -346.886281691822 0 0 60 (C1) n - 1
REM
REM in /home/bkarasulu/CARBON/AIRSS/Generating-Clusters/LCBOP/Higher-Symm/Only-C60/SD-CG/FIRE-HFTN
REM
REM
REM
REM
REM
REM ./C.cell (50c204cfd26239f34c78669fe23a5462)
REM
REM compiler GCC version 9.2.1 20190827 (Red Hat 9.2.1-1)
REM options -cpp -mtune=generic -march=x86-64 -g -O0 -fpre-include=/usr/include/finclude/math-vector-fortran.h
REM seed -339015897 -747511665 -223551512 -1452736766 1273223411 -1064570622 1692266643 559117926 823524105 1431483730 -1798684839 -318292721 -1518610749 -1259714741 -28304690 -997763685 -121548922 151208973 1801815278 853444917 1333619140 411444843 -1856394098 -1079676488 -1310600296 -1593577728 903087266 -229742311 -454807134 1721992607 1770303081 -123843053 1778171949
REM
CELL 1.54180   50.00000   50.00000   50.00000   90.00000   90.00000   90.00000
LATT -1
SFAC C  
C      1  0.5157940000000  0.4486510000000  0.4622280000000 1.0
C      1  0.5143280000000  0.5530720000000  0.4607070000000 1.0
C      1  0.5016720000000  0.5979740000000  0.4763220000000 1.0
C      1  0.5107690000000  0.4000540000000  0.4653520000000 1.0
C      1  0.4553860000000  0.5375960000000  0.4601280000000 1.0
C      1  0.4473340000000  0.4692960000000  0.4593600000000 1.0
C      1  0.5575550000000  0.4740210000000  0.4860060000000 1.0
C      1  0.5562070000000  0.5307760000000  0.4865620000000 1.0
C      1  0.4740960000000  0.5257540000000  0.4425160000000 1.0
C      1  0.4708420000000  0.4764510000000  0.4455390000000 1.0
C      1  0.5212920000000  0.5301240000000  0.5511380000000 1.0
C      1  0.5255070000000  0.4715170000000  0.5528850000000 1.0
C      1  0.5024980000000  0.4281990000000  0.5041930000000 1.0
C      1  0.4808340000000  0.5580870000000  0.4960220000000 1.0
C      1  0.5408330000000  0.4611050000000  0.4668760000000 1.0
C      1  0.5403280000000  0.5444020000000  0.4673810000000 1.0
C      1  0.4557140000000  0.5472660000000  0.4867980000000 1.0
C      1  0.4291670000000  0.4740700000000  0.4784110000000 1.0
C      1  0.5067550000000  0.5201950000000  0.5046740000000 1.0
C      1  0.5044110000000  0.4756910000000  0.5063250000000 1.0
C      1  0.4947930000000  0.4619650000000  0.4488740000000 1.0
C      1  0.4992980000000  0.5383640000000  0.4419160000000 1.0
C      1  0.4990360000000  0.5708260000000  0.4776430000000 1.0
C      1  0.5096540000000  0.4247190000000  0.4769950000000 1.0
C      1  0.4390240000000  0.5343310000000  0.5057660000000 1.0
C      1  0.4239860000000  0.4886110000000  0.5004390000000 1.0
C      1  0.5430790000000  0.5428810000000  0.5372350000000 1.0
C      1  0.5477470000000  0.4602460000000  0.5375920000000 1.0
C      1  0.4745110000000  0.5263070000000  0.5601990000000 1.0
C      1  0.4778910000000  0.4701670000000  0.5618280000000 1.0
C      1  0.4941660000000  0.5420970000000  0.5452520000000 1.0
C      1  0.5000720000000  0.4556480000000  0.5492490000000 1.0
C      1  0.4615860000000  0.4733240000000  0.5849380000000 1.0
C      1  0.4587800000000  0.5226330000000  0.5835820000000 1.0
C      1  0.5588400000000  0.4606260000000  0.5121720000000 1.0
C      1  0.5557350000000  0.5431080000000  0.5128940000000 1.0
C      1  0.4934510000000  0.5423820000000  0.5159790000000 1.0
C      1  0.5007700000000  0.4508960000000  0.5204220000000 1.0
C      1  0.5480230000000  0.5011250000000  0.5232820000000 1.0
C      1  0.5893760000000  0.5044250000000  0.5814370000000 1.0
C      1  0.5933970000000  0.5040020000000  0.5537740000000 1.0
C      1  0.4651300000000  0.4991110000000  0.4021970000000 1.0
C      1  0.6186600000000  0.5049490000000  0.5433630000000 1.0
C      1  0.4652220000000  0.4976080000000  0.5227670000000 1.0
C      1  0.4808530000000  0.4898280000000  0.5015610000000 1.0
C      1  0.4534810000000  0.4978670000000  0.5940540000000 1.0
C      1  0.5759130000000  0.5048980000000  0.6322410000000 1.0
C      1  0.4387250000000  0.5005340000000  0.3931400000000 1.0
C      1  0.4701870000000  0.5005230000000  0.4301160000000 1.0
C      1  0.5144370000000  0.5003150000000  0.5541670000000 1.0
C      1  0.4816660000000  0.4982410000000  0.5494550000000 1.0
C      1  0.4858460000000  0.4963800000000  0.3845420000000 1.0
C      1  0.3875540000000  0.5030330000000  0.3795980000000 1.0
C      1  0.5234530000000  0.4982690000000  0.5094510000000 1.0
C      1  0.5711620000000  0.5025960000000  0.5368700000000 1.0
C      1  0.4395950000000  0.5073960000000  0.5148020000000 1.0
C      1  0.5828350000000  0.5046770000000  0.6071090000000 1.0
C      1  0.3623460000000  0.5042530000000  0.3730630000000 1.0
C      1  0.5634270000000  0.5026350000000  0.4821000000000 1.0
C      1  0.4131830000000  0.5017920000000  0.3862460000000 1.0
END
