TITL C-2323484-8600-579 17.0692073667733 125000 -352.868551995535 0 0 60 (C1) n - 1
REM
REM in /home/bkarasulu/CARBON/AIRSS/Generating-Clusters/LCBOP/Higher-Symm/Only-C60/SD-CG/FIRE-HFTN
REM
REM
REM
REM
REM
REM ./C.cell (50c204cfd26239f34c78669fe23a5462)
REM
REM compiler GCC version 9.2.1 20190827 (Red Hat 9.2.1-1)
REM options -cpp -mtune=generic -march=x86-64 -g -O0 -fpre-include=/usr/include/finclude/math-vector-fortran.h
REM seed 558861161 -1831899217 -955081179 2002355868 221789113 2028174052 595519258 1948739713 1537773141 -1489510847 1096724962 2125762220 1343235166 545696134 292145049 -1810980667 1183636014 -767010879 -987426407 -390089818 -1469221762 -1588528958 199515355 586717147 2044548905 -1746945663 1045375317 -235464037 -1647934094 569615474 -2130078568 1990626217 1120756441
REM
CELL 1.54180   50.00000   50.00000   50.00000   90.00000   90.00000   90.00000
LATT -1
SFAC C  
C      1  0.5426570000000  0.4988620000000  0.4552770000000 1.0
C      1  0.5440930000000  0.4909810000000  0.5443120000000 1.0
C      1  0.4789820000000  0.4782460000000  0.5062270000000 1.0
C      1  0.4811260000000  0.5281000000000  0.4905140000000 1.0
C      1  0.5007670000000  0.5680550000000  0.4655260000000 1.0
C      1  0.5025520000000  0.4353050000000  0.5383420000000 1.0
C      1  0.4431300000000  0.5052560000000  0.4874360000000 1.0
C      1  0.4476740000000  0.5065500000000  0.5184480000000 1.0
C      1  0.5309800000000  0.5434710000000  0.5543230000000 1.0
C      1  0.5219210000000  0.4516530000000  0.4435560000000 1.0
C      1  0.5163880000000  0.5058390000000  0.4513290000000 1.0
C      1  0.5161670000000  0.4898210000000  0.5442240000000 1.0
C      1  0.4990620000000  0.5353050000000  0.4215440000000 1.0
C      1  0.5028180000000  0.4622420000000  0.5803700000000 1.0
C      1  0.5056240000000  0.4885080000000  0.5707300000000 1.0
C      1  0.5086530000000  0.5082660000000  0.4228710000000 1.0
C      1  0.5099350000000  0.5116860000000  0.6140770000000 1.0
C      1  0.5100540000000  0.4812790000000  0.3816300000000 1.0
C      1  0.5185730000000  0.4742880000000  0.3029050000000 1.0
C      1  0.5140360000000  0.5090910000000  0.6934200000000 1.0
C      1  0.4563350000000  0.4536740000000  0.5371870000000 1.0
C      1  0.4529440000000  0.5595680000000  0.4729820000000 1.0
C      1  0.4964170000000  0.5464160000000  0.4476690000000 1.0
C      1  0.5063690000000  0.4397170000000  0.5659430000000 1.0
C      1  0.5126780000000  0.5099790000000  0.6669630000000 1.0
C      1  0.5157380000000  0.4766160000000  0.3291570000000 1.0
C      1  0.5095830000000  0.5364140000000  0.5715790000000 1.0
C      1  0.5017900000000  0.4616910000000  0.4263330000000 1.0
C      1  0.5223320000000  0.4424490000000  0.4701710000000 1.0
C      1  0.5308690000000  0.5562750000000  0.5291300000000 1.0
C      1  0.4987930000000  0.5232060000000  0.4670930000000 1.0
C      1  0.5040270000000  0.4865230000000  0.5178910000000 1.0
C      1  0.5153720000000  0.5082170000000  0.7194410000000 1.0
C      1  0.5213610000000  0.4719990000000  0.2770860000000 1.0
C      1  0.5264030000000  0.4867680000000  0.4990600000000 1.0
C      1  0.5368820000000  0.5147430000000  0.4987770000000 1.0
C      1  0.5187990000000  0.5821690000000  0.5287710000000 1.0
C      1  0.5070170000000  0.4188150000000  0.4744440000000 1.0
C      1  0.4572200000000  0.4800060000000  0.5264490000000 1.0
C      1  0.4537090000000  0.5309110000000  0.4773500000000 1.0
C      1  0.4848310000000  0.5474570000000  0.5638880000000 1.0
C      1  0.4754580000000  0.4591210000000  0.4360810000000 1.0
C      1  0.4708210000000  0.5264750000000  0.5187510000000 1.0
C      1  0.4622950000000  0.4823550000000  0.4813070000000 1.0
C      1  0.5330130000000  0.5437290000000  0.5030060000000 1.0
C      1  0.5290130000000  0.4571720000000  0.4942470000000 1.0
C      1  0.5113200000000  0.5108670000000  0.6405130000000 1.0
C      1  0.5129040000000  0.4789440000000  0.3554010000000 1.0
C      1  0.4757880000000  0.5774720000000  0.4772080000000 1.0
C      1  0.4747880000000  0.4325790000000  0.5302760000000 1.0
C      1  0.5069590000000  0.4838470000000  0.4090770000000 1.0
C      1  0.5083650000000  0.5121200000000  0.5863190000000 1.0
C      1  0.5227000000000  0.4416510000000  0.5186590000000 1.0
C      1  0.5239730000000  0.5619070000000  0.4819990000000 1.0
C      1  0.4624230000000  0.4675940000000  0.4577750000000 1.0
C      1  0.4724770000000  0.5437130000000  0.5405050000000 1.0
C      1  0.4791260000000  0.5943080000000  0.4995710000000 1.0
C      1  0.4706340000000  0.4148020000000  0.5088300000000 1.0
C      1  0.4978070000000  0.5957380000000  0.5189120000000 1.0
C      1  0.4854770000000  0.4091880000000  0.4871430000000 1.0
END
