TITL C-2323480-5884-576 32976.710600684 125000 -332.343875112992 0 0 60 (C1) n - 1
REM
REM in /home/bkarasulu/CARBON/AIRSS/Generating-Clusters/LCBOP/Higher-Symm/Only-C60/SD-CG/FIRE-HFTN
REM
REM
REM
REM
REM
REM ./C.cell (50c204cfd26239f34c78669fe23a5462)
REM
REM compiler GCC version 9.2.1 20190827 (Red Hat 9.2.1-1)
REM options -cpp -mtune=generic -march=x86-64 -g -O0 -fpre-include=/usr/include/finclude/math-vector-fortran.h
REM seed -1321146269 71678851 1540768001 -671825941 122452104 -2069653392 703465115 -480433547 -1989239392 1386753526 1708424511 511316920 461200943 1630207561 -1272198155 -1412993454 -727710893 -2079700126 -988619135 594488063 -1827189009 -1929729443 9947315 236698118 -1216264852 1555274336 957608907 -392004500 -447870856 1524573651 -360646286 1569802018 -489897582
REM
CELL 1.54180   50.00000   50.00000   50.00000   90.00000   90.00000   90.00000
LATT -1
SFAC C  
C      1  0.4434170000000  0.5306840000000  0.4466910000000 1.0
C      1  0.4855990000000  0.5295940000000  0.5759930000000 1.0
C      1  0.5752650000000  0.5312420000000  0.4768970000000 1.0
C      1  0.4290830000000  0.5126870000000  0.5435310000000 1.0
C      1  0.5735740000000  0.5104670000000  0.5401730000000 1.0
C      1  0.5021740000000  0.5056720000000  0.4191590000000 1.0
C      1  0.5078460000000  0.5428830000000  0.5283850000000 1.0
C      1  0.5267180000000  0.5514210000000  0.4811400000000 1.0
C      1  0.4713920000000  0.5412990000000  0.4910500000000 1.0
C      1  0.4747480000000  0.4629190000000  0.5509730000000 1.0
C      1  0.5578670000000  0.4647020000000  0.4931660000000 1.0
C      1  0.4658230000000  0.4603600000000  0.4496630000000 1.0
C      1  0.5431470000000  0.5130580000000  0.5094740000000 1.0
C      1  0.4829860000000  0.5077360000000  0.4564090000000 1.0
C      1  0.4696720000000  0.5089760000000  0.5284950000000 1.0
C      1  0.4754790000000  0.4976090000000  0.4148870000000 1.0
C      1  0.4410600000000  0.4994490000000  0.5661000000000 1.0
C      1  0.5874730000000  0.4990100000000  0.5180980000000 1.0
C      1  0.5214350000000  0.4932040000000  0.4773870000000 1.0
C      1  0.4560970000000  0.4909910000000  0.4864430000000 1.0
C      1  0.5102670000000  0.4940550000000  0.5392500000000 1.0
C      1  0.5194030000000  0.4756470000000  0.4549720000000 1.0
C      1  0.4441010000000  0.4748800000000  0.5036010000000 1.0
C      1  0.5314570000000  0.4771890000000  0.5431450000000 1.0
C      1  0.4619860000000  0.5156230000000  0.5795820000000 1.0
C      1  0.5903200000000  0.5166400000000  0.4947760000000 1.0
C      1  0.4538440000000  0.5166120000000  0.4245100000000 1.0
C      1  0.4697710000000  0.4493870000000  0.5019300000000 1.0
C      1  0.5180190000000  0.4509220000000  0.5230810000000 1.0
C      1  0.5121830000000  0.4508010000000  0.4706730000000 1.0
C      1  0.5143830000000  0.5134540000000  0.5181520000000 1.0
C      1  0.5013740000000  0.5045780000000  0.4928530000000 1.0
C      1  0.4744490000000  0.5089870000000  0.4993240000000 1.0
C      1  0.5245590000000  0.4957930000000  0.4330070000000 1.0
C      1  0.4232390000000  0.5023500000000  0.5173550000000 1.0
C      1  0.5516500000000  0.4988850000000  0.5552650000000 1.0
C      1  0.5345310000000  0.5204280000000  0.5680570000000 1.0
C      1  0.5421350000000  0.5178900000000  0.4427160000000 1.0
C      1  0.4234920000000  0.5226410000000  0.4948690000000 1.0
C      1  0.5807400000000  0.4712840000000  0.5124160000000 1.0
C      1  0.4715720000000  0.4688410000000  0.4204000000000 1.0
C      1  0.4470200000000  0.4709380000000  0.5622620000000 1.0
C      1  0.4826800000000  0.4473070000000  0.4737550000000 1.0
C      1  0.4870940000000  0.4484000000000  0.5255580000000 1.0
C      1  0.5300980000000  0.4489200000000  0.4963400000000 1.0
C      1  0.4765950000000  0.5513770000000  0.5206330000000 1.0
C      1  0.5319570000000  0.5557340000000  0.5117460000000 1.0
C      1  0.4987230000000  0.5478410000000  0.4716070000000 1.0
C      1  0.4642920000000  0.4880830000000  0.4607620000000 1.0
C      1  0.4837490000000  0.4904750000000  0.5439190000000 1.0
C      1  0.5463920000000  0.4926510000000  0.4903200000000 1.0
C      1  0.5488510000000  0.5362320000000  0.4650500000000 1.0
C      1  0.4429380000000  0.5370940000000  0.4762360000000 1.0
C      1  0.5100760000000  0.5357240000000  0.5610510000000 1.0
C      1  0.4882030000000  0.4490510000000  0.5744670000000 1.0
C      1  0.5707880000000  0.4530680000000  0.4682470000000 1.0
C      1  0.4401880000000  0.4441990000000  0.4487810000000 1.0
C      1  0.4580630000000  0.5344680000000  0.5352000000000 1.0
C      1  0.5540520000000  0.5370380000000  0.5202360000000 1.0
C      1  0.4939110000000  0.5305530000000  0.4497810000000 1.0
END
