TITL C-2323491-8878-467 0.0937621884224019 125000 -353.060423821011 0 0 60 (C1) n - 1
REM
REM in /home/bkarasulu/CARBON/AIRSS/Generating-Clusters/LCBOP/Higher-Symm/Only-C60/SD-CG/FIRE-HFTN
REM
REM
REM
REM
REM
REM ./C.cell (50c204cfd26239f34c78669fe23a5462)
REM
REM compiler GCC version 9.2.1 20190827 (Red Hat 9.2.1-1)
REM options -cpp -mtune=generic -march=x86-64 -g -O0 -fpre-include=/usr/include/finclude/math-vector-fortran.h
REM seed -1506772115 -1332416369 1386702506 372409456 -1701156388 -1898503751 -91109215 -1691873881 -1592650803 1158296337 856747858 1453262380 -1275187104 -1495997674 683413756 -605074463 585290853 413590682 -1441820614 -1154919218 165701235 733835418 -1972887970 -1598660696 -1200852359 -904663310 -1809592885 -1032216623 -520232458 1518721087 -1185096222 796277088 -1292731962
REM
CELL 1.54180   50.00000   50.00000   50.00000   90.00000   90.00000   90.00000
LATT -1
SFAC C  
C      1  0.4786530000000  0.4494670000000  0.4086990000000 1.0
C      1  0.4713050000000  0.5636700000000  0.4913780000000 1.0
C      1  0.5736450000000  0.5366280000000  0.5348420000000 1.0
C      1  0.4297380000000  0.5303630000000  0.4853420000000 1.0
C      1  0.3926130000000  0.5389380000000  0.4550920000000 1.0
C      1  0.5319110000000  0.5138560000000  0.4581910000000 1.0
C      1  0.3696050000000  0.5369740000000  0.5245730000000 1.0
C      1  0.5827040000000  0.4675980000000  0.5150200000000 1.0
C      1  0.5045010000000  0.5102540000000  0.4466980000000 1.0
C      1  0.5379470000000  0.4199890000000  0.5610250000000 1.0
C      1  0.4706580000000  0.5292720000000  0.4182160000000 1.0
C      1  0.5304180000000  0.5335760000000  0.4803210000000 1.0
C      1  0.4622160000000  0.4874200000000  0.4412730000000 1.0
C      1  0.5549410000000  0.4709160000000  0.4467780000000 1.0
C      1  0.5159880000000  0.4828180000000  0.5079660000000 1.0
C      1  0.5095190000000  0.5919990000000  0.4994520000000 1.0
C      1  0.5386770000000  0.4188650000000  0.5342420000000 1.0
C      1  0.5503410000000  0.5416800000000  0.5467230000000 1.0
C      1  0.4459280000000  0.4897000000000  0.4638560000000 1.0
C      1  0.5609810000000  0.5064360000000  0.4168770000000 1.0
C      1  0.5501130000000  0.5229660000000  0.4355940000000 1.0
C      1  0.5265520000000  0.4981530000000  0.6136310000000 1.0
C      1  0.4391790000000  0.5035860000000  0.4872100000000 1.0
C      1  0.4791740000000  0.5094660000000  0.4350170000000 1.0
C      1  0.4990250000000  0.5018110000000  0.5195230000000 1.0
C      1  0.5960710000000  0.4431260000000  0.5592430000000 1.0
C      1  0.3848190000000  0.5369760000000  0.5028930000000 1.0
C      1  0.5012160000000  0.4440980000000  0.3956120000000 1.0
C      1  0.4717470000000  0.4968490000000  0.5221550000000 1.0
C      1  0.3546880000000  0.5366260000000  0.5464800000000 1.0
C      1  0.5366180000000  0.4723380000000  0.6159250000000 1.0
C      1  0.4984900000000  0.5671080000000  0.4972080000000 1.0
C      1  0.5271380000000  0.4487090000000  0.3915040000000 1.0
C      1  0.4645000000000  0.4643440000000  0.4256500000000 1.0
C      1  0.5900920000000  0.4943890000000  0.5113490000000 1.0
C      1  0.5587360000000  0.4782770000000  0.4196160000000 1.0
C      1  0.3857480000000  0.5412830000000  0.4296110000000 1.0
C      1  0.5234640000000  0.5338020000000  0.5484580000000 1.0
C      1  0.3400480000000  0.5362400000000  0.5680480000000 1.0
C      1  0.5364820000000  0.4586850000000  0.5903460000000 1.0
C      1  0.5235540000000  0.4784780000000  0.5729220000000 1.0
C      1  0.4481500000000  0.5513000000000  0.4875730000000 1.0
C      1  0.5967770000000  0.4527410000000  0.5343260000000 1.0
C      1  0.5785660000000  0.4374760000000  0.5787340000000 1.0
C      1  0.5491610000000  0.4614780000000  0.3995050000000 1.0
C      1  0.5142130000000  0.5437880000000  0.5009200000000 1.0
C      1  0.5503930000000  0.4367080000000  0.5800610000000 1.0
C      1  0.5103720000000  0.5275230000000  0.5240410000000 1.0
C      1  0.5877070000000  0.5193830000000  0.5202140000000 1.0
C      1  0.4937090000000  0.5453850000000  0.5848680000000 1.0
C      1  0.5480240000000  0.4328180000000  0.5134450000000 1.0
C      1  0.5185090000000  0.5039820000000  0.5863100000000 1.0
C      1  0.4269900000000  0.4795870000000  0.5275960000000 1.0
C      1  0.5387700000000  0.4758150000000  0.4933030000000 1.0
C      1  0.5115570000000  0.5280020000000  0.5736190000000 1.0
C      1  0.5575170000000  0.4580560000000  0.5053630000000 1.0
C      1  0.3794860000000  0.5434220000000  0.4043960000000 1.0
C      1  0.4021960000000  0.5355150000000  0.4810930000000 1.0
C      1  0.5425260000000  0.4863210000000  0.4672860000000 1.0
C      1  0.4456360000000  0.4929700000000  0.5127890000000 1.0
END
