TITL C-2323491-8878-415 3.07890866725382e-05 125000 -355.563620500633 0 0 60 (C1) n - 1
REM
REM in /home/bkarasulu/CARBON/AIRSS/Generating-Clusters/LCBOP/Higher-Symm/Only-C60/SD-CG/FIRE-HFTN
REM
REM
REM
REM
REM
REM ./C.cell (50c204cfd26239f34c78669fe23a5462)
REM
REM compiler GCC version 9.2.1 20190827 (Red Hat 9.2.1-1)
REM options -cpp -mtune=generic -march=x86-64 -g -O0 -fpre-include=/usr/include/finclude/math-vector-fortran.h
REM seed 1274346605 1180220824 960174578 396480546 -1378239964 -811153596 610324579 1751683625 1622498546 1089679313 -164323570 2091818897 -414021277 -1325612862 -525549708 -835972733 -495958897 -947200760 -339354328 -1694138187 -474390986 -753306905 905480333 -1131596690 -715127982 94290491 271407378 1987171537 1416012434 2084321832 -242045552 714070605 -1596888375
REM
CELL 1.54180   50.00000   50.00000   50.00000   90.00000   90.00000   90.00000
LATT -1
SFAC C  
C      1  0.4592900000000  0.5287270000000  0.5485940000000 1.0
C      1  0.4611980000000  0.5265100000000  0.4505500000000 1.0
C      1  0.4603510000000  0.4452080000000  0.5001620000000 1.0
C      1  0.4865760000000  0.4626230000000  0.5723270000000 1.0
C      1  0.4851060000000  0.5822690000000  0.4962030000000 1.0
C      1  0.4831520000000  0.4562280000000  0.4286760000000 1.0
C      1  0.5514870000000  0.4541060000000  0.4301220000000 1.0
C      1  0.5545790000000  0.4652400000000  0.5664820000000 1.0
C      1  0.5524180000000  0.5756380000000  0.4966180000000 1.0
C      1  0.4664110000000  0.5663410000000  0.4813960000000 1.0
C      1  0.4647860000000  0.4507230000000  0.4500790000000 1.0
C      1  0.4666620000000  0.4825540000000  0.5675140000000 1.0
C      1  0.4399790000000  0.4651790000000  0.4487740000000 1.0
C      1  0.4418640000000  0.4729550000000  0.5565890000000 1.0
C      1  0.4412730000000  0.5611420000000  0.4945370000000 1.0
C      1  0.4348040000000  0.5164980000000  0.4473670000000 1.0
C      1  0.4346600000000  0.4466180000000  0.5125310000000 1.0
C      1  0.4333050000000  0.5368450000000  0.5397490000000 1.0
C      1  0.4778840000000  0.4579580000000  0.5189420000000 1.0
C      1  0.4765520000000  0.5399920000000  0.5285490000000 1.0
C      1  0.4784320000000  0.5036310000000  0.4510210000000 1.0
C      1  0.5471740000000  0.5195520000000  0.4435900000000 1.0
C      1  0.5439960000000  0.4365460000000  0.5115600000000 1.0
C      1  0.5422230000000  0.5486900000000  0.5541310000000 1.0
C      1  0.5233180000000  0.4622530000000  0.4700460000000 1.0
C      1  0.5254860000000  0.4982670000000  0.5441540000000 1.0
C      1  0.5227200000000  0.5371040000000  0.4868380000000 1.0
C      1  0.5060010000000  0.4736190000000  0.4280160000000 1.0
C      1  0.5078030000000  0.4547010000000  0.5549570000000 1.0
C      1  0.5059840000000  0.5730000000000  0.5134540000000 1.0
C      1  0.5597850000000  0.5147500000000  0.4675870000000 1.0
C      1  0.5546860000000  0.4609020000000  0.5050750000000 1.0
C      1  0.5568700000000  0.5334980000000  0.5366790000000 1.0
C      1  0.4975670000000  0.5573130000000  0.5358260000000 1.0
C      1  0.5009900000000  0.5011950000000  0.4339530000000 1.0
C      1  0.4998380000000  0.4439770000000  0.5296430000000 1.0
C      1  0.5059840000000  0.5157460000000  0.5581250000000 1.0
C      1  0.5069760000000  0.5394090000000  0.4623540000000 1.0
C      1  0.5054660000000  0.4420780000000  0.4816100000000 1.0
C      1  0.4772290000000  0.4849920000000  0.5200660000000 1.0
C      1  0.4770790000000  0.5265740000000  0.5049320000000 1.0
C      1  0.4785890000000  0.4899290000000  0.4745260000000 1.0
C      1  0.4298870000000  0.4591130000000  0.5364730000000 1.0
C      1  0.4288370000000  0.5505490000000  0.5163460000000 1.0
C      1  0.4286360000000  0.4898180000000  0.4471220000000 1.0
C      1  0.5281520000000  0.4630030000000  0.4421530000000 1.0
C      1  0.5302770000000  0.4722680000000  0.5549140000000 1.0
C      1  0.5284090000000  0.5620080000000  0.4997200000000 1.0
C      1  0.5188480000000  0.5227150000000  0.4408670000000 1.0
C      1  0.5157740000000  0.4334790000000  0.5083250000000 1.0
C      1  0.5140570000000  0.5443010000000  0.5553060000000 1.0
C      1  0.5741540000000  0.4466080000000  0.4196800000000 1.0
C      1  0.5778380000000  0.4590740000000  0.5764820000000 1.0
C      1  0.5753230000000  0.5875630000000  0.4931290000000 1.0
C      1  0.4757890000000  0.4416290000000  0.4756910000000 1.0
C      1  0.4764750000000  0.5095100000000  0.5624790000000 1.0
C      1  0.4777470000000  0.5476660000000  0.4619930000000 1.0
C      1  0.5434010000000  0.5114090000000  0.5242970000000 1.0
C      1  0.5412160000000  0.5099130000000  0.4923810000000 1.0
C      1  0.5386510000000  0.4782940000000  0.4887350000000 1.0
END
