TITL C-2323479-8056-220 -1.21356683960115e-07 125000 -296.364370417616 0 0 60 (D6h) n - 1
REM
REM in /home/bkarasulu/CARBON/AIRSS/Generating-Clusters/LCBOP/Higher-Symm/Only-C60/SD-CG/FIRE-HFTN
REM
REM
REM
REM
REM
REM ./C.cell (50c204cfd26239f34c78669fe23a5462)
REM
REM compiler GCC version 9.2.1 20190827 (Red Hat 9.2.1-1)
REM options -cpp -mtune=generic -march=x86-64 -g -O0 -fpre-include=/usr/include/finclude/math-vector-fortran.h
REM seed 1139605067 -890599615 1499903957 -1775202812 1003057644 1128130710 1530089927 243532488 279494307 458650365 -1651016001 -697750156 994776497 -1561624232 563888222 611975033 814624873 397458364 91065759 -118773983 229580411 1800961832 907814296 -1787730264 -1484072843 -1246434095 -653059263 -821161779 -988557162 1521467981 -453994691 -1967172323 -1365626403
REM
CELL 1.54180   50.00000   50.00000   50.00000   90.00000   90.00000   90.00000
LATT -1
SFAC C  
C      1  0.5155880000000  0.5269990000000  0.4679820000000 1.0
C      1  0.5155880000000  0.4730010000000  0.4679820000000 1.0
C      1  0.4688240000000  0.5000000000000  0.4679820000000 1.0
C      1  0.5155880000000  0.5269990000000  0.5320180000000 1.0
C      1  0.5155880000000  0.4730010000000  0.5320180000000 1.0
C      1  0.4688240000000  0.5000000000000  0.5320180000000 1.0
C      1  0.4844120000000  0.5269990000000  0.4679820000000 1.0
C      1  0.4844120000000  0.4730010000000  0.4679820000000 1.0
C      1  0.5311760000000  0.5000000000000  0.4679820000000 1.0
C      1  0.4844120000000  0.5269990000000  0.5320180000000 1.0
C      1  0.4844120000000  0.4730010000000  0.5320180000000 1.0
C      1  0.5311760000000  0.5000000000000  0.5320180000000 1.0
C      1  0.4559240000000  0.5000000000000  0.4380540000000 1.0
C      1  0.5220380000000  0.5381710000000  0.4380540000000 1.0
C      1  0.5220380000000  0.4618290000000  0.4380540000000 1.0
C      1  0.4559240000000  0.5000000000000  0.5619460000000 1.0
C      1  0.5220380000000  0.5381710000000  0.5619460000000 1.0
C      1  0.5220380000000  0.4618290000000  0.5619460000000 1.0
C      1  0.5440760000000  0.5000000000000  0.4380540000000 1.0
C      1  0.4779620000000  0.5381710000000  0.4380540000000 1.0
C      1  0.4779620000000  0.4618290000000  0.4380540000000 1.0
C      1  0.5440760000000  0.5000000000000  0.5619460000000 1.0
C      1  0.4779620000000  0.5381710000000  0.5619460000000 1.0
C      1  0.4779620000000  0.4618290000000  0.5619460000000 1.0
C      1  0.4421170000000  0.4508530000000  0.5252150000000 1.0
C      1  0.4863790000000  0.5747020000000  0.5252150000000 1.0
C      1  0.5715040000000  0.4744450000000  0.5252150000000 1.0
C      1  0.4421170000000  0.4508530000000  0.4747850000000 1.0
C      1  0.4863790000000  0.5747020000000  0.4747850000000 1.0
C      1  0.5715040000000  0.4744460000000  0.4747850000000 1.0
C      1  0.5578830000000  0.4508530000000  0.5252150000000 1.0
C      1  0.5136210000000  0.5747020000000  0.5252150000000 1.0
C      1  0.4284960000000  0.4744450000000  0.5252150000000 1.0
C      1  0.5578830000000  0.4508530000000  0.4747850000000 1.0
C      1  0.5136210000000  0.5747020000000  0.4747850000000 1.0
C      1  0.4284960000000  0.4744450000000  0.4747850000000 1.0
C      1  0.5715040000000  0.5255550000000  0.4747850000000 1.0
C      1  0.4863790000000  0.4252980000000  0.4747850000000 1.0
C      1  0.4421170000000  0.5491470000000  0.4747850000000 1.0
C      1  0.5715040000000  0.5255550000000  0.5252150000000 1.0
C      1  0.4863790000000  0.4252980000000  0.5252150000000 1.0
C      1  0.4421170000000  0.5491470000000  0.5252150000000 1.0
C      1  0.4284960000000  0.5255550000000  0.4747850000000 1.0
C      1  0.5136210000000  0.4252980000000  0.4747850000000 1.0
C      1  0.5578830000000  0.5491470000000  0.4747850000000 1.0
C      1  0.4284960000000  0.5255540000000  0.5252150000000 1.0
C      1  0.5136210000000  0.4252980000000  0.5252150000000 1.0
C      1  0.5578830000000  0.5491470000000  0.5252150000000 1.0
C      1  0.5292210000000  0.4493880000000  0.4846800000000 1.0
C      1  0.4415580000000  0.5000000000000  0.4846800000000 1.0
C      1  0.5292210000000  0.5506120000000  0.4846800000000 1.0
C      1  0.5292210000000  0.4493880000000  0.5153200000000 1.0
C      1  0.4415580000000  0.5000000000000  0.5153200000000 1.0
C      1  0.5292210000000  0.5506120000000  0.5153200000000 1.0
C      1  0.4707790000000  0.4493880000000  0.4846800000000 1.0
C      1  0.5584420000000  0.5000000000000  0.4846800000000 1.0
C      1  0.4707790000000  0.5506120000000  0.4846800000000 1.0
C      1  0.4707790000000  0.4493880000000  0.5153200000000 1.0
C      1  0.5584420000000  0.5000000000000  0.5153200000000 1.0
C      1  0.4707790000000  0.5506120000000  0.5153200000000 1.0
END
