TITL C-2323491-8878-212 -2998.83650659871 125000 -317.136412218623 0 0 60 (C3i) n - 1
REM
REM in /home/bkarasulu/CARBON/AIRSS/Generating-Clusters/LCBOP/Higher-Symm/Only-C60/SD-CG/FIRE-HFTN
REM
REM
REM
REM
REM
REM ./C.cell (50c204cfd26239f34c78669fe23a5462)
REM
REM compiler GCC version 9.2.1 20190827 (Red Hat 9.2.1-1)
REM options -cpp -mtune=generic -march=x86-64 -g -O0 -fpre-include=/usr/include/finclude/math-vector-fortran.h
REM seed -1101290519 1970332672 -1944902058 840195631 1199003601 -1820966759 701016818 1007646887 -280153259 -583565393 -780977629 2003576600 -2089505923 -1550021527 352996356 679010549 -1302909734 -126385733 -1500918833 809163033 -867271243 442664708 -112874554 1189977923 -425441884 2041719576 -1399319485 -1608764750 1462935966 1847029197 283072950 774929341 188195527
REM
CELL 1.54180   50.00000   50.00000   50.00000   90.00000   90.00000   90.00000
LATT -1
SFAC C  
C      1  0.4868900000000  0.4314220000000  0.4673960000000 1.0
C      1  0.5131100000000  0.4374750000000  0.5430890000000 1.0
C      1  0.4868900000000  0.5060530000000  0.5756920000000 1.0
C      1  0.5131100000000  0.5685780000000  0.5326040000000 1.0
C      1  0.4868900000000  0.5625250000000  0.4569110000000 1.0
C      1  0.5131100000000  0.4939470000000  0.4243080000000 1.0
C      1  0.5484100000000  0.5503030000000  0.4874700000000 1.0
C      1  0.4515900000000  0.5143000000000  0.4501720000000 1.0
C      1  0.5484100000000  0.4639970000000  0.4627020000000 1.0
C      1  0.4515900000000  0.4496970000000  0.5125300000000 1.0
C      1  0.5484100000000  0.4857000000000  0.5498280000000 1.0
C      1  0.4515900000000  0.5360030000000  0.5372980000000 1.0
C      1  0.4958790000000  0.4980110000000  0.5261140000000 1.0
C      1  0.5041210000000  0.5216210000000  0.5147790000000 1.0
C      1  0.4958790000000  0.5236100000000  0.4886660000000 1.0
C      1  0.5041210000000  0.5019890000000  0.4738860000000 1.0
C      1  0.4958790000000  0.4783790000000  0.4852210000000 1.0
C      1  0.5041210000000  0.4763900000000  0.5113340000000 1.0
C      1  0.5201150000000  0.4654740000000  0.5580270000000 1.0
C      1  0.4798850000000  0.5329900000000  0.5589140000000 1.0
C      1  0.5201150000000  0.5675160000000  0.5008870000000 1.0
C      1  0.4798850000000  0.5345260000000  0.4419730000000 1.0
C      1  0.5201150000000  0.4670100000000  0.4410860000000 1.0
C      1  0.4798850000000  0.4324840000000  0.4991130000000 1.0
C      1  0.4500410000000  0.4590520000000  0.5395110000000 1.0
C      1  0.5499590000000  0.5137440000000  0.5552180000000 1.0
C      1  0.4500410000000  0.5546920000000  0.5157060000000 1.0
C      1  0.5499590000000  0.5409480000000  0.4604890000000 1.0
C      1  0.4500410000000  0.4862560000000  0.4447820000000 1.0
C      1  0.5499590000000  0.4453080000000  0.4842940000000 1.0
C      1  0.5551800000000  0.4626740000000  0.5073650000000 1.0
C      1  0.4448200000000  0.4877150000000  0.5360070000000 1.0
C      1  0.5551800000000  0.5250410000000  0.5286430000000 1.0
C      1  0.4448200000000  0.5373260000000  0.4926350000000 1.0
C      1  0.5551800000000  0.5122850000000  0.4639930000000 1.0
C      1  0.4448200000000  0.4749590000000  0.4713570000000 1.0
C      1  0.4318200000000  0.5159550000000  0.4825950000000 1.0
C      1  0.5681800000000  0.4929040000000  0.4774800000000 1.0
C      1  0.4318200000000  0.4769490000000  0.4948850000000 1.0
C      1  0.5681800000000  0.4840450000000  0.5174050000000 1.0
C      1  0.4318200000000  0.5070960000000  0.5225200000000 1.0
C      1  0.5681800000000  0.5230510000000  0.5051150000000 1.0
C      1  0.4700030000000  0.5738780000000  0.5048420000000 1.0
C      1  0.5299970000000  0.5411320000000  0.4384410000000 1.0
C      1  0.4700040000000  0.4672540000000  0.4335990000000 1.0
C      1  0.5299970000000  0.4261220000000  0.4951580000000 1.0
C      1  0.4700030000000  0.4588680000000  0.5615590000000 1.0
C      1  0.5299960000000  0.5327460000000  0.5664010000000 1.0
C      1  0.4714410000000  0.4967700000000  0.5365190000000 1.0
C      1  0.5285590000000  0.5300110000000  0.5210560000000 1.0
C      1  0.4714410000000  0.5332410000000  0.4845380000000 1.0
C      1  0.5285590000000  0.5032300000000  0.4634810000000 1.0
C      1  0.4714410000000  0.4699890000000  0.4789440000000 1.0
C      1  0.5285590000000  0.4667590000000  0.5154620000000 1.0
C      1  0.5065980000000  0.4282450000000  0.5144260000000 1.0
C      1  0.4934020000000  0.4766160000000  0.5693550000000 1.0
C      1  0.5065980000000  0.5483710000000  0.5549290000000 1.0
C      1  0.4934020000000  0.5717550000000  0.4855740000000 1.0
C      1  0.5065980000000  0.5233840000000  0.4306450000000 1.0
C      1  0.4934020000000  0.4516290000000  0.4450710000000 1.0
END
