TITL C-2323484-8600-183 -9.00198407987832e-07 125000 -357.491311124649 0 0 60 (D3d) n - 1
REM
REM in /home/bkarasulu/CARBON/AIRSS/Generating-Clusters/LCBOP/Higher-Symm/Only-C60/SD-CG/FIRE-HFTN
REM
REM
REM
REM
REM
REM ./C.cell (50c204cfd26239f34c78669fe23a5462)
REM
REM compiler GCC version 9.2.1 20190827 (Red Hat 9.2.1-1)
REM options -cpp -mtune=generic -march=x86-64 -g -O0 -fpre-include=/usr/include/finclude/math-vector-fortran.h
REM seed -438474023 1353751338 -1741444437 1773555438 -1594547151 608281126 -226619639 -1633874043 -260675550 958303526 1399261641 -336069377 -1245629330 486221628 1878846117 1577823323 -1338137478 -1662944242 -656657778 87173118 2127821661 -1449010849 1402007022 473014374 -1386816387 392147048 456591925 -71532653 -1477917872 960932495 -1403907327 337573729 -1454818455
REM
CELL 1.54180   50.00000   50.00000   50.00000   90.00000   90.00000   90.00000
LATT -1
SFAC C  
C      1  0.5393960000000  0.4393110000000  0.5426140000000 1.0
C      1  0.4606040000000  0.4327510000000  0.4687490000000 1.0
C      1  0.5393950000000  0.4934390000000  0.4261350000000 1.0
C      1  0.4606040000000  0.5606890000000  0.4573860000000 1.0
C      1  0.5393960000000  0.5672490000000  0.5312510000000 1.0
C      1  0.4606050000000  0.5065610000000  0.5738650000000 1.0
C      1  0.4901190000000  0.5170930000000  0.4314650000000 1.0
C      1  0.5098810000000  0.5679000000000  0.4805360000000 1.0
C      1  0.4901190000000  0.5508060000000  0.5490710000000 1.0
C      1  0.5098810000000  0.4829070000000  0.5685350000000 1.0
C      1  0.4901190000000  0.4321000000000  0.5194640000000 1.0
C      1  0.5098810000000  0.4491940000000  0.4509290000000 1.0
C      1  0.4933560000000  0.5305480000000  0.4569260000000 1.0
C      1  0.5066440000000  0.5525780000000  0.5049180000000 1.0
C      1  0.4933560000000  0.5220290000000  0.5479930000000 1.0
C      1  0.5066440000000  0.4694520000000  0.5430740000000 1.0
C      1  0.4933560000000  0.4474220000000  0.4950820000000 1.0
C      1  0.5066440000000  0.4779710000000  0.4520070000000 1.0
C      1  0.5098800000000  0.4959140000000  0.4294840000000 1.0
C      1  0.4901190000000  0.5590260000000  0.4612030000000 1.0
C      1  0.5098810000000  0.5631120000000  0.5317190000000 1.0
C      1  0.4901200000000  0.5040860000000  0.5705160000000 1.0
C      1  0.5098810000000  0.4409740000000  0.5387970000000 1.0
C      1  0.4901190000000  0.4368880000000  0.4682810000000 1.0
C      1  0.4406660000000  0.4840550000000  0.5224840000000 1.0
C      1  0.5593340000000  0.4725560000000  0.4974330000000 1.0
C      1  0.4406660000000  0.4885010000000  0.4749490000000 1.0
C      1  0.5593340000000  0.5159450000000  0.4775160000000 1.0
C      1  0.4406660000000  0.5274440000000  0.5025670000000 1.0
C      1  0.5593340000000  0.5114990000000  0.5250510000000 1.0
C      1  0.4460520000000  0.4402810000000  0.4944140000000 1.0
C      1  0.5539480000000  0.4749780000000  0.4454880000000 1.0
C      1  0.4460520000000  0.5346970000000  0.4510750000000 1.0
C      1  0.5539480000000  0.5597190000000  0.5055860000000 1.0
C      1  0.4460520000000  0.5250220000000  0.5545120000000 1.0
C      1  0.5539480000000  0.4653030000000  0.5489250000000 1.0
C      1  0.5295710000000  0.5154640000000  0.4781960000000 1.0
C      1  0.4704290000000  0.5266150000000  0.5024900000000 1.0
C      1  0.5295710000000  0.5111510000000  0.5242940000000 1.0
C      1  0.4704290000000  0.4845360000000  0.5218040000000 1.0
C      1  0.5295710000000  0.4733850000000  0.4975100000000 1.0
C      1  0.4704290000000  0.4888490000000  0.4757060000000 1.0
C      1  0.4805880000000  0.5158210000000  0.4776920000000 1.0
C      1  0.5194120000000  0.5272300000000  0.5025470000000 1.0
C      1  0.4805880000000  0.5114090000000  0.5248550000000 1.0
C      1  0.5194120000000  0.4841790000000  0.5223080000000 1.0
C      1  0.4805880000000  0.4727700000000  0.4974530000000 1.0
C      1  0.5194120000000  0.4885910000000  0.4751450000000 1.0
C      1  0.5393950000000  0.4482680000000  0.4468690000000 1.0
C      1  0.4606040000000  0.5201460000000  0.4286330000000 1.0
C      1  0.5393950000000  0.5718790000000  0.4817640000000 1.0
C      1  0.4606050000000  0.5517320000000  0.5531310000000 1.0
C      1  0.5393960000000  0.4798540000000  0.5713670000000 1.0
C      1  0.4606050000000  0.4281210000000  0.5182360000000 1.0
C      1  0.5659780000000  0.4868220000000  0.4712900000000 1.0
C      1  0.4340220000000  0.5182740000000  0.4742330000000 1.0
C      1  0.5659780000000  0.5314530000000  0.5029420000000 1.0
C      1  0.4340220000000  0.5131780000000  0.5287100000000 1.0
C      1  0.5659780000000  0.4817260000000  0.5257670000000 1.0
C      1  0.4340220000000  0.4685470000000  0.4970580000000 1.0
END
