TITL C-2323486-8761-139 0.436532540083962 125000 -361.400402183483 0 0 60 (C1) n - 1
REM
REM in /home/bkarasulu/CARBON/AIRSS/Generating-Clusters/LCBOP/Higher-Symm/Only-C60/SD-CG/FIRE-HFTN
REM
REM
REM
REM
REM
REM ./C.cell (50c204cfd26239f34c78669fe23a5462)
REM
REM compiler GCC version 9.2.1 20190827 (Red Hat 9.2.1-1)
REM options -cpp -mtune=generic -march=x86-64 -g -O0 -fpre-include=/usr/include/finclude/math-vector-fortran.h
REM seed -1206629161 -2042935926 1588666527 1475213645 -133707365 -1759902771 1933060004 -1546657631 1985922069 1516597353 310505800 -1720899544 -301123119 -729447905 -1935167173 -1597980952 -1260435389 -859695704 -1391098425 387665041 2066842642 -58821212 450459087 123215979 1457433029 1473735140 -1767504591 2124394776 859963138 1524968747 911301504 -836877492 1863789009
REM
CELL 1.54180   50.00000   50.00000   50.00000   90.00000   90.00000   90.00000
LATT -1
SFAC C  
C      1  0.5305630000000  0.5386340000000  0.4706280000000 1.0
C      1  0.4841120000000  0.4551280000000  0.4555680000000 1.0
C      1  0.4630410000000  0.5681070000000  0.5003180000000 1.0
C      1  0.5371730000000  0.4374340000000  0.5164950000000 1.0
C      1  0.5472470000000  0.5612540000000  0.4761150000000 1.0
C      1  0.4765550000000  0.4273890000000  0.4529240000000 1.0
C      1  0.4886140000000  0.4354120000000  0.5264980000000 1.0
C      1  0.5000920000000  0.5620720000000  0.5323280000000 1.0
C      1  0.3588850000000  0.4984160000000  0.5649440000000 1.0
C      1  0.6201150000000  0.4992110000000  0.4909840000000 1.0
C      1  0.5161720000000  0.4368160000000  0.5359760000000 1.0
C      1  0.4716320000000  0.5621140000000  0.5274990000000 1.0
C      1  0.5265460000000  0.4783850000000  0.4517670000000 1.0
C      1  0.4948150000000  0.5244020000000  0.4419090000000 1.0
C      1  0.5075090000000  0.4679660000000  0.5779670000000 1.0
C      1  0.4617090000000  0.5298780000000  0.5676210000000 1.0
C      1  0.5111520000000  0.5498670000000  0.5556230000000 1.0
C      1  0.4716170000000  0.4546470000000  0.5396930000000 1.0
C      1  0.4569810000000  0.4985030000000  0.5223010000000 1.0
C      1  0.5242120000000  0.5015980000000  0.5340620000000 1.0
C      1  0.5631760000000  0.5018780000000  0.4278520000000 1.0
C      1  0.4602150000000  0.4970170000000  0.4199920000000 1.0
C      1  0.5761030000000  0.4970670000000  0.5195700000000 1.0
C      1  0.4071080000000  0.4986960000000  0.5440070000000 1.0
C      1  0.5449160000000  0.4501250000000  0.4934810000000 1.0
C      1  0.4658680000000  0.5624980000000  0.4731970000000 1.0
C      1  0.5304490000000  0.4703560000000  0.4794140000000 1.0
C      1  0.4785840000000  0.5389030000000  0.4619080000000 1.0
C      1  0.4758730000000  0.4146170000000  0.4776290000000 1.0
C      1  0.5384700000000  0.5737230000000  0.4990940000000 1.0
C      1  0.5511830000000  0.4963950000000  0.5285550000000 1.0
C      1  0.4317140000000  0.4990140000000  0.5342050000000 1.0
C      1  0.4859940000000  0.4583950000000  0.4848090000000 1.0
C      1  0.5111700000000  0.5356050000000  0.4932140000000 1.0
C      1  0.4612480000000  0.5111010000000  0.4972580000000 1.0
C      1  0.5036160000000  0.4870550000000  0.5206060000000 1.0
C      1  0.5989300000000  0.4981370000000  0.5061400000000 1.0
C      1  0.3827810000000  0.4985420000000  0.5545230000000 1.0
C      1  0.4909470000000  0.4884970000000  0.5838840000000 1.0
C      1  0.4742360000000  0.5093580000000  0.5799620000000 1.0
C      1  0.4849690000000  0.5243810000000  0.4874760000000 1.0
C      1  0.5065080000000  0.4756640000000  0.4946450000000 1.0
C      1  0.6381360000000  0.5025320000000  0.4028680000000 1.0
C      1  0.4391410000000  0.5093880000000  0.4795640000000 1.0
C      1  0.4518920000000  0.4473520000000  0.5570310000000 1.0
C      1  0.5150340000000  0.5632230000000  0.5790340000000 1.0
C      1  0.4857380000000  0.4987680000000  0.4315760000000 1.0
C      1  0.5389420000000  0.5017410000000  0.4412740000000 1.0
C      1  0.4823480000000  0.4327370000000  0.4990540000000 1.0
C      1  0.5162970000000  0.5592850000000  0.5099020000000 1.0
C      1  0.4279160000000  0.5045250000000  0.4558630000000 1.0
C      1  0.6131590000000  0.5023360000000  0.4103360000000 1.0
C      1  0.5878820000000  0.5021230000000  0.4183080000000 1.0
C      1  0.4357170000000  0.4993570000000  0.4307510000000 1.0
C      1  0.4989720000000  0.4749650000000  0.4417960000000 1.0
C      1  0.5235950000000  0.5251670000000  0.4470240000000 1.0
C      1  0.5184500000000  0.4492440000000  0.5617080000000 1.0
C      1  0.4576220000000  0.5483240000000  0.5481410000000 1.0
C      1  0.5188840000000  0.5230620000000  0.5515010000000 1.0
C      1  0.4774770000000  0.4816140000000  0.5316280000000 1.0
END
