TITL C-2323490-8774-501 18732.6184336152 125000 -342.215306863944 0 0 60 (C1) n - 1
REM
REM in /home/bkarasulu/CARBON/AIRSS/Generating-Clusters/LCBOP/Higher-Symm/Only-C60/SD-CG/FIRE-HFTN
REM
REM
REM
REM
REM
REM ./C.cell (50c204cfd26239f34c78669fe23a5462)
REM
REM compiler GCC version 9.2.1 20190827 (Red Hat 9.2.1-1)
REM options -cpp -mtune=generic -march=x86-64 -g -O0 -fpre-include=/usr/include/finclude/math-vector-fortran.h
REM seed 546045622 -642909319 -886982841 297373631 1474230342 731059916 876432776 1287089791 444705594 -45336373 -290867890 12090002 1098556510 585949000 -172714925 1761495216 -837273379 -894189464 1579137304 174781611 2138475650 -1752161644 -1899601723 -37923792 -317505614 -1059393494 -1879915967 1177609528 -590964637 -101651099 -1241848045 171422740 1417594291
REM
CELL 1.54180   50.00000   50.00000   50.00000   90.00000   90.00000   90.00000
LATT -1
SFAC C  
C      1  0.4427500000000  0.5344890000000  0.4730180000000 1.0
C      1  0.4716820000000  0.4476210000000  0.4740970000000 1.0
C      1  0.5519850000000  0.4692180000000  0.4720100000000 1.0
C      1  0.5288040000000  0.5566580000000  0.4726780000000 1.0
C      1  0.4607080000000  0.6250030000000  0.5044820000000 1.0
C      1  0.3738350000000  0.4671730000000  0.4925390000000 1.0
C      1  0.5373390000000  0.3760960000000  0.4979650000000 1.0
C      1  0.6270650000000  0.5334170000000  0.4997720000000 1.0
C      1  0.4546740000000  0.4737030000000  0.5434940000000 1.0
C      1  0.5271970000000  0.4542420000000  0.5446360000000 1.0
C      1  0.5456760000000  0.5264760000000  0.5413470000000 1.0
C      1  0.4755610000000  0.5440970000000  0.5435220000000 1.0
C      1  0.4847090000000  0.4851810000000  0.4413080000000 1.0
C      1  0.5068100000000  0.4667020000000  0.4372420000000 1.0
C      1  0.5230990000000  0.5122630000000  0.4546180000000 1.0
C      1  0.4954280000000  0.5109210000000  0.4488970000000 1.0
C      1  0.4649430000000  0.4406760000000  0.5038460000000 1.0
C      1  0.5576220000000  0.4645500000000  0.5019730000000 1.0
C      1  0.5340100000000  0.5599640000000  0.5023650000000 1.0
C      1  0.4424120000000  0.5358890000000  0.5040920000000 1.0
C      1  0.4767480000000  0.6049100000000  0.5002390000000 1.0
C      1  0.3951670000000  0.4821400000000  0.4925400000000 1.0
C      1  0.5212270000000  0.3965410000000  0.4967900000000 1.0
C      1  0.6057580000000  0.5188120000000  0.4963360000000 1.0
C      1  0.4841750000000  0.5214240000000  0.4752100000000 1.0
C      1  0.4797000000000  0.4956080000000  0.4888380000000 1.0
C      1  0.5045070000000  0.4845200000000  0.4917140000000 1.0
C      1  0.5238320000000  0.5006670000000  0.4815780000000 1.0
C      1  0.4520540000000  0.4622220000000  0.5171840000000 1.0
C      1  0.5358620000000  0.4536680000000  0.5167150000000 1.0
C      1  0.5454690000000  0.5369800000000  0.5143660000000 1.0
C      1  0.4677350000000  0.5436120000000  0.5159190000000 1.0
C      1  0.5246450000000  0.5403130000000  0.5553360000000 1.0
C      1  0.4607530000000  0.5228500000000  0.5561030000000 1.0
C      1  0.4773180000000  0.4611870000000  0.5562980000000 1.0
C      1  0.5410740000000  0.4772760000000  0.5555200000000 1.0
C      1  0.4184960000000  0.4970570000000  0.4929400000000 1.0
C      1  0.5052190000000  0.4192060000000  0.4959370000000 1.0
C      1  0.5823250000000  0.5042220000000  0.4932930000000 1.0
C      1  0.4928120000000  0.5825730000000  0.4963140000000 1.0
C      1  0.4885750000000  0.4292490000000  0.5184350000000 1.0
C      1  0.5700220000000  0.4882600000000  0.5150620000000 1.0
C      1  0.5107770000000  0.5711050000000  0.5171440000000 1.0
C      1  0.4300270000000  0.5118960000000  0.5168460000000 1.0
C      1  0.5555070000000  0.4981420000000  0.5407340000000 1.0
C      1  0.5030730000000  0.5555890000000  0.5428710000000 1.0
C      1  0.4450840000000  0.5021200000000  0.5423980000000 1.0
C      1  0.4982160000000  0.4448170000000  0.5437250000000 1.0
C      1  0.4588680000000  0.4838890000000  0.5008560000000 1.0
C      1  0.5123810000000  0.4625110000000  0.5044680000000 1.0
C      1  0.5391890000000  0.5145710000000  0.4992990000000 1.0
C      1  0.4908020000000  0.5358620000000  0.5007830000000 1.0
C      1  0.5013710000000  0.4364590000000  0.4719100000000 1.0
C      1  0.5672500000000  0.5024200000000  0.4683680000000 1.0
C      1  0.4944840000000  0.5676030000000  0.4707410000000 1.0
C      1  0.4370410000000  0.5019470000000  0.4679850000000 1.0
C      1  0.4688000000000  0.5443790000000  0.4642550000000 1.0
C      1  0.4596710000000  0.4760240000000  0.4560170000000 1.0
C      1  0.5225370000000  0.4540760000000  0.4584310000000 1.0
C      1  0.5451460000000  0.5289570000000  0.4566000000000 1.0
END
