TITL C-2323490-8774-492 -1107.90540745391 125000 -336.57384133571 0 0 60 (C1) n - 1
REM
REM in /home/bkarasulu/CARBON/AIRSS/Generating-Clusters/LCBOP/Higher-Symm/Only-C60/SD-CG/FIRE-HFTN
REM
REM
REM
REM
REM
REM ./C.cell (50c204cfd26239f34c78669fe23a5462)
REM
REM compiler GCC version 9.2.1 20190827 (Red Hat 9.2.1-1)
REM options -cpp -mtune=generic -march=x86-64 -g -O0 -fpre-include=/usr/include/finclude/math-vector-fortran.h
REM seed 1034966611 -400514170 470778905 1660082090 -1417173151 -175253485 1282756766 -1237400505 50193221 213741973 -1946690523 -658509100 1250700646 -1028707384 1142400457 11541348 1998612146 -1583054541 -1620084054 1127766652 441701095 1024561147 1493010333 1072491993 -192039794 -1301452957 -1725317836 2133019534 -985222537 587496680 411259491 1089799372 1870343081
REM
CELL 1.54180   50.00000   50.00000   50.00000   90.00000   90.00000   90.00000
LATT -1
SFAC C  
C      1  0.4666930000000  0.5325600000000  0.5739590000000 1.0
C      1  0.4684500000000  0.4193830000000  0.4909380000000 1.0
C      1  0.4666920000000  0.5480780000000  0.4352830000000 1.0
C      1  0.5467020000000  0.5449030000000  0.4953410000000 1.0
C      1  0.5429280000000  0.4803460000000  0.5439250000000 1.0
C      1  0.5428430000000  0.4721010000000  0.4611560000000 1.0
C      1  0.4267360000000  0.5216470000000  0.4435380000000 1.0
C      1  0.4268980000000  0.5384790000000  0.5466940000000 1.0
C      1  0.4278330000000  0.4392530000000  0.5087870000000 1.0
C      1  0.4835260000000  0.5043800000000  0.5290920000000 1.0
C      1  0.4834350000000  0.4728540000000  0.4891790000000 1.0
C      1  0.4839230000000  0.5234640000000  0.4822650000000 1.0
C      1  0.4661580000000  0.4981650000000  0.4273790000000 1.0
C      1  0.4663310000000  0.5643100000000  0.5347540000000 1.0
C      1  0.4667190000000  0.4377120000000  0.5379360000000 1.0
C      1  0.4903400000000  0.5555590000000  0.4518250000000 1.0
C      1  0.4902300000000  0.5144240000000  0.5721420000000 1.0
C      1  0.4918850000000  0.4306450000000  0.4763460000000 1.0
C      1  0.5643250000000  0.5268850000000  0.5629490000000 1.0
C      1  0.5654040000000  0.4388320000000  0.4957110000000 1.0
C      1  0.5639350000000  0.5359620000000  0.4416700000000 1.0
C      1  0.4582140000000  0.5053400000000  0.5199920000000 1.0
C      1  0.4582060000000  0.4805820000000  0.4945870000000 1.0
C      1  0.4586580000000  0.5146320000000  0.4847070000000 1.0
C      1  0.4719980000000  0.5252500000000  0.4173890000000 1.0
C      1  0.4720760000000  0.5594510000000  0.5632010000000 1.0
C      1  0.4734090000000  0.4155670000000  0.5197110000000 1.0
C      1  0.4394750000000  0.4451670000000  0.5330310000000 1.0
C      1  0.4389220000000  0.4979990000000  0.4363820000000 1.0
C      1  0.4391750000000  0.5565030000000  0.5298750000000 1.0
C      1  0.4395060000000  0.5258850000000  0.5676980000000 1.0
C      1  0.4411270000000  0.4275250000000  0.4877120000000 1.0
C      1  0.4394620000000  0.5460760000000  0.4440940000000 1.0
C      1  0.5271440000000  0.5263360000000  0.4960240000000 1.0
C      1  0.5266640000000  0.4907270000000  0.5250200000000 1.0
C      1  0.5265520000000  0.4835020000000  0.4794810000000 1.0
C      1  0.5081330000000  0.5093600000000  0.4457590000000 1.0
C      1  0.5084600000000  0.5428560000000  0.5353650000000 1.0
C      1  0.5085300000000  0.4485860000000  0.5194100000000 1.0
C      1  0.5121050000000  0.5105750000000  0.4754480000000 1.0
C      1  0.5120280000000  0.5165740000000  0.5213550000000 1.0
C      1  0.5116960000000  0.4739200000000  0.5037020000000 1.0
C      1  0.5814690000000  0.5164800000000  0.5451950000000 1.0
C      1  0.5804760000000  0.4609250000000  0.4984460000000 1.0
C      1  0.5803540000000  0.5204510000000  0.4560420000000 1.0
C      1  0.4892400000000  0.5587310000000  0.5174400000000 1.0
C      1  0.4891420000000  0.4561020000000  0.5420400000000 1.0
C      1  0.4890080000000  0.4859280000000  0.4409510000000 1.0
C      1  0.5395580000000  0.5323690000000  0.5717140000000 1.0
C      1  0.5420480000000  0.4255610000000  0.4931570000000 1.0
C      1  0.5394830000000  0.5448790000000  0.4350160000000 1.0
C      1  0.4874330000000  0.5522230000000  0.4822330000000 1.0
C      1  0.4871820000000  0.4898790000000  0.5539690000000 1.0
C      1  0.4876510000000  0.4586270000000  0.4641440000000 1.0
C      1  0.5126230000000  0.5334660000000  0.5633540000000 1.0
C      1  0.5142810000000  0.4294100000000  0.4974270000000 1.0
C      1  0.5124810000000  0.5381470000000  0.4395740000000 1.0
C      1  0.5880400000000  0.5036920000000  0.4754120000000 1.0
C      1  0.5890480000000  0.5022530000000  0.5238380000000 1.0
C      1  0.5869600000000  0.4885240000000  0.4992350000000 1.0
END
