TITL C-2323486-8761-540 3.55305595507397e-05 125000 -373.535308067317 0 0 60 (C1) n - 1
REM
REM in /home/bkarasulu/CARBON/AIRSS/Generating-Clusters/LCBOP/Higher-Symm/Only-C60/SD-CG/FIRE-HFTN
REM
REM
REM
REM
REM
REM ./C.cell (50c204cfd26239f34c78669fe23a5462)
REM
REM compiler GCC version 9.2.1 20190827 (Red Hat 9.2.1-1)
REM options -cpp -mtune=generic -march=x86-64 -g -O0 -fpre-include=/usr/include/finclude/math-vector-fortran.h
REM seed 251818112 818982991 -1751215144 -618170332 1077770173 982646279 -31281330 1814152772 2132571914 1912832379 -589693102 -355925044 1586856872 -922236307 146383680 -777695569 2072608224 960504740 -1884251803 -618331022 1410405460 804628508 -938006467 -1999101737 1198443659 2008837280 439474790 505561306 563168494 960775838 1029674441 -2044598539 558799745
REM
CELL 1.54180   50.00000   50.00000   50.00000   90.00000   90.00000   90.00000
LATT -1
SFAC C  
C      1  0.5575750000000  0.4796410000000  0.5023530000000 1.0
C      1  0.4826220000000  0.5710430000000  0.4677260000000 1.0
C      1  0.4771760000000  0.5028510000000  0.5529440000000 1.0
C      1  0.4325590000000  0.4710400000000  0.5125810000000 1.0
C      1  0.6147830000000  0.5275200000000  0.5107590000000 1.0
C      1  0.4258200000000  0.5331620000000  0.4842130000000 1.0
C      1  0.4890350000000  0.5493470000000  0.5212340000000 1.0
C      1  0.4891030000000  0.4336860000000  0.5351880000000 1.0
C      1  0.5224160000000  0.4337460000000  0.4773590000000 1.0
C      1  0.5313440000000  0.4997430000000  0.4488810000000 1.0
C      1  0.4675060000000  0.5160820000000  0.4290590000000 1.0
C      1  0.5371190000000  0.4795380000000  0.5628400000000 1.0
C      1  0.4842380000000  0.4762950000000  0.5612320000000 1.0
C      1  0.4598010000000  0.5705980000000  0.4856920000000 1.0
C      1  0.5497420000000  0.5061000000000  0.4943310000000 1.0
C      1  0.5201660000000  0.4740170000000  0.4436830000000 1.0
C      1  0.5416920000000  0.5075120000000  0.5616740000000 1.0
C      1  0.4887990000000  0.5345510000000  0.4335560000000 1.0
C      1  0.5119400000000  0.5496710000000  0.5034210000000 1.0
C      1  0.5353930000000  0.4353560000000  0.5027760000000 1.0
C      1  0.4677060000000  0.4314660000000  0.5166280000000 1.0
C      1  0.4346960000000  0.4957710000000  0.5269220000000 1.0
C      1  0.4257570000000  0.5158400000000  0.4614880000000 1.0
C      1  0.6238430000000  0.5023900000000  0.5073540000000 1.0
C      1  0.5309640000000  0.4139270000000  0.5209620000000 1.0
C      1  0.5126030000000  0.5325820000000  0.4182270000000 1.0
C      1  0.4116680000000  0.5125340000000  0.5257790000000 1.0
C      1  0.4747460000000  0.4206510000000  0.4915440000000 1.0
C      1  0.5204540000000  0.5763330000000  0.4957900000000 1.0
C      1  0.4629530000000  0.5870500000000  0.5092850000000 1.0
C      1  0.5218860000000  0.5258960000000  0.5634980000000 1.0
C      1  0.4962240000000  0.4725060000000  0.5871430000000 1.0
C      1  0.4961590000000  0.4737150000000  0.4288550000000 1.0
C      1  0.5654370000000  0.5276460000000  0.5036610000000 1.0
C      1  0.4173450000000  0.4894180000000  0.4666720000000 1.0
C      1  0.6103510000000  0.4796910000000  0.5023500000000 1.0
C      1  0.5086020000000  0.4130530000000  0.5363680000000 1.0
C      1  0.4067000000000  0.5291010000000  0.5048460000000 1.0
C      1  0.5333880000000  0.5172940000000  0.4266150000000 1.0
C      1  0.4971340000000  0.4210950000000  0.4767170000000 1.0
C      1  0.4790370000000  0.5755540000000  0.5285720000000 1.0
C      1  0.5045390000000  0.5878780000000  0.4763640000000 1.0
C      1  0.5897540000000  0.5372070000000  0.5093640000000 1.0
C      1  0.5847300000000  0.4724270000000  0.4998200000000 1.0
C      1  0.4204740000000  0.4723840000000  0.4870950000000 1.0
C      1  0.4950690000000  0.5229450000000  0.5623480000000 1.0
C      1  0.4755740000000  0.4897710000000  0.4228030000000 1.0
C      1  0.5237490000000  0.4712280000000  0.5871100000000 1.0
C      1  0.4925130000000  0.5449510000000  0.4595670000000 1.0
C      1  0.4980740000000  0.4596730000000  0.5422150000000 1.0
C      1  0.5295760000000  0.5117330000000  0.4749070000000 1.0
C      1  0.4597220000000  0.5092310000000  0.5311940000000 1.0
C      1  0.5400530000000  0.4611300000000  0.5147440000000 1.0
C      1  0.4450450000000  0.4473050000000  0.5200290000000 1.0
C      1  0.5104400000000  0.5326590000000  0.4796150000000 1.0
C      1  0.4503240000000  0.5440800000000  0.4930720000000 1.0
C      1  0.5291300000000  0.4509790000000  0.4564890000000 1.0
C      1  0.4418170000000  0.5208920000000  0.4391090000000 1.0
C      1  0.4666580000000  0.5316800000000  0.5143340000000 1.0
C      1  0.5262760000000  0.4668340000000  0.5390430000000 1.0
END
