TITL C-2323481-8605-592 3.22482101665566 125000 -363.607435652232 0 0 60 (C1) n - 1
REM
REM in /home/bkarasulu/CARBON/AIRSS/Generating-Clusters/LCBOP/Higher-Symm/Only-C60/SD-CG/FIRE-HFTN
REM
REM
REM
REM
REM
REM ./C.cell (50c204cfd26239f34c78669fe23a5462)
REM
REM compiler GCC version 9.2.1 20190827 (Red Hat 9.2.1-1)
REM options -cpp -mtune=generic -march=x86-64 -g -O0 -fpre-include=/usr/include/finclude/math-vector-fortran.h
REM seed 373874619 1855922383 1909997925 -135742084 -643046454 344489988 -2010193579 -401139134 250645147 -401418713 -206343641 -120235147 -790098792 -1277610659 33883314 -390121808 256433740 843601733 1033272773 1888363500 910031658 304781450 1222926744 -241080537 -906215319 150693239 -1421616528 -746147435 -794144298 1613015286 1609942518 -202637890 962103311
REM
CELL 1.54180   50.00000   50.00000   50.00000   90.00000   90.00000   90.00000
LATT -1
SFAC C  
C      1  0.5421940000000  0.5006430000000  0.4381210000000 1.0
C      1  0.4545100000000  0.4994090000000  0.5594340000000 1.0
C      1  0.4681420000000  0.5346400000000  0.4485220000000 1.0
C      1  0.5256940000000  0.4570430000000  0.5535510000000 1.0
C      1  0.5456580000000  0.5729340000000  0.4967540000000 1.0
C      1  0.4590210000000  0.4299190000000  0.4980920000000 1.0
C      1  0.4660810000000  0.5118230000000  0.4298480000000 1.0
C      1  0.5298830000000  0.4802530000000  0.5712130000000 1.0
C      1  0.5433690000000  0.4997300000000  0.4989680000000 1.0
C      1  0.4554530000000  0.4942950000000  0.5017170000000 1.0
C      1  0.5659580000000  0.4956210000000  0.4817340000000 1.0
C      1  0.4375620000000  0.5142610000000  0.5142610000000 1.0
C      1  0.5218910000000  0.6398220000000  0.5561510000000 1.0
C      1  0.4738180000000  0.3666700000000  0.4568400000000 1.0
C      1  0.5916290000000  0.5008600000000  0.4893570000000 1.0
C      1  0.4339940000000  0.5335840000000  0.4928190000000 1.0
C      1  0.5286160000000  0.5032500000000  0.5524650000000 1.0
C      1  0.4698300000000  0.4885430000000  0.4474590000000 1.0
C      1  0.4416190000000  0.4400700000000  0.5160840000000 1.0
C      1  0.5583020000000  0.5610030000000  0.4764490000000 1.0
C      1  0.5187010000000  0.5015660000000  0.4844120000000 1.0
C      1  0.4794500000000  0.4914240000000  0.5165810000000 1.0
C      1  0.4985560000000  0.4549120000000  0.5447220000000 1.0
C      1  0.4955380000000  0.5386110000000  0.4565880000000 1.0
C      1  0.5595120000000  0.5449680000000  0.4549390000000 1.0
C      1  0.4366780000000  0.4565300000000  0.5370460000000 1.0
C      1  0.5176370000000  0.4871860000000  0.4305610000000 1.0
C      1  0.4804030000000  0.5089230000000  0.5696290000000 1.0
C      1  0.5047620000000  0.5269450000000  0.4813070000000 1.0
C      1  0.4927640000000  0.4664360000000  0.5188980000000 1.0
C      1  0.5593930000000  0.4851780000000  0.4556210000000 1.0
C      1  0.4412530000000  0.5192110000000  0.5422850000000 1.0
C      1  0.4456130000000  0.5464620000000  0.5490710000000 1.0
C      1  0.5593680000000  0.4571180000000  0.4523740000000 1.0
C      1  0.5066940000000  0.4767850000000  0.4751200000000 1.0
C      1  0.4917190000000  0.5159170000000  0.5254710000000 1.0
C      1  0.5455470000000  0.4343480000000  0.4546260000000 1.0
C      1  0.4624870000000  0.5671100000000  0.5465290000000 1.0
C      1  0.4488920000000  0.5268340000000  0.4691850000000 1.0
C      1  0.5443160000000  0.4638800000000  0.5322320000000 1.0
C      1  0.4845020000000  0.5803060000000  0.5391670000000 1.0
C      1  0.5240800000000  0.4195840000000  0.4603990000000 1.0
C      1  0.5416620000000  0.5294790000000  0.4394630000000 1.0
C      1  0.4523960000000  0.4704550000000  0.5563150000000 1.0
C      1  0.5158770000000  0.5414330000000  0.4371410000000 1.0
C      1  0.4764630000000  0.4559280000000  0.5624960000000 1.0
C      1  0.5156120000000  0.6167610000000  0.5447170000000 1.0
C      1  0.4860280000000  0.3893710000000  0.4629620000000 1.0
C      1  0.5090640000000  0.5923920000000  0.5325850000000 1.0
C      1  0.4982010000000  0.4135050000000  0.4698190000000 1.0
C      1  0.4956040000000  0.5357960000000  0.5062750000000 1.0
C      1  0.4985960000000  0.4563160000000  0.4931940000000 1.0
C      1  0.5273620000000  0.5811200000000  0.5143880000000 1.0
C      1  0.4848210000000  0.4323750000000  0.4863060000000 1.0
C      1  0.5021660000000  0.5145630000000  0.5515410000000 1.0
C      1  0.4968150000000  0.4790750000000  0.4485620000000 1.0
C      1  0.5280830000000  0.6625130000000  0.5673940000000 1.0
C      1  0.4616960000000  0.3443700000000  0.4508900000000 1.0
C      1  0.5426600000000  0.4929940000000  0.5268010000000 1.0
C      1  0.4558060000000  0.4969460000000  0.4725520000000 1.0
END
