TITL C-2323486-8761-209 1.25981381171826e-06 125000 -371.406423848107 0 0 60 (D2h) n - 1
REM
REM in /home/bkarasulu/CARBON/AIRSS/Generating-Clusters/LCBOP/Higher-Symm/Only-C60/SD-CG/FIRE-HFTN
REM
REM
REM
REM
REM
REM ./C.cell (50c204cfd26239f34c78669fe23a5462)
REM
REM compiler GCC version 9.2.1 20190827 (Red Hat 9.2.1-1)
REM options -cpp -mtune=generic -march=x86-64 -g -O0 -fpre-include=/usr/include/finclude/math-vector-fortran.h
REM seed 1913625336 1054465334 -1606550760 -499508841 -406869192 -450741534 586440441 -481052504 -1939916336 -1000330070 -138316368 -1728087564 1479592532 459233367 1332938977 1245953647 1480620214 1168099003 -116835931 -1845152051 709887035 -683434946 -574957935 1713729822 -1192820358 1677632310 -1612794422 -190076600 30063730 -2060294948 -2106457050 -101040468 981961612
REM
CELL 1.54180   50.00000   50.00000   50.00000   90.00000   90.00000   90.00000
LATT -1
SFAC C  
C      1  0.4367980000000  0.5292510000000  0.4295150000000 1.0
C      1  0.5631950000000  0.4707500000000  0.4295080000000 1.0
C      1  0.4368050000000  0.5292500000000  0.5704920000000 1.0
C      1  0.5632020000000  0.4707490000000  0.5704850000000 1.0
C      1  0.5631950000000  0.5292510000000  0.4295080000000 1.0
C      1  0.4367980000000  0.4707490000000  0.4295150000000 1.0
C      1  0.5632020000000  0.5292510000000  0.5704850000000 1.0
C      1  0.4368050000000  0.4707490000000  0.5704920000000 1.0
C      1  0.4412010000000  0.5404450000000  0.4857380000000 1.0
C      1  0.5587970000000  0.4595550000000  0.4857310000000 1.0
C      1  0.4412030000000  0.5404450000000  0.5142690000000 1.0
C      1  0.5587990000000  0.4595550000000  0.5142620000000 1.0
C      1  0.5587970000000  0.5404460000000  0.4857320000000 1.0
C      1  0.4412020000000  0.4595540000000  0.4857370000000 1.0
C      1  0.5587980000000  0.5404460000000  0.5142630000000 1.0
C      1  0.4412030000000  0.4595540000000  0.5142680000000 1.0
C      1  0.5794750000000  0.4857780000000  0.4476050000000 1.0
C      1  0.4205200000000  0.5142220000000  0.4476130000000 1.0
C      1  0.5794800000000  0.4857780000000  0.5523870000000 1.0
C      1  0.4205250000000  0.5142220000000  0.5523950000000 1.0
C      1  0.4205200000000  0.4857770000000  0.4476130000000 1.0
C      1  0.5794750000000  0.5142230000000  0.4476050000000 1.0
C      1  0.4205250000000  0.4857770000000  0.5523950000000 1.0
C      1  0.5794800000000  0.5142230000000  0.5523870000000 1.0
C      1  0.4569900000000  0.5445380000000  0.4399380000000 1.0
C      1  0.5430030000000  0.4554630000000  0.4399330000000 1.0
C      1  0.4569970000000  0.5445370000000  0.5600670000000 1.0
C      1  0.5430100000000  0.4554620000000  0.5600620000000 1.0
C      1  0.5430030000000  0.5445380000000  0.4399330000000 1.0
C      1  0.4569910000000  0.4554620000000  0.4399380000000 1.0
C      1  0.5430090000000  0.5445380000000  0.5600620000000 1.0
C      1  0.4569970000000  0.4554620000000  0.5600670000000 1.0
C      1  0.5357330000000  0.5423380000000  0.5324220000000 1.0
C      1  0.4642700000000  0.4576620000000  0.5324250000000 1.0
C      1  0.5357300000000  0.5423380000000  0.4675750000000 1.0
C      1  0.4642670000000  0.4576620000000  0.4675780000000 1.0
C      1  0.4642700000000  0.5423380000000  0.5324250000000 1.0
C      1  0.5357340000000  0.4576620000000  0.5324220000000 1.0
C      1  0.4642660000000  0.5423380000000  0.4675780000000 1.0
C      1  0.5357300000000  0.4576620000000  0.4675750000000 1.0
C      1  0.4856970000000  0.4751230000000  0.4735940000000 1.0
C      1  0.5143000000000  0.5248770000000  0.4735930000000 1.0
C      1  0.4857000000000  0.4751230000000  0.5264070000000 1.0
C      1  0.5143030000000  0.5248770000000  0.5264060000000 1.0
C      1  0.5143000000000  0.4751230000000  0.4735930000000 1.0
C      1  0.4856970000000  0.5248770000000  0.4735940000000 1.0
C      1  0.5143030000000  0.4751230000000  0.5264060000000 1.0
C      1  0.4857000000000  0.5248770000000  0.5264070000000 1.0
C      1  0.4186290000000  0.4720350000000  0.4727310000000 1.0
C      1  0.5813680000000  0.5279650000000  0.4727230000000 1.0
C      1  0.4186320000000  0.4720350000000  0.5272770000000 1.0
C      1  0.5813710000000  0.5279650000000  0.5272690000000 1.0
C      1  0.5813690000000  0.4720360000000  0.4727230000000 1.0
C      1  0.4186290000000  0.5279640000000  0.4727310000000 1.0
C      1  0.5813710000000  0.4720360000000  0.5272690000000 1.0
C      1  0.4186310000000  0.5279640000000  0.5272770000000 1.0
C      1  0.5234770000000  0.5000000000000  0.5142580000000 1.0
C      1  0.4765240000000  0.5000000000000  0.5142600000000 1.0
C      1  0.5234760000000  0.5000000000000  0.4857400000000 1.0
C      1  0.4765230000000  0.5000000000000  0.4857420000000 1.0
END
