TITL C-2323479-8056-391 9.23319194753475e-06 125000 -355.644917049003 0 0 60 (C1) n - 1
REM
REM in /home/bkarasulu/CARBON/AIRSS/Generating-Clusters/LCBOP/Higher-Symm/Only-C60/SD-CG/FIRE-HFTN
REM
REM
REM
REM
REM
REM ./C.cell (50c204cfd26239f34c78669fe23a5462)
REM
REM compiler GCC version 9.2.1 20190827 (Red Hat 9.2.1-1)
REM options -cpp -mtune=generic -march=x86-64 -g -O0 -fpre-include=/usr/include/finclude/math-vector-fortran.h
REM seed 1808237851 232179781 -1356485834 -1804035631 715720280 -1115548829 -2061596845 1919200194 526523032 -820837688 1224097616 903891379 982295510 1203402172 2091104869 1648561193 -227189534 1845039247 -1231763962 -1280708317 -841595765 -2046727824 -1371121377 -1732112867 -1397102258 1524637253 -296291009 -1355208713 2050193089 461032120 1523819625 354450521 1748286600
REM
CELL 1.54180   50.00000   50.00000   50.00000   90.00000   90.00000   90.00000
LATT -1
SFAC C  
C      1  0.5166510000000  0.4996330000000  0.5762100000000 1.0
C      1  0.5217070000000  0.4318940000000  0.4713840000000 1.0
C      1  0.5135290000000  0.5556870000000  0.4526520000000 1.0
C      1  0.5292740000000  0.5062580000000  0.5297680000000 1.0
C      1  0.5238050000000  0.4774490000000  0.4938090000000 1.0
C      1  0.5315330000000  0.5223200000000  0.4891290000000 1.0
C      1  0.4464580000000  0.5253340000000  0.5686500000000 1.0
C      1  0.4479400000000  0.4394280000000  0.4764500000000 1.0
C      1  0.4418970000000  0.5444510000000  0.4626140000000 1.0
C      1  0.5077280000000  0.4353860000000  0.5284970000000 1.0
C      1  0.5103430000000  0.5006150000000  0.4311940000000 1.0
C      1  0.5110810000000  0.5591480000000  0.5326630000000 1.0
C      1  0.4345390000000  0.4985080000000  0.4515730000000 1.0
C      1  0.4397590000000  0.5406940000000  0.5244250000000 1.0
C      1  0.4376710000000  0.4635590000000  0.5177290000000 1.0
C      1  0.4916620000000  0.4210920000000  0.5097940000000 1.0
C      1  0.4900160000000  0.5209040000000  0.4269170000000 1.0
C      1  0.5030930000000  0.5487060000000  0.5595310000000 1.0
C      1  0.5162660000000  0.5694860000000  0.4804490000000 1.0
C      1  0.5168170000000  0.4705140000000  0.5677340000000 1.0
C      1  0.5258420000000  0.4529680000000  0.4484470000000 1.0
C      1  0.4750450000000  0.4448680000000  0.4709420000000 1.0
C      1  0.4695550000000  0.5440690000000  0.4671480000000 1.0
C      1  0.4709300000000  0.5130590000000  0.5612590000000 1.0
C      1  0.4988150000000  0.4880560000000  0.4841470000000 1.0
C      1  0.5031380000000  0.5160090000000  0.4872410000000 1.0
C      1  0.5027570000000  0.5003030000000  0.5285390000000 1.0
C      1  0.5496330000000  0.5126720000000  0.5466250000000 1.0
C      1  0.5482980000000  0.4649730000000  0.4856320000000 1.0
C      1  0.5494410000000  0.5399750000000  0.4751380000000 1.0
C      1  0.4829430000000  0.4728740000000  0.4624880000000 1.0
C      1  0.4817730000000  0.5370700000000  0.4940600000000 1.0
C      1  0.4724630000000  0.5040330000000  0.5321460000000 1.0
C      1  0.4970380000000  0.5211490000000  0.5694420000000 1.0
C      1  0.4952030000000  0.4284520000000  0.4821140000000 1.0
C      1  0.4887920000000  0.5428810000000  0.4458330000000 1.0
C      1  0.4318600000000  0.5393220000000  0.5504230000000 1.0
C      1  0.4326930000000  0.4473250000000  0.4970860000000 1.0
C      1  0.4262750000000  0.5237240000000  0.4555340000000 1.0
C      1  0.4750930000000  0.4007890000000  0.5174570000000 1.0
C      1  0.4739520000000  0.5203450000000  0.4047590000000 1.0
C      1  0.5003320000000  0.5684670000000  0.5790030000000 1.0
C      1  0.4628020000000  0.5272230000000  0.5145890000000 1.0
C      1  0.4556250000000  0.4802200000000  0.5280450000000 1.0
C      1  0.4576860000000  0.4854020000000  0.4532270000000 1.0
C      1  0.5367270000000  0.5117400000000  0.4367860000000 1.0
C      1  0.5372700000000  0.5713260000000  0.5330400000000 1.0
C      1  0.5362070000000  0.4349270000000  0.5216050000000 1.0
C      1  0.5435010000000  0.5100930000000  0.5731600000000 1.0
C      1  0.5420230000000  0.4373480000000  0.4932050000000 1.0
C      1  0.5378130000000  0.5384640000000  0.4480060000000 1.0
C      1  0.5455540000000  0.5665430000000  0.4860750000000 1.0
C      1  0.5434920000000  0.4584380000000  0.5649510000000 1.0
C      1  0.5507780000000  0.4675910000000  0.4568010000000 1.0
C      1  0.5004100000000  0.4532630000000  0.5503530000000 1.0
C      1  0.5048690000000  0.4726980000000  0.4407400000000 1.0
C      1  0.4998110000000  0.5598750000000  0.5043820000000 1.0
C      1  0.5534920000000  0.5749400000000  0.5116450000000 1.0
C      1  0.5522070000000  0.4436510000000  0.5435510000000 1.0
C      1  0.5560910000000  0.4918090000000  0.4432040000000 1.0
END
