TITL C-2323485-8600-516 0.0654569972733663 125000 -345.633687038507 0 0 60 (C1) n - 1
REM
REM in /home/bkarasulu/CARBON/AIRSS/Generating-Clusters/LCBOP/Higher-Symm/Only-C60/SD-CG/FIRE-HFTN
REM
REM
REM
REM
REM
REM ./C.cell (50c204cfd26239f34c78669fe23a5462)
REM
REM compiler GCC version 9.2.1 20190827 (Red Hat 9.2.1-1)
REM options -cpp -mtune=generic -march=x86-64 -g -O0 -fpre-include=/usr/include/finclude/math-vector-fortran.h
REM seed 1527438403 1925027795 836121152 -316571960 -1316841060 2137165189 -1138749611 -665528634 66967847 1975494110 1270692447 1545659514 -246414688 1601955834 -199921314 957142585 -1856553569 -215985922 1686666514 861799449 -42125255 -82186617 -609866075 729327947 -1516588382 -1026749775 -175897805 1020973873 1513071505 220967279 -392484285 1478177388 -2109419020
REM
CELL 1.54180   50.00000   50.00000   50.00000   90.00000   90.00000   90.00000
LATT -1
SFAC C  
C      1  0.4511080000000  0.5576370000000  0.5375660000000 1.0
C      1  0.4730170000000  0.4336740000000  0.5434980000000 1.0
C      1  0.5723700000000  0.5112470000000  0.5431180000000 1.0
C      1  0.4496690000000  0.4463410000000  0.5394520000000 1.0
C      1  0.4736950000000  0.5695070000000  0.5473860000000 1.0
C      1  0.5708220000000  0.4849960000000  0.5365560000000 1.0
C      1  0.4960380000000  0.4419650000000  0.5289120000000 1.0
C      1  0.5531390000000  0.5307410000000  0.5308000000000 1.0
C      1  0.4500680000000  0.5306410000000  0.5229600000000 1.0
C      1  0.4993990000000  0.5622140000000  0.5334110000000 1.0
C      1  0.5495510000000  0.4705220000000  0.5186480000000 1.0
C      1  0.4479870000000  0.4726050000000  0.5281530000000 1.0
C      1  0.4166500000000  0.5171450000000  0.4880710000000 1.0
C      1  0.5953530000000  0.4184100000000  0.4885500000000 1.0
C      1  0.5584810000000  0.5576410000000  0.4884140000000 1.0
C      1  0.4169690000000  0.4901490000000  0.4871480000000 1.0
C      1  0.5551940000000  0.5802790000000  0.4759290000000 1.0
C      1  0.5822190000000  0.4406540000000  0.4919870000000 1.0
C      1  0.4485550000000  0.4911570000000  0.4403950000000 1.0
C      1  0.5387570000000  0.4624530000000  0.4417800000000 1.0
C      1  0.5065260000000  0.5408810000000  0.4391280000000 1.0
C      1  0.4456260000000  0.5179420000000  0.4414420000000 1.0
C      1  0.5296320000000  0.5270590000000  0.4387170000000 1.0
C      1  0.5127080000000  0.4560490000000  0.4380160000000 1.0
C      1  0.4840360000000  0.4231890000000  0.4965260000000 1.0
C      1  0.5620610000000  0.5331040000000  0.5015600000000 1.0
C      1  0.4347380000000  0.5375480000000  0.4964010000000 1.0
C      1  0.4918590000000  0.5701700000000  0.5048250000000 1.0
C      1  0.5681120000000  0.4645100000000  0.4946540000000 1.0
C      1  0.4337450000000  0.4687780000000  0.4926350000000 1.0
C      1  0.4606950000000  0.4676620000000  0.4504720000000 1.0
C      1  0.5517620000000  0.4845360000000  0.4538830000000 1.0
C      1  0.4866400000000  0.5344130000000  0.4576890000000 1.0
C      1  0.4588740000000  0.5389590000000  0.4548710000000 1.0
C      1  0.5339980000000  0.5062920000000  0.4568960000000 1.0
C      1  0.4861580000000  0.4595390000000  0.4405780000000 1.0
C      1  0.5174970000000  0.5031980000000  0.4801470000000 1.0
C      1  0.4731410000000  0.5105550000000  0.4994760000000 1.0
C      1  0.4963140000000  0.4682130000000  0.5041970000000 1.0
C      1  0.5203850000000  0.4801810000000  0.4972600000000 1.0
C      1  0.4734110000000  0.4836130000000  0.5049260000000 1.0
C      1  0.4931150000000  0.5186880000000  0.4809150000000 1.0
C      1  0.4775680000000  0.5166680000000  0.5422570000000 1.0
C      1  0.5005300000000  0.4751620000000  0.5468870000000 1.0
C      1  0.5257090000000  0.5165810000000  0.5362600000000 1.0
C      1  0.4765590000000  0.4894140000000  0.5477690000000 1.0
C      1  0.5011030000000  0.5314650000000  0.5381150000000 1.0
C      1  0.5238230000000  0.4886600000000  0.5397970000000 1.0
C      1  0.4641120000000  0.4316140000000  0.4827970000000 1.0
C      1  0.5743000000000  0.5115260000000  0.4875030000000 1.0
C      1  0.4498190000000  0.5535070000000  0.4779370000000 1.0
C      1  0.4697210000000  0.5709650000000  0.4890780000000 1.0
C      1  0.5700590000000  0.4857090000000  0.4759530000000 1.0
C      1  0.4502100000000  0.4547300000000  0.4743070000000 1.0
C      1  0.5445130000000  0.4435280000000  0.5295880000000 1.0
C      1  0.5258330000000  0.5723040000000  0.5423170000000 1.0
C      1  0.4271550000000  0.4890970000000  0.5386920000000 1.0
C      1  0.5490150000000  0.5579560000000  0.5426630000000 1.0
C      1  0.5215500000000  0.4302620000000  0.5325640000000 1.0
C      1  0.4283470000000  0.5157960000000  0.5375650000000 1.0
END
