TITL C-2323489-8765-482 13.1626164049391 125000 -355.952495754638 0 0 60 (C1) n - 1
REM
REM in /home/bkarasulu/CARBON/AIRSS/Generating-Clusters/LCBOP/Higher-Symm/Only-C60/SD-CG/FIRE-HFTN
REM
REM
REM
REM
REM
REM ./C.cell (50c204cfd26239f34c78669fe23a5462)
REM
REM compiler GCC version 9.2.1 20190827 (Red Hat 9.2.1-1)
REM options -cpp -mtune=generic -march=x86-64 -g -O0 -fpre-include=/usr/include/finclude/math-vector-fortran.h
REM seed -1230274156 -81917939 -229032851 -1209494188 -2059021185 1118691629 -750099459 873486862 -1245050041 1970686673 1453649649 -686345556 -1404721807 1324191257 639700526 -1491785856 -1466456654 -1950045098 -1261552059 624557763 -1485598978 1827405750 -919340820 473654897 1515013087 1074195521 1732026646 719797528 -1004197550 1066441368 2087966954 1112936854 -365121365
REM
CELL 1.54180   50.00000   50.00000   50.00000   90.00000   90.00000   90.00000
LATT -1
SFAC C  
C      1  0.5827480000000  0.4701340000000  0.4826070000000 1.0
C      1  0.5818610000000  0.5295580000000  0.4836180000000 1.0
C      1  0.5393210000000  0.4445450000000  0.5184970000000 1.0
C      1  0.5392670000000  0.5557480000000  0.5191670000000 1.0
C      1  0.4788680000000  0.4216640000000  0.5236560000000 1.0
C      1  0.4789110000000  0.5782040000000  0.5233960000000 1.0
C      1  0.4202510000000  0.4865350000000  0.5568120000000 1.0
C      1  0.4202380000000  0.5134640000000  0.5567110000000 1.0
C      1  0.5612580000000  0.4719020000000  0.4395350000000 1.0
C      1  0.5623450000000  0.5290390000000  0.4396150000000 1.0
C      1  0.4169660000000  0.4862960000000  0.4954220000000 1.0
C      1  0.4169890000000  0.5134310000000  0.4953240000000 1.0
C      1  0.5124790000000  0.4850410000000  0.5331210000000 1.0
C      1  0.5124630000000  0.5148150000000  0.5330550000000 1.0
C      1  0.4900620000000  0.5602190000000  0.5430580000000 1.0
C      1  0.4901180000000  0.4396560000000  0.5432580000000 1.0
C      1  0.4383800000000  0.4711620000000  0.5443710000000 1.0
C      1  0.4383570000000  0.5287600000000  0.5441600000000 1.0
C      1  0.5607620000000  0.5144100000000  0.5282450000000 1.0
C      1  0.5606970000000  0.4854180000000  0.5296940000000 1.0
C      1  0.5061750000000  0.4070000000000  0.4808990000000 1.0
C      1  0.5067350000000  0.5934120000000  0.4810970000000 1.0
C      1  0.4340740000000  0.5633090000000  0.4993270000000 1.0
C      1  0.4339440000000  0.4364110000000  0.4997550000000 1.0
C      1  0.4822120000000  0.4862840000000  0.4856520000000 1.0
C      1  0.4822400000000  0.5132590000000  0.4855800000000 1.0
C      1  0.5439980000000  0.4524270000000  0.4337440000000 1.0
C      1  0.5454740000000  0.5488520000000  0.4338070000000 1.0
C      1  0.4880940000000  0.4699880000000  0.5448220000000 1.0
C      1  0.4880580000000  0.5298870000000  0.5446960000000 1.0
C      1  0.5559750000000  0.4327200000000  0.5009650000000 1.0
C      1  0.5563630000000  0.5676710000000  0.5020680000000 1.0
C      1  0.5832530000000  0.5155980000000  0.5079190000000 1.0
C      1  0.5868960000000  0.4831760000000  0.5067040000000 1.0
C      1  0.5752070000000  0.4857770000000  0.4596800000000 1.0
C      1  0.5753220000000  0.5145590000000  0.4599770000000 1.0
C      1  0.4379820000000  0.5339350000000  0.4576820000000 1.0
C      1  0.4379010000000  0.4654940000000  0.4579100000000 1.0
C      1  0.4515240000000  0.5768560000000  0.5152750000000 1.0
C      1  0.4514120000000  0.4229300000000  0.5157460000000 1.0
C      1  0.4622550000000  0.5265240000000  0.5291250000000 1.0
C      1  0.4622560000000  0.4732950000000  0.5292870000000 1.0
C      1  0.4959700000000  0.5914330000000  0.5053780000000 1.0
C      1  0.4958240000000  0.4086440000000  0.5053870000000 1.0
C      1  0.5368700000000  0.5292420000000  0.5283470000000 1.0
C      1  0.5369780000000  0.4706710000000  0.5286160000000 1.0
C      1  0.4385410000000  0.4862210000000  0.4406680000000 1.0
C      1  0.4385740000000  0.5130910000000  0.4405790000000 1.0
C      1  0.5750050000000  0.4430140000000  0.4848610000000 1.0
C      1  0.5753330000000  0.5569810000000  0.4860960000000 1.0
C      1  0.5295800000000  0.5689870000000  0.4409500000000 1.0
C      1  0.5281440000000  0.4322230000000  0.4407740000000 1.0
C      1  0.4366470000000  0.5358410000000  0.4874860000000 1.0
C      1  0.4365730000000  0.4637950000000  0.4877280000000 1.0
C      1  0.4627310000000  0.4727130000000  0.5007490000000 1.0
C      1  0.4627750000000  0.5269520000000  0.5005860000000 1.0
C      1  0.5168420000000  0.5849970000000  0.4579660000000 1.0
C      1  0.5157640000000  0.4158490000000  0.4577080000000 1.0
C      1  0.4840900000000  0.4861790000000  0.5705760000000 1.0
C      1  0.4840690000000  0.5138030000000  0.5705110000000 1.0
END
