TITL C-2323480-5884-54 0.0390904135996732 125000 -341.452652733514 0 0 60 (D6d) n - 1
REM
REM in /home/bkarasulu/CARBON/AIRSS/Generating-Clusters/LCBOP/Higher-Symm/Only-C60/SD-CG/FIRE-HFTN
REM
REM
REM
REM
REM
REM ./C.cell (50c204cfd26239f34c78669fe23a5462)
REM
REM compiler GCC version 9.2.1 20190827 (Red Hat 9.2.1-1)
REM options -cpp -mtune=generic -march=x86-64 -g -O0 -fpre-include=/usr/include/finclude/math-vector-fortran.h
REM seed 1129046624 -375905492 -103554590 -1592370557 117076094 -214644020 -598624546 -1907175678 351357304 987198382 -11296250 -1620627084 -1179424230 -512802596 -1906187834 -729331344 1260181157 19042704 -370697139 2136762082 -1652378639 1601698448 -1020640869 1322838216 -489537665 -1743028226 -61660579 -1430503357 -474152103 174721247 2036676145 -124097318 2045325971
REM
CELL 1.54180   50.00000   50.00000   50.00000   90.00000   90.00000   90.00000
LATT -1
SFAC C  
C      1  0.5510640000000  0.4984640000000  0.5086220000000 1.0
C      1  0.5434540000000  0.4731380000000  0.4913780000000 1.0
C      1  0.5242020000000  0.4550100000000  0.5086220000000 1.0
C      1  0.4984640000000  0.4489360000000  0.4913780000000 1.0
C      1  0.4731380000000  0.4565460000000  0.5086220000000 1.0
C      1  0.4550090000000  0.4757980000000  0.4913780000000 1.0
C      1  0.4489360000000  0.5015360000000  0.5086220000000 1.0
C      1  0.4565460000000  0.5268620000000  0.4913780000000 1.0
C      1  0.4757990000000  0.5449900000000  0.5086220000000 1.0
C      1  0.5015360000000  0.5510640000000  0.4913780000000 1.0
C      1  0.5268620000000  0.5434540000000  0.5086220000000 1.0
C      1  0.5449900000000  0.5242020000000  0.4913780000000 1.0
C      1  0.4311500000000  0.4629640000000  0.4800020000000 1.0
C      1  0.4218560000000  0.5023510000000  0.5199980000000 1.0
C      1  0.4335010000000  0.5411080000000  0.4800020000000 1.0
C      1  0.4629640000000  0.5688500000000  0.5199980000000 1.0
C      1  0.5023510000000  0.5781440000000  0.4800020000000 1.0
C      1  0.5411080000000  0.5664990000000  0.5199980000000 1.0
C      1  0.5688500000000  0.5370360000000  0.4800020000000 1.0
C      1  0.5781440000000  0.4976490000000  0.5199980000000 1.0
C      1  0.5664990000000  0.4588920000000  0.4800020000000 1.0
C      1  0.5370360000000  0.4311500000000  0.5199980000000 1.0
C      1  0.4976490000000  0.4218560000000  0.4800020000000 1.0
C      1  0.4588920000000  0.4335010000000  0.5199980000000 1.0
C      1  0.5543530000000  0.5879260000000  0.5281670000000 1.0
C      1  0.5910340000000  0.5489700000000  0.4718320000000 1.0
C      1  0.6033230000000  0.4968920000000  0.5281670000000 1.0
C      1  0.5879260000000  0.4456470000000  0.4718320000000 1.0
C      1  0.5489700000000  0.4089660000000  0.5281670000000 1.0
C      1  0.4968920000000  0.3966770000000  0.4718330000000 1.0
C      1  0.4456470000000  0.4120740000000  0.5281670000000 1.0
C      1  0.4089650000000  0.4510300000000  0.4718330000000 1.0
C      1  0.3966770000000  0.5031080000000  0.5281680000000 1.0
C      1  0.4120740000000  0.5543530000000  0.4718330000000 1.0
C      1  0.4510300000000  0.5910340000000  0.5281670000000 1.0
C      1  0.5031080000000  0.6033230000000  0.4718330000000 1.0
C      1  0.4747850000000  0.4864360000000  0.4704930000000 1.0
C      1  0.4713820000000  0.5008610000000  0.5295070000000 1.0
C      1  0.4756460000000  0.5150550000000  0.4704930000000 1.0
C      1  0.4864370000000  0.5252150000000  0.5295070000000 1.0
C      1  0.5008610000000  0.5286180000000  0.4704930000000 1.0
C      1  0.5150550000000  0.5243540000000  0.5295070000000 1.0
C      1  0.5252150000000  0.5135640000000  0.4704930000000 1.0
C      1  0.5286190000000  0.4991390000000  0.5295070000000 1.0
C      1  0.5243540000000  0.4849450000000  0.4704930000000 1.0
C      1  0.5135640000000  0.4747850000000  0.5295070000000 1.0
C      1  0.4991390000000  0.4713820000000  0.4704930000000 1.0
C      1  0.4849450000000  0.4756460000000  0.5295070000000 1.0
C      1  0.5608400000000  0.3868980000000  0.5353540000000 1.0
C      1  0.4961380000000  0.3716310000000  0.4646450000000 1.0
C      1  0.4324710000000  0.3907600000000  0.5353550000000 1.0
C      1  0.3868980000000  0.4391600000000  0.4646460000000 1.0
C      1  0.3716310000000  0.5038620000000  0.5353550000000 1.0
C      1  0.3907600000000  0.5675290000000  0.4646460000000 1.0
C      1  0.4391600000000  0.6131020000000  0.5353550000000 1.0
C      1  0.5038610000000  0.6283690000000  0.4646450000000 1.0
C      1  0.5675290000000  0.6092400000000  0.5353540000000 1.0
C      1  0.6131010000000  0.5608400000000  0.4646450000000 1.0
C      1  0.6283690000000  0.4961380000000  0.5353540000000 1.0
C      1  0.6092400000000  0.4324710000000  0.4646450000000 1.0
END
