TITL C-2323482-8828-215 -0.105863626197362 125000 -356.715383218413 0 0 60 (C1) n - 1
REM
REM in /home/bkarasulu/CARBON/AIRSS/Generating-Clusters/LCBOP/Higher-Symm/Only-C60/SD-CG/FIRE-HFTN
REM
REM
REM
REM
REM
REM ./C.cell (50c204cfd26239f34c78669fe23a5462)
REM
REM compiler GCC version 9.2.1 20190827 (Red Hat 9.2.1-1)
REM options -cpp -mtune=generic -march=x86-64 -g -O0 -fpre-include=/usr/include/finclude/math-vector-fortran.h
REM seed 1481467427 744567211 -21862019 -2089436279 2057967110 -175308122 -75079209 -2078341828 -317955470 -1960616992 1450293845 949003874 463010080 937567544 1499693525 -971419195 1471807045 -1945748913 1998526556 1645269163 1654913846 288211527 1603094502 -277661781 -804896867 -948433052 -2030409913 -499534210 -2118053852 -364133463 -1523255845 514754099 1486301871
REM
CELL 1.54180   50.00000   50.00000   50.00000   90.00000   90.00000   90.00000
LATT -1
SFAC C  
C      1  0.5334710000000  0.4465920000000  0.4594770000000 1.0
C      1  0.4969790000000  0.5685760000000  0.5350540000000 1.0
C      1  0.4847300000000  0.5642430000000  0.4839790000000 1.0
C      1  0.4548380000000  0.4109790000000  0.4948580000000 1.0
C      1  0.5026950000000  0.5667640000000  0.5071370000000 1.0
C      1  0.4763270000000  0.5148660000000  0.5630750000000 1.0
C      1  0.4266640000000  0.4732640000000  0.5274350000000 1.0
C      1  0.5319510000000  0.5752640000000  0.4340660000000 1.0
C      1  0.4769090000000  0.4619690000000  0.4500330000000 1.0
C      1  0.4787870000000  0.5415960000000  0.5724610000000 1.0
C      1  0.4278240000000  0.4745870000000  0.4992540000000 1.0
C      1  0.4991290000000  0.5590070000000  0.5619360000000 1.0
C      1  0.4424830000000  0.4574710000000  0.4808470000000 1.0
C      1  0.4436020000000  0.5023890000000  0.4635160000000 1.0
C      1  0.5310690000000  0.4601920000000  0.5542000000000 1.0
C      1  0.4901460000000  0.4372070000000  0.5582680000000 1.0
C      1  0.5306730000000  0.5128380000000  0.4262690000000 1.0
C      1  0.5405240000000  0.4604180000000  0.3680580000000 1.0
C      1  0.4885760000000  0.4821530000000  0.4979960000000 1.0
C      1  0.5448770000000  0.5608810000000  0.4782770000000 1.0
C      1  0.5301840000000  0.5661630000000  0.5000890000000 1.0
C      1  0.5222890000000  0.4405900000000  0.5052050000000 1.0
C      1  0.5243000000000  0.5549770000000  0.5743960000000 1.0
C      1  0.4792630000000  0.4666600000000  0.5177620000000 1.0
C      1  0.4525910000000  0.4753470000000  0.4583350000000 1.0
C      1  0.4924740000000  0.5120900000000  0.5388040000000 1.0
C      1  0.5513610000000  0.4946430000000  0.4963160000000 1.0
C      1  0.4911120000000  0.5995610000000  0.4480030000000 1.0
C      1  0.4775050000000  0.4490980000000  0.5378470000000 1.0
C      1  0.4511380000000  0.5329450000000  0.5151350000000 1.0
C      1  0.4794970000000  0.5878680000000  0.4692500000000 1.0
C      1  0.4573880000000  0.5269110000000  0.4595050000000 1.0
C      1  0.5247070000000  0.5288940000000  0.4482390000000 1.0
C      1  0.5375370000000  0.5541410000000  0.4518940000000 1.0
C      1  0.5325870000000  0.4586840000000  0.5246230000000 1.0
C      1  0.5376380000000  0.5334300000000  0.5836360000000 1.0
C      1  0.4268810000000  0.5013710000000  0.4875660000000 1.0
C      1  0.5531040000000  0.4648220000000  0.4587890000000 1.0
C      1  0.4538220000000  0.4978760000000  0.5646940000000 1.0
C      1  0.5865710000000  0.4995580000000  0.4634080000000 1.0
C      1  0.4763500000000  0.5245660000000  0.5191280000000 1.0
C      1  0.5370710000000  0.4113100000000  0.6083940000000 1.0
C      1  0.4606520000000  0.4348490000000  0.4831550000000 1.0
C      1  0.5339190000000  0.4872890000000  0.5167540000000 1.0
C      1  0.5012120000000  0.4979540000000  0.4804410000000 1.0
C      1  0.5339340000000  0.4967000000000  0.4055220000000 1.0
C      1  0.5385350000000  0.5065730000000  0.5813630000000 1.0
C      1  0.5164420000000  0.4402040000000  0.5679730000000 1.0
C      1  0.5642770000000  0.4867500000000  0.4725290000000 1.0
C      1  0.4283150000000  0.5239590000000  0.5042110000000 1.0
C      1  0.5131460000000  0.4394770000000  0.4779030000000 1.0
C      1  0.5372320000000  0.4786460000000  0.3864010000000 1.0
C      1  0.4811760000000  0.5393580000000  0.4691560000000 1.0
C      1  0.5269670000000  0.4251840000000  0.5887830000000 1.0
C      1  0.4359740000000  0.4833880000000  0.5506250000000 1.0
C      1  0.5294500000000  0.4883960000000  0.5620950000000 1.0
C      1  0.5127710000000  0.5940870000000  0.4330550000000 1.0
C      1  0.5187270000000  0.5013260000000  0.5375300000000 1.0
C      1  0.5038440000000  0.5220130000000  0.4662960000000 1.0
C      1  0.4858050000000  0.4410880000000  0.4689970000000 1.0
END
