TITL C-2323486-8761-592 6.44528549789871e-06 125000 -359.574364585605 0 0 60 (C1) n - 1
REM
REM in /home/bkarasulu/CARBON/AIRSS/Generating-Clusters/LCBOP/Higher-Symm/Only-C60/SD-CG/FIRE-HFTN
REM
REM
REM
REM
REM
REM ./C.cell (50c204cfd26239f34c78669fe23a5462)
REM
REM compiler GCC version 9.2.1 20190827 (Red Hat 9.2.1-1)
REM options -cpp -mtune=generic -march=x86-64 -g -O0 -fpre-include=/usr/include/finclude/math-vector-fortran.h
REM seed -1723079171 -1093826006 634891265 1993129814 895785094 -1573295918 -1053450853 -759480367 1060498785 -176215124 -1196806993 1109756295 660204885 -1282623648 501356495 -1404103632 -1516278881 -686398619 -334975576 1630863017 906424360 -327005507 976000029 287379122 989785370 -1868046828 282033973 1062678058 724336385 -1397611452 -783028348 1969950186 -1728536889
REM
CELL 1.54180   50.00000   50.00000   50.00000   90.00000   90.00000   90.00000
LATT -1
SFAC C  
C      1  0.5673750000000  0.5038590000000  0.4436040000000 1.0
C      1  0.4308690000000  0.5133860000000  0.4532150000000 1.0
C      1  0.5100650000000  0.5090890000000  0.5708970000000 1.0
C      1  0.5066130000000  0.4911460000000  0.4935170000000 1.0
C      1  0.4482110000000  0.5446620000000  0.5387090000000 1.0
C      1  0.5115650000000  0.5465660000000  0.5178620000000 1.0
C      1  0.4528030000000  0.5076930000000  0.4356180000000 1.0
C      1  0.4813670000000  0.5104940000000  0.5750250000000 1.0
C      1  0.5715700000000  0.5101850000000  0.4712910000000 1.0
C      1  0.5100170000000  0.4875680000000  0.4260870000000 1.0
C      1  0.4360100000000  0.4879220000000  0.5139830000000 1.0
C      1  0.5636660000000  0.5255640000000  0.5268210000000 1.0
C      1  0.5522290000000  0.5303960000000  0.5528650000000 1.0
C      1  0.5298760000000  0.5052710000000  0.4104370000000 1.0
C      1  0.4304650000000  0.5131450000000  0.5025000000000 1.0
C      1  0.5222240000000  0.4774830000000  0.5359170000000 1.0
C      1  0.5050870000000  0.4344300000000  0.4572150000000 1.0
C      1  0.4659860000000  0.4397700000000  0.5065840000000 1.0
C      1  0.5516490000000  0.5461270000000  0.4312360000000 1.0
C      1  0.4521590000000  0.5488380000000  0.4752930000000 1.0
C      1  0.5217280000000  0.5502800000000  0.5884630000000 1.0
C      1  0.4819960000000  0.4467210000000  0.4465830000000 1.0
C      1  0.4682200000000  0.4543390000000  0.5305980000000 1.0
C      1  0.5502410000000  0.4807460000000  0.5339930000000 1.0
C      1  0.4960760000000  0.5505920000000  0.5979020000000 1.0
C      1  0.5595770000000  0.5543970000000  0.4560530000000 1.0
C      1  0.4715910000000  0.5473550000000  0.4561550000000 1.0
C      1  0.4373730000000  0.5506540000000  0.5625210000000 1.0
C      1  0.5340710000000  0.5575680000000  0.5086490000000 1.0
C      1  0.5093330000000  0.5049200000000  0.4712570000000 1.0
C      1  0.5305500000000  0.5293120000000  0.5712160000000 1.0
C      1  0.5514580000000  0.5184270000000  0.4244210000000 1.0
C      1  0.4339220000000  0.5270960000000  0.4782340000000 1.0
C      1  0.4649950000000  0.4891120000000  0.5641150000000 1.0
C      1  0.5721240000000  0.4904750000000  0.4919250000000 1.0
C      1  0.4565410000000  0.4812180000000  0.4261080000000 1.0
C      1  0.5314390000000  0.4317190000000  0.5506390000000 1.0
C      1  0.5300720000000  0.4669850000000  0.4360970000000 1.0
C      1  0.4300880000000  0.4664240000000  0.4956610000000 1.0
C      1  0.5137250000000  0.4521520000000  0.5465170000000 1.0
C      1  0.5304870000000  0.4463490000000  0.4551980000000 1.0
C      1  0.4488050000000  0.4474870000000  0.4855440000000 1.0
C      1  0.4959020000000  0.5241740000000  0.5248380000000 1.0
C      1  0.5064900000000  0.4970830000000  0.5208730000000 1.0
C      1  0.4689760000000  0.5310030000000  0.5288340000000 1.0
C      1  0.4397850000000  0.4610790000000  0.4385850000000 1.0
C      1  0.4749190000000  0.4631670000000  0.5741690000000 1.0
C      1  0.5687550000000  0.4633880000000  0.4848050000000 1.0
C      1  0.5001810000000  0.5086960000000  0.4455090000000 1.0
C      1  0.4483530000000  0.5451230000000  0.5865100000000 1.0
C      1  0.5583250000000  0.5437700000000  0.5051350000000 1.0
C      1  0.4739730000000  0.5341670000000  0.5900670000000 1.0
C      1  0.5662430000000  0.5378480000000  0.4783770000000 1.0
C      1  0.4764390000000  0.5235530000000  0.4411810000000 1.0
C      1  0.5519570000000  0.4461390000000  0.4730590000000 1.0
C      1  0.4549420000000  0.4458550000000  0.4580180000000 1.0
C      1  0.4864080000000  0.4487780000000  0.5521930000000 1.0
C      1  0.4538840000000  0.4805420000000  0.5360210000000 1.0
C      1  0.5662690000000  0.4981860000000  0.5189190000000 1.0
C      1  0.4839840000000  0.4695250000000  0.4263800000000 1.0
END
