TITL C-2323479-8056-118 1.34136307503812e-06 125000 -344.351710084672 0 0 60 (Ci) n - 1
REM
REM in /home/bkarasulu/CARBON/AIRSS/Generating-Clusters/LCBOP/Higher-Symm/Only-C60/SD-CG/FIRE-HFTN
REM
REM
REM
REM
REM
REM ./C.cell (50c204cfd26239f34c78669fe23a5462)
REM
REM compiler GCC version 9.2.1 20190827 (Red Hat 9.2.1-1)
REM options -cpp -mtune=generic -march=x86-64 -g -O0 -fpre-include=/usr/include/finclude/math-vector-fortran.h
REM seed -111059787 86718773 2080446241 489081060 1295287297 -1594868691 -2096169288 556937514 1396649802 -1591632591 -1744316279 1596603525 1110974268 1263092012 -1388927893 -1542924216 1283754085 391523207 80607029 969998764 -870445147 -760770649 -1788881180 -1018384357 576755382 -1982843317 -1533350140 1497420891 748880991 -349449677 -236335793 532030564 1474728355
REM
CELL 1.54180   50.00000   50.00000   50.00000   90.00000   90.00000   90.00000
LATT -1
SFAC C  
C      1  0.4246030000000  0.5056340000000  0.5109610000000 1.0
C      1  0.4259310000000  0.4955380000000  0.4839290000000 1.0
C      1  0.5740690000000  0.5044620000000  0.5160710000000 1.0
C      1  0.5753970000000  0.4943660000000  0.4890390000000 1.0
C      1  0.4629210000000  0.4482940000000  0.5464400000000 1.0
C      1  0.4636460000000  0.5547700000000  0.4517270000000 1.0
C      1  0.5363540000000  0.4452300000000  0.5482730000000 1.0
C      1  0.5370790000000  0.5517060000000  0.4535600000000 1.0
C      1  0.5180140000000  0.5645790000000  0.4711250000000 1.0
C      1  0.5172200000000  0.4340200000000  0.5298030000000 1.0
C      1  0.4827800000000  0.5659800000000  0.4701970000000 1.0
C      1  0.4819860000000  0.4354210000000  0.5288750000000 1.0
C      1  0.5512320000000  0.4675260000000  0.4598030000000 1.0
C      1  0.5472400000000  0.5304570000000  0.5446630000000 1.0
C      1  0.4527600000000  0.4695430000000  0.4553370000000 1.0
C      1  0.4487680000000  0.5324740000000  0.5401970000000 1.0
C      1  0.5708490000000  0.4839000000000  0.5364850000000 1.0
C      1  0.5724890000000  0.5145730000000  0.4680430000000 1.0
C      1  0.4275110000000  0.4854270000000  0.5319570000000 1.0
C      1  0.4291510000000  0.5161000000000  0.4635150000000 1.0
C      1  0.4844970000000  0.5156270000000  0.4295280000000 1.0
C      1  0.5157370000000  0.4805150000000  0.5962470000000 1.0
C      1  0.4842630000000  0.5194850000000  0.4037530000000 1.0
C      1  0.5155030000000  0.4843730000000  0.5704720000000 1.0
C      1  0.5227240000000  0.4776540000000  0.5179680000000 1.0
C      1  0.5256390000000  0.5210470000000  0.4867990000000 1.0
C      1  0.4743610000000  0.4789530000000  0.5132010000000 1.0
C      1  0.4772760000000  0.5223460000000  0.4820320000000 1.0
C      1  0.4320250000000  0.5343630000000  0.5167420000000 1.0
C      1  0.4350640000000  0.4675140000000  0.4780320000000 1.0
C      1  0.5649360000000  0.5324860000000  0.5219680000000 1.0
C      1  0.5679750000000  0.4656370000000  0.4832580000000 1.0
C      1  0.5179140000000  0.5054720000000  0.4642560000000 1.0
C      1  0.5114930000000  0.4928170000000  0.5428260000000 1.0
C      1  0.4885070000000  0.5071830000000  0.4571740000000 1.0
C      1  0.4820860000000  0.4945280000000  0.5357440000000 1.0
C      1  0.5139330000000  0.4154260000000  0.4853300000000 1.0
C      1  0.5132780000000  0.5840970000000  0.5152080000000 1.0
C      1  0.4867220000000  0.4159030000000  0.4847920000000 1.0
C      1  0.4860670000000  0.5845740000000  0.5146700000000 1.0
C      1  0.4865480000000  0.4716040000000  0.4890300000000 1.0
C      1  0.4855160000000  0.5294110000000  0.5084720000000 1.0
C      1  0.5144840000000  0.4705890000000  0.4915280000000 1.0
C      1  0.5134520000000  0.5283960000000  0.5109700000000 1.0
C      1  0.4445980000000  0.4441980000000  0.4939630000000 1.0
C      1  0.4434640000000  0.5577560000000  0.5021510000000 1.0
C      1  0.5565360000000  0.4422440000000  0.4978490000000 1.0
C      1  0.5554020000000  0.5558020000000  0.5060370000000 1.0
C      1  0.5309600000000  0.5705620000000  0.4973870000000 1.0
C      1  0.5311360000000  0.4280560000000  0.5041730000000 1.0
C      1  0.4688640000000  0.5719440000000  0.4958270000000 1.0
C      1  0.4690400000000  0.4294380000000  0.5026130000000 1.0
C      1  0.5585760000000  0.5345400000000  0.4553900000000 1.0
C      1  0.5575750000000  0.4627310000000  0.5475310000000 1.0
C      1  0.4424250000000  0.5372690000000  0.4524690000000 1.0
C      1  0.4414240000000  0.4654600000000  0.5446100000000 1.0
C      1  0.5223130000000  0.5203970000000  0.5370980000000 1.0
C      1  0.5267900000000  0.4786370000000  0.4665580000000 1.0
C      1  0.4732100000000  0.5213630000000  0.5334420000000 1.0
C      1  0.4776870000000  0.4796030000000  0.4629020000000 1.0
END
