TITL C-2323483-8886-258 0.0775907242976516 125000 -351.984720823222 0 0 60 (C1) n - 1
REM
REM in /home/bkarasulu/CARBON/AIRSS/Generating-Clusters/LCBOP/Higher-Symm/Only-C60/SD-CG/FIRE-HFTN
REM
REM
REM
REM
REM
REM ./C.cell (50c204cfd26239f34c78669fe23a5462)
REM
REM compiler GCC version 9.2.1 20190827 (Red Hat 9.2.1-1)
REM options -cpp -mtune=generic -march=x86-64 -g -O0 -fpre-include=/usr/include/finclude/math-vector-fortran.h
REM seed 777125016 572653216 1380137681 -1417280145 541832246 273436629 -2102812646 -1486381237 1003258399 -240151597 1697811933 -1505684640 -799550335 864959064 -465025401 -1029325974 -2103748230 -1006039588 -1460591042 -613742068 339210519 -325709465 -881405556 2089923199 1404219469 999912827 -1757391068 -1790401914 1908316807 -508975784 2059176601 -1472070251 217578489
REM
CELL 1.54180   50.00000   50.00000   50.00000   90.00000   90.00000   90.00000
LATT -1
SFAC C  
C      1  0.5648830000000  0.5383920000000  0.5238100000000 1.0
C      1  0.5047890000000  0.3942710000000  0.5071340000000 1.0
C      1  0.4326960000000  0.5653180000000  0.5182940000000 1.0
C      1  0.4454520000000  0.5869450000000  0.5326000000000 1.0
C      1  0.5724660000000  0.5173530000000  0.5421180000000 1.0
C      1  0.4897690000000  0.3842880000000  0.5297490000000 1.0
C      1  0.4789870000000  0.5327200000000  0.6184340000000 1.0
C      1  0.4852110000000  0.4632430000000  0.5397070000000 1.0
C      1  0.5696610000000  0.4525980000000  0.5979720000000 1.0
C      1  0.4211510000000  0.5656240000000  0.4713770000000 1.0
C      1  0.5782710000000  0.5422980000000  0.4776170000000 1.0
C      1  0.4856970000000  0.4082220000000  0.4648970000000 1.0
C      1  0.4915780000000  0.4878740000000  0.5453500000000 1.0
C      1  0.5549790000000  0.4375230000000  0.5825840000000 1.0
C      1  0.4801650000000  0.5321180000000  0.5924080000000 1.0
C      1  0.4641130000000  0.5770970000000  0.5504340000000 1.0
C      1  0.5502750000000  0.5076520000000  0.5554340000000 1.0
C      1  0.5009360000000  0.3930940000000  0.5534390000000 1.0
C      1  0.4358070000000  0.4927600000000  0.5069720000000 1.0
C      1  0.5062050000000  0.5757500000000  0.4991280000000 1.0
C      1  0.5595670000000  0.4419280000000  0.4907220000000 1.0
C      1  0.4357660000000  0.5582300000000  0.4487170000000 1.0
C      1  0.5679770000000  0.5310880000000  0.4541740000000 1.0
C      1  0.4792240000000  0.4307560000000  0.4497310000000 1.0
C      1  0.5421240000000  0.4677720000000  0.4315040000000 1.0
C      1  0.4310130000000  0.4844110000000  0.4401360000000 1.0
C      1  0.5077180000000  0.5704060000000  0.4318460000000 1.0
C      1  0.4999340000000  0.5137360000000  0.5519610000000 1.0
C      1  0.5400010000000  0.4226370000000  0.5665840000000 1.0
C      1  0.4816420000000  0.5315210000000  0.5644970000000 1.0
C      1  0.4939140000000  0.5813770000000  0.4763130000000 1.0
C      1  0.5655060000000  0.4603960000000  0.4726150000000 1.0
C      1  0.4363790000000  0.4754290000000  0.4868870000000 1.0
C      1  0.5807960000000  0.5506420000000  0.5042290000000 1.0
C      1  0.4996360000000  0.3892700000000  0.4800400000000 1.0
C      1  0.4132690000000  0.5674500000000  0.4981700000000 1.0
C      1  0.3869460000000  0.5711190000000  0.5046270000000 1.0
C      1  0.5983610000000  0.5704870000000  0.5109530000000 1.0
C      1  0.5083110000000  0.3660720000000  0.4684050000000 1.0
C      1  0.4388130000000  0.5151300000000  0.5208860000000 1.0
C      1  0.5206120000000  0.5617690000000  0.5164140000000 1.0
C      1  0.5457590000000  0.4244210000000  0.5050630000000 1.0
C      1  0.4601770000000  0.5708250000000  0.4434710000000 1.0
C      1  0.5692260000000  0.5034480000000  0.4502530000000 1.0
C      1  0.4555850000000  0.4448980000000  0.4543550000000 1.0
C      1  0.4980260000000  0.4410580000000  0.4317430000000 1.0
C      1  0.4283510000000  0.5354780000000  0.4342530000000 1.0
C      1  0.5534390000000  0.5469410000000  0.4362790000000 1.0
C      1  0.5360150000000  0.5418890000000  0.5280340000000 1.0
C      1  0.5264110000000  0.4102500000000  0.5189810000000 1.0
C      1  0.4450340000000  0.5408930000000  0.5290550000000 1.0
C      1  0.4650860000000  0.5481970000000  0.5492510000000 1.0
C      1  0.5263490000000  0.5214360000000  0.5467240000000 1.0
C      1  0.5240340000000  0.4096180000000  0.5482140000000 1.0
C      1  0.4269140000000  0.5091200000000  0.4312430000000 1.0
C      1  0.5319510000000  0.5601610000000  0.4279630000000 1.0
C      1  0.5199640000000  0.4545240000000  0.4252660000000 1.0
C      1  0.4400760000000  0.4672840000000  0.4603530000000 1.0
C      1  0.4869080000000  0.5756740000000  0.4497960000000 1.0
C      1  0.5600920000000  0.4771200000000  0.4508350000000 1.0
END
