TITL C-2323482-8828-152 -0.0662531311159599 125000 -361.96592859318 0 0 60 (C1) n - 1
REM
REM in /home/bkarasulu/CARBON/AIRSS/Generating-Clusters/LCBOP/Higher-Symm/Only-C60/SD-CG/FIRE-HFTN
REM
REM
REM
REM
REM
REM ./C.cell (50c204cfd26239f34c78669fe23a5462)
REM
REM compiler GCC version 9.2.1 20190827 (Red Hat 9.2.1-1)
REM options -cpp -mtune=generic -march=x86-64 -g -O0 -fpre-include=/usr/include/finclude/math-vector-fortran.h
REM seed 1719847039 -509462649 954859681 -673672456 -317778621 994044274 1155081416 1713609100 -1950925422 1830506063 -1041934153 -1404219060 -121832996 -1204985597 -1904481281 878414685 -1247259220 -83152818 -1647510416 1295354832 747582353 186280012 -1704518692 -1665771451 138711447 -1299748214 -1257577500 2072457219 -766681612 618927895 1925330706 1093771219 -1529105550
REM
CELL 1.54180   50.00000   50.00000   50.00000   90.00000   90.00000   90.00000
LATT -1
SFAC C  
C      1  0.5201830000000  0.5258040000000  0.4561620000000 1.0
C      1  0.4763040000000  0.5239500000000  0.4721840000000 1.0
C      1  0.4922870000000  0.4903050000000  0.4426590000000 1.0
C      1  0.4673040000000  0.4780600000000  0.4826300000000 1.0
C      1  0.5303410000000  0.4819010000000  0.4703760000000 1.0
C      1  0.5122340000000  0.5172610000000  0.5016620000000 1.0
C      1  0.4325410000000  0.5526410000000  0.4704910000000 1.0
C      1  0.4900260000000  0.4088230000000  0.4897630000000 1.0
C      1  0.5795380000000  0.5334290000000  0.4755140000000 1.0
C      1  0.5595320000000  0.4265790000000  0.5962770000000 1.0
C      1  0.4787290000000  0.6132690000000  0.6067990000000 1.0
C      1  0.4295920000000  0.4676890000000  0.6237230000000 1.0
C      1  0.5190540000000  0.4980830000000  0.4493040000000 1.0
C      1  0.5032620000000  0.5311590000000  0.4784360000000 1.0
C      1  0.4728290000000  0.4970330000000  0.4627210000000 1.0
C      1  0.4305190000000  0.5187870000000  0.4349070000000 1.0
C      1  0.5213630000000  0.4349550000000  0.4631600000000 1.0
C      1  0.5607400000000  0.5470920000000  0.4322610000000 1.0
C      1  0.5247400000000  0.4748410000000  0.5196700000000 1.0
C      1  0.5076180000000  0.5377580000000  0.5474330000000 1.0
C      1  0.4640300000000  0.4869930000000  0.5316460000000 1.0
C      1  0.5260140000000  0.4919860000000  0.4969210000000 1.0
C      1  0.4982210000000  0.5209570000000  0.5256920000000 1.0
C      1  0.4762660000000  0.4735750000000  0.5084540000000 1.0
C      1  0.5331480000000  0.5297280000000  0.5559000000000 1.0
C      1  0.4702680000000  0.5143630000000  0.5318310000000 1.0
C      1  0.4999660000000  0.4610280000000  0.5212050000000 1.0
C      1  0.4550790000000  0.4461100000000  0.4377280000000 1.0
C      1  0.5796830000000  0.4769080000000  0.4394190000000 1.0
C      1  0.4858720000000  0.5626920000000  0.4228400000000 1.0
C      1  0.5500610000000  0.5103280000000  0.5433420000000 1.0
C      1  0.4602470000000  0.5404270000000  0.5402490000000 1.0
C      1  0.4872320000000  0.4472700000000  0.5437950000000 1.0
C      1  0.4673200000000  0.4669300000000  0.5529240000000 1.0
C      1  0.5416380000000  0.4826170000000  0.5416310000000 1.0
C      1  0.4831980000000  0.5521500000000  0.5549680000000 1.0
C      1  0.5550110000000  0.4453200000000  0.5787290000000 1.0
C      1  0.4801740000000  0.5933890000000  0.5899950000000 1.0
C      1  0.4418030000000  0.4672090000000  0.6006950000000 1.0
C      1  0.4309860000000  0.4923960000000  0.4302230000000 1.0
C      1  0.5396800000000  0.4562620000000  0.4624690000000 1.0
C      1  0.5386110000000  0.5587990000000  0.4226730000000 1.0
C      1  0.4396780000000  0.4670410000000  0.4311120000000 1.0
C      1  0.5644250000000  0.4569980000000  0.4490630000000 1.0
C      1  0.5124440000000  0.5638010000000  0.4197220000000 1.0
C      1  0.4339420000000  0.5558430000000  0.4970920000000 1.0
C      1  0.4861410000000  0.4061330000000  0.5161390000000 1.0
C      1  0.5782720000000  0.5285520000000  0.5017080000000 1.0
C      1  0.4847720000000  0.4196380000000  0.5394530000000 1.0
C      1  0.5696930000000  0.5196460000000  0.5253590000000 1.0
C      1  0.4425270000000  0.5529680000000  0.5223820000000 1.0
C      1  0.4542090000000  0.4667730000000  0.5772920000000 1.0
C      1  0.5497840000000  0.4640860000000  0.5607770000000 1.0
C      1  0.4816570000000  0.5731900000000  0.5729170000000 1.0
C      1  0.4744210000000  0.4316950000000  0.4493860000000 1.0
C      1  0.5826440000000  0.5034730000000  0.4380760000000 1.0
C      1  0.4610670000000  0.5566100000000  0.4308460000000 1.0
C      1  0.4399580000000  0.5436710000000  0.4446150000000 1.0
C      1  0.4954850000000  0.4240790000000  0.4666520000000 1.0
C      1  0.5756410000000  0.5289500000000  0.4479490000000 1.0
END
