TITL C-2323492-8884-269 2.60110990298007e-06 125000 -355.359819163926 0 0 60 (D3d) n - 1
REM
REM in /home/bkarasulu/CARBON/AIRSS/Generating-Clusters/LCBOP/Higher-Symm/Only-C60/SD-CG/FIRE-HFTN
REM
REM
REM
REM
REM
REM ./C.cell (50c204cfd26239f34c78669fe23a5462)
REM
REM compiler GCC version 9.2.1 20190827 (Red Hat 9.2.1-1)
REM options -cpp -mtune=generic -march=x86-64 -g -O0 -fpre-include=/usr/include/finclude/math-vector-fortran.h
REM seed 184479433 2120722604 -1863952999 2019178296 1303646059 -2076119395 1605258 2036711998 1783058682 -295589718 734648294 -1945222669 -624337571 271921985 106121052 -471859546 -1005372002 453385128 1460700530 -2090270374 1856276324 993747373 2041710934 -1777847631 -1054120906 2096060022 -275728747 -989802430 1797832760 702531620 -53677850 -1096477474 905330843
REM
CELL 1.54180   50.00000   50.00000   50.00000   90.00000   90.00000   90.00000
LATT -1
SFAC C  
C      1  0.4597360000000  0.5156330000000  0.4098950000000 1.0
C      1  0.4018350000000  0.4843680000000  0.4898170000000 1.0
C      1  0.4420990000000  0.5156330000000  0.5799220000000 1.0
C      1  0.5402640000000  0.4843670000000  0.5901050000000 1.0
C      1  0.5981650000000  0.5156320000000  0.5101830000000 1.0
C      1  0.5579010000000  0.4843670000000  0.4200780000000 1.0
C      1  0.4659560000000  0.5439730000000  0.5469910000000 1.0
C      1  0.5236730000000  0.4560270000000  0.5529790000000 1.0
C      1  0.5577180000000  0.5439730000000  0.5059870000000 1.0
C      1  0.5340440000000  0.4560270000000  0.4530090000000 1.0
C      1  0.4763270000000  0.5439730000000  0.4470210000000 1.0
C      1  0.4422820000000  0.4560270000000  0.4940130000000 1.0
C      1  0.4827920000000  0.4512100000000  0.5237520000000 1.0
C      1  0.5119660000000  0.5487900000000  0.5267780000000 1.0
C      1  0.5291740000000  0.4512100000000  0.5030260000000 1.0
C      1  0.5172080000000  0.5487900000000  0.4762480000000 1.0
C      1  0.4880340000000  0.4512100000000  0.4732220000000 1.0
C      1  0.4708260000000  0.5487900000000  0.4969740000000 1.0
C      1  0.4451670000000  0.5060660000000  0.4943120000000 1.0
C      1  0.4676570000000  0.4939340000000  0.5446430000000 1.0
C      1  0.5224900000000  0.5060660000000  0.5503310000000 1.0
C      1  0.5548330000000  0.4939340000000  0.5056880000000 1.0
C      1  0.5323430000000  0.5060660000000  0.4553570000000 1.0
C      1  0.4775100000000  0.4939340000000  0.4496690000000 1.0
C      1  0.5273230000000  0.4997420000000  0.5028340000000 1.0
C      1  0.5161160000000  0.5002580000000  0.4777550000000 1.0
C      1  0.4887930000000  0.4997430000000  0.4749200000000 1.0
C      1  0.4726770000000  0.5002580000000  0.4971660000000 1.0
C      1  0.4838840000000  0.4997420000000  0.5222450000000 1.0
C      1  0.5112070000000  0.5002570000000  0.5250800000000 1.0
C      1  0.5304140000000  0.4338900000000  0.5680630000000 1.0
C      1  0.5741520000000  0.5661100000000  0.5076920000000 1.0
C      1  0.5437370000000  0.4338900000000  0.4396290000000 1.0
C      1  0.4695860000000  0.5661100000000  0.4319370000000 1.0
C      1  0.4258480000000  0.4338900000000  0.4923080000000 1.0
C      1  0.4562630000000  0.5661100000000  0.5603710000000 1.0
C      1  0.4676320000000  0.4650780000000  0.5446770000000 1.0
C      1  0.5225080000000  0.5349220000000  0.5503700000000 1.0
C      1  0.5548750000000  0.4650780000000  0.5056930000000 1.0
C      1  0.5323680000000  0.5349220000000  0.4553230000000 1.0
C      1  0.4774920000000  0.4650780000000  0.4496300000000 1.0
C      1  0.4451250000000  0.5349220000000  0.4943070000000 1.0
C      1  0.5291450000000  0.5493060000000  0.5030230000000 1.0
C      1  0.5171910000000  0.4506940000000  0.4762710000000 1.0
C      1  0.4880460000000  0.5493060000000  0.4732480000000 1.0
C      1  0.4708550000000  0.4506940000000  0.4969770000000 1.0
C      1  0.4828090000000  0.5493060000000  0.5237290000000 1.0
C      1  0.5119540000000  0.4506940000000  0.5267520000000 1.0
C      1  0.3760360000000  0.4868950000000  0.4871400000000 1.0
C      1  0.4268810000000  0.5131050000000  0.6009270000000 1.0
C      1  0.5508450000000  0.4868950000000  0.6137860000000 1.0
C      1  0.6239640000000  0.5131050000000  0.5128600000000 1.0
C      1  0.5731190000000  0.4868950000000  0.3990730000000 1.0
C      1  0.4491550000000  0.5131050000000  0.3862140000000 1.0
C      1  0.4584580000000  0.5175870000000  0.5573400000000 1.0
C      1  0.5288870000000  0.4824130000000  0.5646460000000 1.0
C      1  0.5704290000000  0.5175860000000  0.5073060000000 1.0
C      1  0.5415420000000  0.4824130000000  0.4426600000000 1.0
C      1  0.4711130000000  0.5175870000000  0.4353540000000 1.0
C      1  0.4295710000000  0.4824140000000  0.4926940000000 1.0
END
