TITL C-2323488-8613-183 0.00376282627081205 125000 -357.775885357008 0 0 60 (C3) n - 1
REM
REM in /home/bkarasulu/CARBON/AIRSS/Generating-Clusters/LCBOP/Higher-Symm/Only-C60/SD-CG/FIRE-HFTN
REM
REM
REM
REM
REM
REM ./C.cell (50c204cfd26239f34c78669fe23a5462)
REM
REM compiler GCC version 9.2.1 20190827 (Red Hat 9.2.1-1)
REM options -cpp -mtune=generic -march=x86-64 -g -O0 -fpre-include=/usr/include/finclude/math-vector-fortran.h
REM seed -816168540 641091522 1209575320 1139889837 -1741383185 2007384724 -1981217843 1705629220 -756344307 -501071059 -889219200 -1276575815 -630287048 -596705101 -1690304547 -1590835358 877990703 1253725182 -1319099438 -1958043709 697502056 -1983739248 2036902325 -835454459 338223605 -1206826942 -1210519167 25228075 -287981473 1653359689 -617503916 348864112 -1794875290
REM
CELL 1.54180   50.00000   50.00000   50.00000   90.00000   90.00000   90.00000
LATT -1
SFAC C  
C      1  0.4126570000000  0.4936740000000  0.5180560000000 1.0
C      1  0.5491530000000  0.4275230000000  0.5180520000000 1.0
C      1  0.5381930000000  0.5788080000000  0.5180410000000 1.0
C      1  0.4187560000000  0.4918410000000  0.4897900000000 1.0
C      1  0.5476860000000  0.4337190000000  0.4897860000000 1.0
C      1  0.5335560000000  0.5744370000000  0.4897760000000 1.0
C      1  0.4558540000000  0.5614920000000  0.4810880000000 1.0
C      1  0.4688170000000  0.4310210000000  0.4810980000000 1.0
C      1  0.5753260000000  0.5074830000000  0.4810850000000 1.0
C      1  0.4434130000000  0.5368220000000  0.4899950000000 1.0
C      1  0.4964030000000  0.4325830000000  0.4899990000000 1.0
C      1  0.5601820000000  0.5305930000000  0.4899870000000 1.0
C      1  0.4469220000000  0.5496070000000  0.5812920000000 1.0
C      1  0.4835910000000  0.4292340000000  0.5812990000000 1.0
C      1  0.5695030000000  0.5211780000000  0.5812860000000 1.0
C      1  0.5324560000000  0.5597650000000  0.5388610000000 1.0
C      1  0.4320210000000  0.4982280000000  0.5388720000000 1.0
C      1  0.5355310000000  0.4420170000000  0.5388700000000 1.0
C      1  0.4556960000000  0.5253710000000  0.5127220000000 1.0
C      1  0.5001820000000  0.4489470000000  0.5127250000000 1.0
C      1  0.5441240000000  0.5256850000000  0.5127160000000 1.0
C      1  0.4430510000000  0.5257220000000  0.5389420000000 1.0
C      1  0.5062050000000  0.4378220000000  0.5389450000000 1.0
C      1  0.5507520000000  0.5364650000000  0.5389340000000 1.0
C      1  0.4752780000000  0.4906280000000  0.4846410000000 1.0
C      1  0.5204750000000  0.4832750000000  0.4846390000000 1.0
C      1  0.5042440000000  0.5260930000000  0.4846360000000 1.0
C      1  0.5199360000000  0.4322100000000  0.4476260000000 1.0
C      1  0.5487320000000  0.5511570000000  0.4476140000000 1.0
C      1  0.4313220000000  0.5166210000000  0.4476250000000 1.0
C      1  0.5488070000000  0.4902860000000  0.5496510000000 1.0
C      1  0.4840170000000  0.5471280000000  0.5496510000000 1.0
C      1  0.4671860000000  0.4625980000000  0.5496590000000 1.0
C      1  0.4272660000000  0.4655680000000  0.4803080000000 1.0
C      1  0.5661830000000  0.4542250000000  0.4803000000000 1.0
C      1  0.5065470000000  0.5802020000000  0.4802940000000 1.0
C      1  0.5648050000000  0.4818050000000  0.4725680000000 1.0
C      1  0.4833500000000  0.5652190000000  0.4725670000000 1.0
C      1  0.4518390000000  0.4529700000000  0.4725770000000 1.0
C      1  0.5569020000000  0.5162820000000  0.5576540000000 1.0
C      1  0.4574580000000  0.5411420000000  0.5576580000000 1.0
C      1  0.4856510000000  0.4425900000000  0.5576640000000 1.0
C      1  0.4857560000000  0.4674090000000  0.4405360000000 1.0
C      1  0.5353360000000  0.5039570000000  0.4405300000000 1.0
C      1  0.4788950000000  0.5286200000000  0.4405310000000 1.0
C      1  0.4678510000000  0.4985380000000  0.5104780000000 1.0
C      1  0.5173420000000  0.4728890000000  0.5104770000000 1.0
C      1  0.5148090000000  0.5285750000000  0.5104720000000 1.0
C      1  0.5508610000000  0.5546590000000  0.4756640000000 1.0
C      1  0.4272290000000  0.5167160000000  0.4756750000000 1.0
C      1  0.5219050000000  0.4286190000000  0.4756760000000 1.0
C      1  0.5065260000000  0.5458800000000  0.5332220000000 1.0
C      1  0.4570100000000  0.4827130000000  0.5332300000000 1.0
C      1  0.5364710000000  0.4714140000000  0.5332260000000 1.0
C      1  0.5380230000000  0.4877840000000  0.4632560000000 1.0
C      1  0.4915620000000  0.5390340000000  0.4632550000000 1.0
C      1  0.4704090000000  0.4731730000000  0.4632610000000 1.0
C      1  0.5414180000000  0.5292580000000  0.4336490000000 1.0
C      1  0.4539420000000  0.5212360000000  0.4336550000000 1.0
C      1  0.5046270000000  0.4494900000000  0.4336580000000 1.0
END
