TITL C-2323482-8828-478 6.9176853745084e-06 125000 -373.419472534917 0 0 60 (C1) n - 1
REM
REM in /home/bkarasulu/CARBON/AIRSS/Generating-Clusters/LCBOP/Higher-Symm/Only-C60/SD-CG/FIRE-HFTN
REM
REM
REM
REM
REM
REM ./C.cell (50c204cfd26239f34c78669fe23a5462)
REM
REM compiler GCC version 9.2.1 20190827 (Red Hat 9.2.1-1)
REM options -cpp -mtune=generic -march=x86-64 -g -O0 -fpre-include=/usr/include/finclude/math-vector-fortran.h
REM seed -1100594162 -947969467 1273101042 1273911761 -915181247 3017728 845994847 -465114095 -70208289 -1886129058 1093871423 1758665760 141869591 -1432300348 1307134983 1798634282 1878740066 -1696286102 1069199151 1132461229 911515198 2065494653 1845219991 -35706767 2116376774 -679794554 -1019489602 -249897926 -1725225410 -1310162463 1213254507 -1609415512 -1360567222
REM
CELL 1.54180   50.00000   50.00000   50.00000   90.00000   90.00000   90.00000
LATT -1
SFAC C  
C      1  0.5216000000000  0.5321250000000  0.5802520000000 1.0
C      1  0.4339730000000  0.5237720000000  0.5186810000000 1.0
C      1  0.4418820000000  0.5332180000000  0.4403210000000 1.0
C      1  0.5335990000000  0.5332940000000  0.4285160000000 1.0
C      1  0.5827950000000  0.5304800000000  0.5077630000000 1.0
C      1  0.5063690000000  0.5326110000000  0.4410240000000 1.0
C      1  0.4407600000000  0.5303760000000  0.4695610000000 1.0
C      1  0.4683010000000  0.5299940000000  0.5524260000000 1.0
C      1  0.5322920000000  0.5320050000000  0.5524290000000 1.0
C      1  0.5611940000000  0.5313510000000  0.4870850000000 1.0
C      1  0.5398060000000  0.5659710000000  0.5171240000000 1.0
C      1  0.4948100000000  0.5645940000000  0.5351800000000 1.0
C      1  0.4502170000000  0.5490610000000  0.5139870000000 1.0
C      1  0.4781050000000  0.5626980000000  0.4727920000000 1.0
C      1  0.5269890000000  0.5656510000000  0.4712560000000 1.0
C      1  0.5448250000000  0.5568410000000  0.4910520000000 1.0
C      1  0.5027970000000  0.5561570000000  0.4603890000000 1.0
C      1  0.4543340000000  0.5533810000000  0.4852960000000 1.0
C      1  0.4691310000000  0.5530190000000  0.5352660000000 1.0
C      1  0.5220280000000  0.5564890000000  0.5368370000000 1.0
C      1  0.4709550000000  0.4253030000000  0.5326150000000 1.0
C      1  0.4590500000000  0.4262180000000  0.4850990000000 1.0
C      1  0.5016420000000  0.4245020000000  0.4595080000000 1.0
C      1  0.5400880000000  0.4231650000000  0.4902030000000 1.0
C      1  0.5205960000000  0.4231030000000  0.5353450000000 1.0
C      1  0.4759780000000  0.4140630000000  0.4657240000000 1.0
C      1  0.4564070000000  0.4145380000000  0.5107980000000 1.0
C      1  0.4948840000000  0.4126650000000  0.5414030000000 1.0
C      1  0.5373990000000  0.4112450000000  0.5158580000000 1.0
C      1  0.5255180000000  0.4121380000000  0.4684350000000 1.0
C      1  0.5594230000000  0.5321470000000  0.4355450000000 1.0
C      1  0.5821810000000  0.5311620000000  0.5346410000000 1.0
C      1  0.4973820000000  0.5320810000000  0.5918800000000 1.0
C      1  0.4092660000000  0.5223750000000  0.5051060000000 1.0
C      1  0.4590090000000  0.5337580000000  0.4199110000000 1.0
C      1  0.5624200000000  0.5322690000000  0.5527720000000 1.0
C      1  0.5719810000000  0.5309980000000  0.4592860000000 1.0
C      1  0.4857100000000  0.5330460000000  0.4198750000000 1.0
C      1  0.4122770000000  0.5263660000000  0.4783250000000 1.0
C      1  0.4732740000000  0.5312480000000  0.5799280000000 1.0
C      1  0.5215660000000  0.4518940000000  0.5352090000000 1.0
C      1  0.4721800000000  0.4542590000000  0.5326140000000 1.0
C      1  0.4603840000000  0.4551970000000  0.4855070000000 1.0
C      1  0.5027710000000  0.4532720000000  0.4601930000000 1.0
C      1  0.5407250000000  0.4521900000000  0.4905980000000 1.0
C      1  0.5269050000000  0.4661500000000  0.4694610000000 1.0
C      1  0.4786090000000  0.4671230000000  0.4666680000000 1.0
C      1  0.4578350000000  0.4687670000000  0.5114460000000 1.0
C      1  0.4972150000000  0.4657240000000  0.5409160000000 1.0
C      1  0.5387940000000  0.4653380000000  0.5162550000000 1.0
C      1  0.5392430000000  0.4943320000000  0.5165720000000 1.0
C      1  0.4983570000000  0.4938560000000  0.5413040000000 1.0
C      1  0.4549520000000  0.5003210000000  0.5129260000000 1.0
C      1  0.4791740000000  0.4954130000000  0.4660010000000 1.0
C      1  0.5272360000000  0.4950500000000  0.4699560000000 1.0
C      1  0.5426820000000  0.5071560000000  0.4910220000000 1.0
C      1  0.5039840000000  0.5077780000000  0.4587690000000 1.0
C      1  0.4587110000000  0.5073120000000  0.4809360000000 1.0
C      1  0.4738990000000  0.5066360000000  0.5369340000000 1.0
C      1  0.5235310000000  0.5067520000000  0.5372220000000 1.0
END
