TITL C-2323480-5884-590 0.00923445056950776 125000 -347.93639610123 0 0 60 (C3) n - 1
REM
REM in /home/bkarasulu/CARBON/AIRSS/Generating-Clusters/LCBOP/Higher-Symm/Only-C60/SD-CG/FIRE-HFTN
REM
REM
REM
REM
REM
REM ./C.cell (50c204cfd26239f34c78669fe23a5462)
REM
REM compiler GCC version 9.2.1 20190827 (Red Hat 9.2.1-1)
REM options -cpp -mtune=generic -march=x86-64 -g -O0 -fpre-include=/usr/include/finclude/math-vector-fortran.h
REM seed 970609312 1437835209 1228568366 1003674211 -27349185 557658344 -1161811272 541180699 -1287493548 -333953281 -1018408018 1097712677 1317750114 -1515105985 -116640672 1365817181 -30897232 -704988247 -87548964 1709687656 2103074646 -655100853 -349401140 799419662 -1593840954 2100792645 -960924098 -1870513249 181450867 -2013023019 316361239 31331366 23577404
REM
CELL 1.54180   50.00000   50.00000   50.00000   90.00000   90.00000   90.00000
LATT -1
SFAC C  
C      1  0.4859500000000  0.6247210000000  0.5416830000000 1.0
C      1  0.4857390000000  0.4743480000000  0.3708120000000 1.0
C      1  0.4859640000000  0.4011570000000  0.5870200000000 1.0
C      1  0.4854470000000  0.4366320000000  0.4873830000000 1.0
C      1  0.4852280000000  0.5207470000000  0.5612650000000 1.0
C      1  0.4852760000000  0.5426540000000  0.4515800000000 1.0
C      1  0.4929690000000  0.4346640000000  0.5445730000000 1.0
C      1  0.4928550000000  0.5711500000000  0.5341990000000 1.0
C      1  0.4927530000000  0.4941990000000  0.4211100000000 1.0
C      1  0.4687770000000  0.5547870000000  0.5312170000000 1.0
C      1  0.4687260000000  0.4997550000000  0.4368570000000 1.0
C      1  0.4689200000000  0.4454780000000  0.5318750000000 1.0
C      1  0.5346730000000  0.5224570000000  0.4244090000000 1.0
C      1  0.5348810000000  0.4233270000000  0.5184380000000 1.0
C      1  0.5346790000000  0.5542700000000  0.5572710000000 1.0
C      1  0.5136130000000  0.5189900000000  0.5191220000000 1.0
C      1  0.5134950000000  0.5067370000000  0.4739250000000 1.0
C      1  0.5138440000000  0.4739490000000  0.5071490000000 1.0
C      1  0.4626240000000  0.5333190000000  0.5494540000000 1.0
C      1  0.4626170000000  0.5262740000000  0.4463880000000 1.0
C      1  0.4628040000000  0.4404520000000  0.5041480000000 1.0
C      1  0.4894270000000  0.4145240000000  0.4720940000000 1.0
C      1  0.4891570000000  0.5187210000000  0.5880760000000 1.0
C      1  0.4893260000000  0.5669780000000  0.4401620000000 1.0
C      1  0.4825320000000  0.6503200000000  0.5452390000000 1.0
C      1  0.4822730000000  0.4648580000000  0.3467800000000 1.0
C      1  0.4825000000000  0.3851560000000  0.6073070000000 1.0
C      1  0.5680440000000  0.4905200000000  0.5188670000000 1.0
C      1  0.5678070000000  0.5204270000000  0.4990120000000 1.0
C      1  0.5681220000000  0.4889400000000  0.4817380000000 1.0
C      1  0.5457050000000  0.4279450000000  0.4939350000000 1.0
C      1  0.5454680000000  0.5307990000000  0.5657170000000 1.0
C      1  0.5455400000000  0.5413430000000  0.4406530000000 1.0
C      1  0.5272950000000  0.4886270000000  0.4566170000000 1.0
C      1  0.5275460000000  0.4681450000000  0.5315730000000 1.0
C      1  0.5274380000000  0.5429690000000  0.5119270000000 1.0
C      1  0.5018490000000  0.5100850000000  0.5415200000000 1.0
C      1  0.5018120000000  0.5306490000000  0.4706120000000 1.0
C      1  0.5020630000000  0.4590560000000  0.4882120000000 1.0
C      1  0.4892390000000  0.4839900000000  0.3952370000000 1.0
C      1  0.4894610000000  0.4174230000000  0.5664040000000 1.0
C      1  0.4894000000000  0.5987050000000  0.5380650000000 1.0
C      1  0.5493730000000  0.4854260000000  0.5387990000000 1.0
C      1  0.5493260000000  0.5404410000000  0.4934260000000 1.0
C      1  0.5493270000000  0.4739340000000  0.4678670000000 1.0
C      1  0.4525680000000  0.4790430000000  0.4473050000000 1.0
C      1  0.4526790000000  0.4648190000000  0.5445830000000 1.0
C      1  0.4525180000000  0.5561700000000  0.5081290000000 1.0
C      1  0.5489510000000  0.5492390000000  0.4663100000000 1.0
C      1  0.5490130000000  0.4461300000000  0.4741690000000 1.0
C      1  0.5488450000000  0.5045820000000  0.5599100000000 1.0
C      1  0.4401460000000  0.4884090000000  0.5465330000000 1.0
C      1  0.4400060000000  0.5461630000000  0.4866660000000 1.0
C      1  0.4401830000000  0.4654430000000  0.4667720000000 1.0
C      1  0.5202680000000  0.4404060000000  0.5361710000000 1.0
C      1  0.5201330000000  0.5609440000000  0.5335380000000 1.0
C      1  0.5200390000000  0.4985760000000  0.4303130000000 1.0
C      1  0.4410550000000  0.4514590000000  0.4897920000000 1.0
C      1  0.4409070000000  0.5153450000000  0.5470530000000 1.0
C      1  0.4408280000000  0.5332200000000  0.4630400000000 1.0
END
