TITL C-2323485-8600-195 2.68296117197387e-05 125000 -338.41222126757 0 0 60 (C1) n - 1
REM
REM in /home/bkarasulu/CARBON/AIRSS/Generating-Clusters/LCBOP/Higher-Symm/Only-C60/SD-CG/FIRE-HFTN
REM
REM
REM
REM
REM
REM ./C.cell (50c204cfd26239f34c78669fe23a5462)
REM
REM compiler GCC version 9.2.1 20190827 (Red Hat 9.2.1-1)
REM options -cpp -mtune=generic -march=x86-64 -g -O0 -fpre-include=/usr/include/finclude/math-vector-fortran.h
REM seed -197399697 1857855809 -1896563149 -261623692 -1063526189 -708070103 1798347203 -1123969486 -1143398428 251685765 -1100630472 1548780505 -525057955 -1912461497 -433594289 1748645301 1430692683 1074488651 -321816382 -2134317198 400309167 -2090252919 -174334160 -406242480 1364751765 675030733 -830893475 -674589279 -115520847 1955068186 -312212414 585520151 -2070267934
REM
CELL 1.54180   50.00000   50.00000   50.00000   90.00000   90.00000   90.00000
LATT -1
SFAC C  
C      1  0.5283960000000  0.5094520000000  0.5260920000000 1.0
C      1  0.5294540000000  0.5266720000000  0.5002620000000 1.0
C      1  0.5283270000000  0.5077690000000  0.4754980000000 1.0
C      1  0.5272800000000  0.4782140000000  0.4856110000000 1.0
C      1  0.5286110000000  0.4788210000000  0.5175950000000 1.0
C      1  0.4786400000000  0.5107860000000  0.5244090000000 1.0
C      1  0.4796150000000  0.5267490000000  0.4973220000000 1.0
C      1  0.4785970000000  0.5057650000000  0.4744240000000 1.0
C      1  0.4770340000000  0.4770970000000  0.4870480000000 1.0
C      1  0.4785810000000  0.4802340000000  0.5179690000000 1.0
C      1  0.4318730000000  0.5165570000000  0.5212410000000 1.0
C      1  0.4323510000000  0.5278410000000  0.4935860000000 1.0
C      1  0.4308180000000  0.5054580000000  0.4740800000000 1.0
C      1  0.4279520000000  0.4809330000000  0.4893460000000 1.0
C      1  0.4295070000000  0.4875650000000  0.5190750000000 1.0
C      1  0.5806580000000  0.5047820000000  0.5247510000000 1.0
C      1  0.5820310000000  0.5201320000000  0.5006770000000 1.0
C      1  0.5799040000000  0.5017410000000  0.4786980000000 1.0
C      1  0.5757730000000  0.4741800000000  0.4890520000000 1.0
C      1  0.5765760000000  0.4755680000000  0.5181000000000 1.0
C      1  0.4538450000000  0.5042200000000  0.4564710000000 1.0
C      1  0.4497610000000  0.4608400000000  0.4856300000000 1.0
C      1  0.4520540000000  0.4684520000000  0.5310660000000 1.0
C      1  0.4545850000000  0.5248870000000  0.5368510000000 1.0
C      1  0.4558100000000  0.5441310000000  0.4887500000000 1.0
C      1  0.5562910000000  0.5100950000000  0.4601060000000 1.0
C      1  0.5516380000000  0.4627000000000  0.4733960000000 1.0
C      1  0.5531540000000  0.4692640000000  0.5347910000000 1.0
C      1  0.5560560000000  0.5150440000000  0.5421380000000 1.0
C      1  0.5583790000000  0.5407560000000  0.4995000000000 1.0
C      1  0.5592350000000  0.5423890000000  0.4664590000000 1.0
C      1  0.5542060000000  0.4809370000000  0.4464420000000 1.0
C      1  0.5440810000000  0.4346650000000  0.4807650000000 1.0
C      1  0.5540800000000  0.4884500000000  0.5584210000000 1.0
C      1  0.5587080000000  0.5460880000000  0.5320570000000 1.0
C      1  0.4621470000000  0.5606720000000  0.4666590000000 1.0
C      1  0.4586540000000  0.4878210000000  0.4338250000000 1.0
C      1  0.4485310000000  0.4451210000000  0.5111190000000 1.0
C      1  0.4583060000000  0.4697850000000  0.5601130000000 1.0
C      1  0.4610340000000  0.5507220000000  0.5464560000000 1.0
C      1  0.5084900000000  0.4356640000000  0.5161370000000 1.0
C      1  0.4968230000000  0.4997060000000  0.5675980000000 1.0
C      1  0.4995510000000  0.5649770000000  0.5202750000000 1.0
C      1  0.4992410000000  0.5382520000000  0.4443860000000 1.0
C      1  0.4961060000000  0.4590530000000  0.4466240000000 1.0
C      1  0.4823970000000  0.5804770000000  0.4271230000000 1.0
C      1  0.4771150000000  0.4560570000000  0.4019640000000 1.0
C      1  0.4814780000000  0.5940480000000  0.5548080000000 1.0
C      1  0.5258290000000  0.3936790000000  0.4991720000000 1.0
C      1  0.4768560000000  0.4754780000000  0.6045680000000 1.0
C      1  0.5012700000000  0.4654810000000  0.4738480000000 1.0
C      1  0.5035680000000  0.5145000000000  0.4594010000000 1.0
C      1  0.5027950000000  0.5117640000000  0.5424900000000 1.0
C      1  0.5044540000000  0.5436490000000  0.5021490000000 1.0
C      1  0.5037260000000  0.4629530000000  0.5237220000000 1.0
C      1  0.5261400000000  0.4210850000000  0.4987080000000 1.0
C      1  0.4772770000000  0.4673460000000  0.4268410000000 1.0
C      1  0.4773130000000  0.4815510000000  0.5779010000000 1.0
C      1  0.4807040000000  0.5705690000000  0.5408930000000 1.0
C      1  0.4812870000000  0.5603510000000  0.4455430000000 1.0
END
