TITL C-2323487-9546-420 0.180884584914209 125000 -355.675921454214 0 0 60 (C1) n - 1
REM
REM in /home/bkarasulu/CARBON/AIRSS/Generating-Clusters/LCBOP/Higher-Symm/Only-C60/SD-CG/FIRE-HFTN
REM
REM
REM
REM
REM
REM ./C.cell (50c204cfd26239f34c78669fe23a5462)
REM
REM compiler GCC version 9.2.1 20190827 (Red Hat 9.2.1-1)
REM options -cpp -mtune=generic -march=x86-64 -g -O0 -fpre-include=/usr/include/finclude/math-vector-fortran.h
REM seed -1186652400 199003038 -2076265736 385012800 378877891 -884198412 614085805 -1298521738 -322481873 1341833699 795414886 -1195942591 333476112 1063419811 -676607457 -1251200764 -1383523501 1469622293 -226090073 911350574 -760891840 1302198583 1697974735 -1779133939 1990915334 214123606 1054202882 -2048696780 2115638422 -819791658 581739437 676062398 2029543294
REM
CELL 1.54180   50.00000   50.00000   50.00000   90.00000   90.00000   90.00000
LATT -1
SFAC C  
C      1  0.5087420000000  0.4696780000000  0.5092900000000 1.0
C      1  0.5210730000000  0.5190410000000  0.5088640000000 1.0
C      1  0.4744660000000  0.5070670000000  0.5098690000000 1.0
C      1  0.5501130000000  0.4856860000000  0.4912180000000 1.0
C      1  0.4910710000000  0.5431850000000  0.5396680000000 1.0
C      1  0.4642300000000  0.4626560000000  0.4947310000000 1.0
C      1  0.6440390000000  0.5866270000000  0.5101920000000 1.0
C      1  0.3780110000000  0.6103250000000  0.5039720000000 1.0
C      1  0.4816480000000  0.3314340000000  0.5352120000000 1.0
C      1  0.5605060000000  0.5356910000000  0.4795240000000 1.0
C      1  0.4490880000000  0.5420980000000  0.4833360000000 1.0
C      1  0.4955080000000  0.4224680000000  0.4897840000000 1.0
C      1  0.6297820000000  0.5628810000000  0.5071990000000 1.0
C      1  0.4012310000000  0.6001070000000  0.5155300000000 1.0
C      1  0.4718530000000  0.3566130000000  0.5284280000000 1.0
C      1  0.5009410000000  0.4664450000000  0.4505520000000 1.0
C      1  0.5221950000000  0.5088090000000  0.4451530000000 1.0
C      1  0.4670860000000  0.5026500000000  0.4356920000000 1.0
C      1  0.4600600000000  0.5457640000000  0.4574220000000 1.0
C      1  0.4784240000000  0.4290200000000  0.4670120000000 1.0
C      1  0.5649610000000  0.5148340000000  0.4594960000000 1.0
C      1  0.5049390000000  0.5304430000000  0.4497010000000 1.0
C      1  0.4562960000000  0.4830670000000  0.4535440000000 1.0
C      1  0.5295970000000  0.4648140000000  0.4554080000000 1.0
C      1  0.5145980000000  0.5474960000000  0.4702430000000 1.0
C      1  0.4413230000000  0.4957570000000  0.4749310000000 1.0
C      1  0.5349270000000  0.4451650000000  0.4756010000000 1.0
C      1  0.4705410000000  0.5814150000000  0.5687290000000 1.0
C      1  0.4262540000000  0.4315840000000  0.5164880000000 1.0
C      1  0.6003370000000  0.4781030000000  0.5078360000000 1.0
C      1  0.6038010000000  0.5627230000000  0.4967180000000 1.0
C      1  0.4158450000000  0.5798040000000  0.5029400000000 1.0
C      1  0.4878450000000  0.3753780000000  0.5151170000000 1.0
C      1  0.6381270000000  0.5118890000000  0.5168930000000 1.0
C      1  0.4284570000000  0.6093280000000  0.5597080000000 1.0
C      1  0.4269980000000  0.3831820000000  0.5338580000000 1.0
C      1  0.5808320000000  0.5527060000000  0.4880150000000 1.0
C      1  0.4336300000000  0.5614300000000  0.4959230000000 1.0
C      1  0.4944920000000  0.3979920000000  0.5029520000000 1.0
C      1  0.5282200000000  0.4910240000000  0.5077570000000 1.0
C      1  0.4950370000000  0.5244040000000  0.5195940000000 1.0
C      1  0.4816080000000  0.4790810000000  0.5091220000000 1.0
C      1  0.4419560000000  0.4497330000000  0.5052100000000 1.0
C      1  0.5751440000000  0.4771050000000  0.4995990000000 1.0
C      1  0.4842330000000  0.5618130000000  0.5572260000000 1.0
C      1  0.4908250000000  0.3078790000000  0.5415520000000 1.0
C      1  0.6573660000000  0.6088480000000  0.5129860000000 1.0
C      1  0.3563070000000  0.6198610000000  0.4931450000000 1.0
C      1  0.5148610000000  0.4432920000000  0.4962980000000 1.0
C      1  0.5331540000000  0.5374010000000  0.4895730000000 1.0
C      1  0.4523410000000  0.5153550000000  0.4929980000000 1.0
C      1  0.4202240000000  0.4079500000000  0.5269880000000 1.0
C      1  0.6231430000000  0.4900970000000  0.5142650000000 1.0
C      1  0.4505190000000  0.5988090000000  0.5701440000000 1.0
C      1  0.4456190000000  0.3642130000000  0.5346300000000 1.0
C      1  0.6408540000000  0.5382270000000  0.5145470000000 1.0
C      1  0.4106070000000  0.6098380000000  0.5400340000000 1.0
C      1  0.4774360000000  0.5282980000000  0.4432980000000 1.0
C      1  0.4730350000000  0.4591790000000  0.4640690000000 1.0
C      1  0.5436430000000  0.4922380000000  0.4602180000000 1.0
END
