TITL C-2323490-8774-198 -0.000188776945237073 125000 -354.68308287876 0 0 60 (C1) n - 1
REM
REM in /home/bkarasulu/CARBON/AIRSS/Generating-Clusters/LCBOP/Higher-Symm/Only-C60/SD-CG/FIRE-HFTN
REM
REM
REM
REM
REM
REM ./C.cell (50c204cfd26239f34c78669fe23a5462)
REM
REM compiler GCC version 9.2.1 20190827 (Red Hat 9.2.1-1)
REM options -cpp -mtune=generic -march=x86-64 -g -O0 -fpre-include=/usr/include/finclude/math-vector-fortran.h
REM seed -662057111 1131191204 1663319034 2022121714 545817400 1015455285 393198073 1907582085 1734397522 1437286665 1431315704 316705897 1272406903 1361269480 -1139354737 541634314 -1722129896 438924061 -206710649 -1743045520 6664422 -940186234 1593342901 72021338 429054253 292756832 2110323950 -273539325 337881357 1582399549 977078398 389755144 1733966527
REM
CELL 1.54180   50.00000   50.00000   50.00000   90.00000   90.00000   90.00000
LATT -1
SFAC C  
C      1  0.4779650000000  0.4506400000000  0.4838110000000 1.0
C      1  0.4664250000000  0.4683860000000  0.4399580000000 1.0
C      1  0.4505970000000  0.6032670000000  0.5286140000000 1.0
C      1  0.5039320000000  0.5253250000000  0.4213890000000 1.0
C      1  0.4586400000000  0.4706490000000  0.5542080000000 1.0
C      1  0.5635340000000  0.4366600000000  0.4589640000000 1.0
C      1  0.5286560000000  0.4603230000000  0.5263880000000 1.0
C      1  0.5054830000000  0.5581910000000  0.5063720000000 1.0
C      1  0.4905590000000  0.4229360000000  0.4469060000000 1.0
C      1  0.5433850000000  0.5285940000000  0.5348710000000 1.0
C      1  0.4540180000000  0.5778920000000  0.5186540000000 1.0
C      1  0.4932580000000  0.5548910000000  0.4575850000000 1.0
C      1  0.5375630000000  0.5430330000000  0.4725490000000 1.0
C      1  0.5263610000000  0.4125180000000  0.5255330000000 1.0
C      1  0.5025290000000  0.5505510000000  0.4311060000000 1.0
C      1  0.5693740000000  0.5380690000000  0.5285110000000 1.0
C      1  0.5801140000000  0.4580760000000  0.4587610000000 1.0
C      1  0.5019890000000  0.4954130000000  0.4997220000000 1.0
C      1  0.4802800000000  0.5690390000000  0.5130500000000 1.0
C      1  0.5285150000000  0.5015510000000  0.4932210000000 1.0
C      1  0.4069900000000  0.5181880000000  0.5258940000000 1.0
C      1  0.5221240000000  0.5452730000000  0.5257630000000 1.0
C      1  0.5070560000000  0.4743760000000  0.5663590000000 1.0
C      1  0.4798250000000  0.4925730000000  0.4526760000000 1.0
C      1  0.5285670000000  0.4865590000000  0.4374910000000 1.0
C      1  0.4306450000000  0.5615070000000  0.5147920000000 1.0
C      1  0.5128010000000  0.5558530000000  0.4785970000000 1.0
C      1  0.4612390000000  0.5144580000000  0.4629880000000 1.0
C      1  0.4460290000000  0.4937360000000  0.5083820000000 1.0
C      1  0.4450450000000  0.5059090000000  0.4845430000000 1.0
C      1  0.5046460000000  0.4355190000000  0.4894930000000 1.0
C      1  0.4506420000000  0.5305060000000  0.5450750000000 1.0
C      1  0.6062070000000  0.5214300000000  0.5774330000000 1.0
C      1  0.5839230000000  0.5078880000000  0.5839400000000 1.0
C      1  0.5198690000000  0.4364350000000  0.5136280000000 1.0
C      1  0.6111370000000  0.5366020000000  0.5557260000000 1.0
C      1  0.4510650000000  0.4452830000000  0.4967010000000 1.0
C      1  0.4687370000000  0.5416340000000  0.4621630000000 1.0
C      1  0.4877550000000  0.4798230000000  0.4807700000000 1.0
C      1  0.5506690000000  0.4986610000000  0.4518220000000 1.0
C      1  0.4275610000000  0.5375980000000  0.5302860000000 1.0
C      1  0.5424180000000  0.5039330000000  0.5506640000000 1.0
C      1  0.4717870000000  0.4435010000000  0.4527730000000 1.0
C      1  0.5269190000000  0.4798640000000  0.5469930000000 1.0
C      1  0.5299910000000  0.4587180000000  0.4336310000000 1.0
C      1  0.5037660000000  0.5007930000000  0.4355910000000 1.0
C      1  0.4248850000000  0.4510570000000  0.5011570000000 1.0
C      1  0.5365240000000  0.4369030000000  0.4508770000000 1.0
C      1  0.4118230000000  0.5686650000000  0.4962150000000 1.0
C      1  0.5748480000000  0.4840880000000  0.4536520000000 1.0
C      1  0.4055300000000  0.4686830000000  0.5085740000000 1.0
C      1  0.5141430000000  0.4250570000000  0.4635510000000 1.0
C      1  0.4751830000000  0.5211000000000  0.5396550000000 1.0
C      1  0.5600520000000  0.5030620000000  0.5729150000000 1.0
C      1  0.5948100000000  0.5427340000000  0.5352770000000 1.0
C      1  0.4810250000000  0.4689170000000  0.5686130000000 1.0
C      1  0.4903970000000  0.5076250000000  0.5222000000000 1.0
C      1  0.5427380000000  0.5153530000000  0.4732900000000 1.0
C      1  0.4482940000000  0.4806880000000  0.5318000000000 1.0
C      1  0.3991610000000  0.4934410000000  0.5178770000000 1.0
END
