TITL C-2323479-8056-451 -2.41836633054439e-07 125000 -378.647900575618 0 0 60 (Cs) n - 1
REM
REM in /home/bkarasulu/CARBON/AIRSS/Generating-Clusters/LCBOP/Higher-Symm/Only-C60/SD-CG/FIRE-HFTN
REM
REM
REM
REM
REM
REM ./C.cell (50c204cfd26239f34c78669fe23a5462)
REM
REM compiler GCC version 9.2.1 20190827 (Red Hat 9.2.1-1)
REM options -cpp -mtune=generic -march=x86-64 -g -O0 -fpre-include=/usr/include/finclude/math-vector-fortran.h
REM seed 1011189447 2108372985 -80866660 -1912715864 430201108 -1990037233 -1765939125 1543639894 1831953825 -329633960 -838899958 1581982232 -17843425 264936256 -623564020 -1843367110 2001699971 350551425 1902035907 -1618622846 -1077627803 103351867 -462636341 804297837 -454629934 -198239328 -886429619 -193323052 533819665 -2021328302 1768034137 -37038114 757242280
REM
CELL 1.54180   50.00000   50.00000   50.00000   90.00000   90.00000   90.00000
LATT -1
SFAC C  
C      1  0.5707860000000  0.5268230000000  0.5308890000000 1.0
C      1  0.5633870000000  0.4704750000000  0.4696610000000 1.0
C      1  0.5633790000000  0.5295410000000  0.4696600000000 1.0
C      1  0.5707940000000  0.4731970000000  0.5308900000000 1.0
C      1  0.5224710000000  0.5135860000000  0.4092500000000 1.0
C      1  0.5272540000000  0.4863700000000  0.5911260000000 1.0
C      1  0.5272510000000  0.5136400000000  0.5911250000000 1.0
C      1  0.5224750000000  0.4864170000000  0.4092500000000 1.0
C      1  0.4531180000000  0.4649050000000  0.4439250000000 1.0
C      1  0.4474560000000  0.5352970000000  0.5562830000000 1.0
C      1  0.4474650000000  0.4646900000000  0.5562840000000 1.0
C      1  0.4531090000000  0.5350810000000  0.4439240000000 1.0
C      1  0.5896900000000  0.4604830000000  0.5126120000000 1.0
C      1  0.5870230000000  0.5385480000000  0.4845840000000 1.0
C      1  0.5870330000000  0.4614750000000  0.4845850000000 1.0
C      1  0.5896800000000  0.5395420000000  0.5126100000000 1.0
C      1  0.4272480000000  0.5329880000000  0.4846310000000 1.0
C      1  0.4256620000000  0.4669110000000  0.5131700000000 1.0
C      1  0.4256530000000  0.5330690000000  0.5131690000000 1.0
C      1  0.4272570000000  0.4669920000000  0.4846320000000 1.0
C      1  0.4551270000000  0.5133620000000  0.4283940000000 1.0
C      1  0.4482570000000  0.4866150000000  0.5716850000000 1.0
C      1  0.4482540000000  0.5133730000000  0.5716850000000 1.0
C      1  0.4551310000000  0.4866230000000  0.4283950000000 1.0
C      1  0.5534930000000  0.5151770000000  0.4465430000000 1.0
C      1  0.5602360000000  0.4845340000000  0.5558490000000 1.0
C      1  0.5602310000000  0.5154830000000  0.5558490000000 1.0
C      1  0.5534970000000  0.4848360000000  0.4465440000000 1.0
C      1  0.4729050000000  0.5465800000000  0.5161450000000 1.0
C      1  0.4743820000000  0.4517190000000  0.4861020000000 1.0
C      1  0.4743690000000  0.5482740000000  0.4861010000000 1.0
C      1  0.4729170000000  0.4534130000000  0.5161460000000 1.0
C      1  0.4114270000000  0.5134580000000  0.4714430000000 1.0
C      1  0.4086500000000  0.4865150000000  0.5246610000000 1.0
C      1  0.4086460000000  0.5134610000000  0.5246610000000 1.0
C      1  0.4114310000000  0.4865170000000  0.4714440000000 1.0
C      1  0.4506270000000  0.4576550000000  0.4711150000000 1.0
C      1  0.4475500000000  0.5424400000000  0.5289170000000 1.0
C      1  0.4475620000000  0.4575460000000  0.5289180000000 1.0
C      1  0.4506150000000  0.5423310000000  0.4711140000000 1.0
C      1  0.5040190000000  0.5138510000000  0.5112960000000 1.0
C      1  0.5161680000000  0.4728620000000  0.4893740000000 1.0
C      1  0.5161610000000  0.5271420000000  0.4893730000000 1.0
C      1  0.5040230000000  0.4861500000000  0.5112960000000 1.0
C      1  0.5139370000000  0.4619810000000  0.5511720000000 1.0
C      1  0.5109430000000  0.5437150000000  0.4465240000000 1.0
C      1  0.5109550000000  0.4562870000000  0.4465250000000 1.0
C      1  0.5139260000000  0.5380240000000  0.5511710000000 1.0
C      1  0.5535710000000  0.4862340000000  0.5121740000000 1.0
C      1  0.5435740000000  0.5271920000000  0.4901480000000 1.0
C      1  0.5435810000000  0.4728200000000  0.4901490000000 1.0
C      1  0.5535670000000  0.5137810000000  0.5121740000000 1.0
C      1  0.5305120000000  0.5278250000000  0.4325190000000 1.0
C      1  0.5352720000000  0.4729700000000  0.5671520000000 1.0
C      1  0.5352650000000  0.5270410000000  0.5671510000000 1.0
C      1  0.5305200000000  0.4721810000000  0.4325200000000 1.0
C      1  0.4997530000000  0.4574580000000  0.4727470000000 1.0
C      1  0.4955040000000  0.5336480000000  0.5299100000000 1.0
C      1  0.4955130000000  0.4663510000000  0.5299110000000 1.0
C      1  0.4997410000000  0.5425410000000  0.4727460000000 1.0
END
