TITL C-2323492-8884-496 -0.0116979880724146 125000 -362.722870973969 0 0 60 (C1) n - 1
REM
REM in /home/bkarasulu/CARBON/AIRSS/Generating-Clusters/LCBOP/Higher-Symm/Only-C60/SD-CG/FIRE-HFTN
REM
REM
REM
REM
REM
REM ./C.cell (50c204cfd26239f34c78669fe23a5462)
REM
REM compiler GCC version 9.2.1 20190827 (Red Hat 9.2.1-1)
REM options -cpp -mtune=generic -march=x86-64 -g -O0 -fpre-include=/usr/include/finclude/math-vector-fortran.h
REM seed -1941096203 -2114438694 1198311789 969565218 -1131180531 1920732263 2112995561 1131320980 -508678383 654576323 -1778167362 -1084611906 -421445203 1851940486 -821669171 302054454 1105529163 -1518248691 -1809380780 -127545687 328143608 -1574696333 1005392338 -1084588341 1239832017 -565671371 106506427 205558916 -1130488802 -1097283365 -1958353945 -1395757730 -1451892041
REM
CELL 1.54180   50.00000   50.00000   50.00000   90.00000   90.00000   90.00000
LATT -1
SFAC C  
C      1  0.5361820000000  0.4996570000000  0.4579860000000 1.0
C      1  0.6330430000000  0.5018750000000  0.4694510000000 1.0
C      1  0.5198250000000  0.4359210000000  0.4643430000000 1.0
C      1  0.5414550000000  0.4564080000000  0.5510090000000 1.0
C      1  0.4427030000000  0.4568730000000  0.5545370000000 1.0
C      1  0.5616080000000  0.5587660000000  0.5574150000000 1.0
C      1  0.5599510000000  0.5080530000000  0.5025230000000 1.0
C      1  0.5321640000000  0.5772250000000  0.4438150000000 1.0
C      1  0.4724680000000  0.4740590000000  0.5877710000000 1.0
C      1  0.4454470000000  0.5411310000000  0.4593880000000 1.0
C      1  0.5035850000000  0.5676190000000  0.4963760000000 1.0
C      1  0.4608190000000  0.4267550000000  0.4683840000000 1.0
C      1  0.5012020000000  0.4911480000000  0.4276220000000 1.0
C      1  0.5375200000000  0.4990050000000  0.4873510000000 1.0
C      1  0.4468410000000  0.5564900000000  0.4834110000000 1.0
C      1  0.4426370000000  0.4859670000000  0.5503740000000 1.0
C      1  0.4621190000000  0.4637360000000  0.4391420000000 1.0
C      1  0.4842850000000  0.5110130000000  0.5574820000000 1.0
C      1  0.4199080000000  0.4522350000000  0.4573350000000 1.0
C      1  0.4752760000000  0.5069420000000  0.4620550000000 1.0
C      1  0.5508890000000  0.5810170000000  0.4623850000000 1.0
C      1  0.4084460000000  0.4750200000000  0.4655730000000 1.0
C      1  0.4548650000000  0.5242950000000  0.5235990000000 1.0
C      1  0.4476070000000  0.4390160000000  0.5336950000000 1.0
C      1  0.5651990000000  0.5636510000000  0.5094090000000 1.0
C      1  0.5612220000000  0.5473780000000  0.5319040000000 1.0
C      1  0.5166000000000  0.4856300000000  0.5027390000000 1.0
C      1  0.5298860000000  0.4472220000000  0.5288030000000 1.0
C      1  0.4888270000000  0.5171630000000  0.4851290000000 1.0
C      1  0.5500440000000  0.5033960000000  0.5511760000000 1.0
C      1  0.5567340000000  0.5193390000000  0.5287800000000 1.0
C      1  0.5042800000000  0.4397780000000  0.4876020000000 1.0
C      1  0.5159550000000  0.4574390000000  0.5068060000000 1.0
C      1  0.4990140000000  0.4749510000000  0.5965750000000 1.0
C      1  0.4708510000000  0.5325360000000  0.4471960000000 1.0
C      1  0.4776600000000  0.4299190000000  0.4907660000000 1.0
C      1  0.4556540000000  0.4520460000000  0.5800810000000 1.0
C      1  0.5857290000000  0.5051570000000  0.4920980000000 1.0
C      1  0.5404170000000  0.4807940000000  0.5650540000000 1.0
C      1  0.5623410000000  0.5754040000000  0.4857430000000 1.0
C      1  0.4184910000000  0.4990370000000  0.5060400000000 1.0
C      1  0.4642420000000  0.4951240000000  0.5693930000000 1.0
C      1  0.4152330000000  0.4994900000000  0.4777310000000 1.0
C      1  0.4949440000000  0.5028460000000  0.5083800000000 1.0
C      1  0.5463670000000  0.4750520000000  0.4470910000000 1.0
C      1  0.4646560000000  0.4294970000000  0.5156020000000 1.0
C      1  0.6096440000000  0.5034470000000  0.4808360000000 1.0
C      1  0.5119710000000  0.5623160000000  0.4347630000000 1.0
C      1  0.4786100000000  0.4853040000000  0.4436440000000 1.0
C      1  0.4247000000000  0.5210750000000  0.4614580000000 1.0
C      1  0.4815880000000  0.5152260000000  0.5300930000000 1.0
C      1  0.5236410000000  0.4810620000000  0.5876900000000 1.0
C      1  0.4980250000000  0.5440350000000  0.4866570000000 1.0
C      1  0.5168410000000  0.5128320000000  0.4392850000000 1.0
C      1  0.4993220000000  0.5375040000000  0.4379390000000 1.0
C      1  0.4490390000000  0.5476380000000  0.5089340000000 1.0
C      1  0.4464880000000  0.4447180000000  0.4523680000000 1.0
C      1  0.5615020000000  0.5690320000000  0.5813690000000 1.0
C      1  0.5377660000000  0.4496310000000  0.4497690000000 1.0
C      1  0.4356720000000  0.5031060000000  0.5280730000000 1.0
END
