TITL C-2323479-8056-366 -1.43468326068323e-05 125000 -348.557362450529 0 0 60 (C1) n - 1
REM
REM in /home/bkarasulu/CARBON/AIRSS/Generating-Clusters/LCBOP/Higher-Symm/Only-C60/SD-CG/FIRE-HFTN
REM
REM
REM
REM
REM
REM ./C.cell (50c204cfd26239f34c78669fe23a5462)
REM
REM compiler GCC version 9.2.1 20190827 (Red Hat 9.2.1-1)
REM options -cpp -mtune=generic -march=x86-64 -g -O0 -fpre-include=/usr/include/finclude/math-vector-fortran.h
REM seed -567989411 1725048555 -76286566 -1067591853 300234012 847430826 -877685547 462860525 -1771323731 934444403 -1439630707 900863060 14124620 -1213097430 -1185264070 -828459693 150091506 -1178013197 -846528219 -2088012538 -762789398 -1354693843 691305003 1352027404 -1786732818 -729612979 685805889 2096605025 139338053 168235389 -1742515305 847841460 454520527
REM
CELL 1.54180   50.00000   50.00000   50.00000   90.00000   90.00000   90.00000
LATT -1
SFAC C  
C      1  0.5241210000000  0.4737350000000  0.5687120000000 1.0
C      1  0.4812570000000  0.5215230000000  0.4312070000000 1.0
C      1  0.5615990000000  0.4672800000000  0.5199670000000 1.0
C      1  0.4242860000000  0.5380430000000  0.5007770000000 1.0
C      1  0.5174000000000  0.5223970000000  0.4970730000000 1.0
C      1  0.4743610000000  0.4822080000000  0.4911030000000 1.0
C      1  0.5358390000000  0.4460860000000  0.4895380000000 1.0
C      1  0.4651960000000  0.5641330000000  0.5081280000000 1.0
C      1  0.4697560000000  0.5372050000000  0.5516280000000 1.0
C      1  0.5321180000000  0.4602070000000  0.4445210000000 1.0
C      1  0.5118760000000  0.5469730000000  0.5643570000000 1.0
C      1  0.4872440000000  0.4489750000000  0.4376440000000 1.0
C      1  0.5367430000000  0.5099110000000  0.4538470000000 1.0
C      1  0.4691320000000  0.4898040000000  0.5395190000000 1.0
C      1  0.4729830000000  0.4716270000000  0.4278660000000 1.0
C      1  0.5289940000000  0.5248680000000  0.5701470000000 1.0
C      1  0.4845220000000  0.4962140000000  0.4182850000000 1.0
C      1  0.5215810000000  0.4993900000000  0.5813900000000 1.0
C      1  0.5356200000000  0.4823470000000  0.5202380000000 1.0
C      1  0.4448360000000  0.5320440000000  0.4807800000000 1.0
C      1  0.5098800000000  0.4426710000000  0.4533260000000 1.0
C      1  0.4926980000000  0.5540990000000  0.5446030000000 1.0
C      1  0.5017420000000  0.4824400000000  0.4804080000000 1.0
C      1  0.4895820000000  0.5230000000000  0.5055400000000 1.0
C      1  0.5110080000000  0.4996220000000  0.6068360000000 1.0
C      1  0.4992950000000  0.4953730000000  0.3951170000000 1.0
C      1  0.4258950000000  0.4901070000000  0.5015890000000 1.0
C      1  0.5668520000000  0.5099070000000  0.4990370000000 1.0
C      1  0.4843750000000  0.5455990000000  0.4431290000000 1.0
C      1  0.5242990000000  0.4495780000000  0.5561790000000 1.0
C      1  0.4915480000000  0.5638890000000  0.4619910000000 1.0
C      1  0.5265500000000  0.4334610000000  0.5321240000000 1.0
C      1  0.5448190000000  0.5259420000000  0.5076330000000 1.0
C      1  0.4461640000000  0.4784250000000  0.4851520000000 1.0
C      1  0.5485330000000  0.4840990000000  0.4462340000000 1.0
C      1  0.4578170000000  0.5113830000000  0.5549030000000 1.0
C      1  0.5354510000000  0.5587690000000  0.4734700000000 1.0
C      1  0.4778640000000  0.4396620000000  0.5268800000000 1.0
C      1  0.4107540000000  0.5132850000000  0.5411850000000 1.0
C      1  0.5874630000000  0.4739450000000  0.4767820000000 1.0
C      1  0.4783560000000  0.4987150000000  0.5145650000000 1.0
C      1  0.5149240000000  0.5066900000000  0.4719260000000 1.0
C      1  0.4689620000000  0.4612720000000  0.5410270000000 1.0
C      1  0.5443920000000  0.5381880000000  0.4566810000000 1.0
C      1  0.5501450000000  0.4404080000000  0.5147060000000 1.0
C      1  0.4364310000000  0.5621630000000  0.5133210000000 1.0
C      1  0.4923650000000  0.5682690000000  0.5175490000000 1.0
C      1  0.5128660000000  0.4315010000000  0.4813970000000 1.0
C      1  0.5756800000000  0.4788050000000  0.4528330000000 1.0
C      1  0.4300260000000  0.5107430000000  0.5599780000000 1.0
C      1  0.5520200000000  0.5391160000000  0.5313440000000 1.0
C      1  0.4371780000000  0.4697380000000  0.4601550000000 1.0
C      1  0.5095660000000  0.5674510000000  0.4849020000000 1.0
C      1  0.5011870000000  0.4281780000000  0.5150150000000 1.0
C      1  0.4458590000000  0.4713500000000  0.4349640000000 1.0
C      1  0.5531470000000  0.5291430000000  0.5564060000000 1.0
C      1  0.5223610000000  0.4715460000000  0.4969930000000 1.0
C      1  0.4697880000000  0.5391620000000  0.4925850000000 1.0
C      1  0.4153840000000  0.5140040000000  0.5133810000000 1.0
C      1  0.5773130000000  0.4833330000000  0.5014290000000 1.0
END
