TITL C-2323485-8600-106 -0.379008531000053 125000 -353.000860343822 0 0 60 (C1) n - 1
REM
REM in /home/bkarasulu/CARBON/AIRSS/Generating-Clusters/LCBOP/Higher-Symm/Only-C60/SD-CG/FIRE-HFTN
REM
REM
REM
REM
REM
REM ./C.cell (50c204cfd26239f34c78669fe23a5462)
REM
REM compiler GCC version 9.2.1 20190827 (Red Hat 9.2.1-1)
REM options -cpp -mtune=generic -march=x86-64 -g -O0 -fpre-include=/usr/include/finclude/math-vector-fortran.h
REM seed 1091895683 504538858 1186672961 -1871016780 -1313274434 -2130746692 2048357984 -995554010 -1717946999 392925974 -1402489185 1546674009 -1033114145 12488323 938449810 -1888755442 1884756391 128883383 1871825175 -82403257 1687160675 1930890273 1141025293 -1858721154 -463170753 -1341934408 -1075576691 -1453621437 -590364937 1582394188 1649616844 79580241 792202399
REM
CELL 1.54180   50.00000   50.00000   50.00000   90.00000   90.00000   90.00000
LATT -1
SFAC C  
C      1  0.4605950000000  0.5508380000000  0.5439230000000 1.0
C      1  0.4815710000000  0.4479080000000  0.5474440000000 1.0
C      1  0.5549820000000  0.5184090000000  0.5414750000000 1.0
C      1  0.4952420000000  0.4721160000000  0.4464680000000 1.0
C      1  0.5282490000000  0.5117380000000  0.4441560000000 1.0
C      1  0.4782420000000  0.5193950000000  0.4485740000000 1.0
C      1  0.4869860000000  0.5174520000000  0.5264890000000 1.0
C      1  0.5076800000000  0.4692100000000  0.5185720000000 1.0
C      1  0.5258990000000  0.4958040000000  0.5710830000000 1.0
C      1  0.4136340000000  0.4645630000000  0.5335480000000 1.0
C      1  0.5714320000000  0.4486790000000  0.5369080000000 1.0
C      1  0.5311860000000  0.5679880000000  0.5190160000000 1.0
C      1  0.4404160000000  0.4721770000000  0.5357520000000 1.0
C      1  0.5551670000000  0.4711930000000  0.5391010000000 1.0
C      1  0.5075940000000  0.5608680000000  0.5329590000000 1.0
C      1  0.5588970000000  0.4853240000000  0.4721170000000 1.0
C      1  0.4857080000000  0.5617080000000  0.4709060000000 1.0
C      1  0.4566430000000  0.4622990000000  0.4753140000000 1.0
C      1  0.4521780000000  0.4901220000000  0.4788200000000 1.0
C      1  0.5397810000000  0.4641990000000  0.4727110000000 1.0
C      1  0.5128760000000  0.5525710000000  0.4693170000000 1.0
C      1  0.4627310000000  0.5212290000000  0.5447180000000 1.0
C      1  0.5079810000000  0.4588690000000  0.5449160000000 1.0
C      1  0.5299520000000  0.5194320000000  0.5551330000000 1.0
C      1  0.5105600000000  0.4705110000000  0.4728020000000 1.0
C      1  0.5231360000000  0.5241150000000  0.4720480000000 1.0
C      1  0.4747790000000  0.5094590000000  0.4774080000000 1.0
C      1  0.4794000000000  0.5656790000000  0.5253820000000 1.0
C      1  0.4610030000000  0.4538070000000  0.5272700000000 1.0
C      1  0.5607920000000  0.4958400000000  0.5245720000000 1.0
C      1  0.5311280000000  0.4713140000000  0.5565640000000 1.0
C      1  0.5085580000000  0.5332900000000  0.5422220000000 1.0
C      1  0.4469090000000  0.4979110000000  0.5462940000000 1.0
C      1  0.4979400000000  0.4544030000000  0.4959730000000 1.0
C      1  0.5471590000000  0.5275600000000  0.4905380000000 1.0
C      1  0.4728880000000  0.5288520000000  0.5002720000000 1.0
C      1  0.3887780000000  0.4573730000000  0.5304450000000 1.0
C      1  0.5860720000000  0.4273750000000  0.5336140000000 1.0
C      1  0.5480130000000  0.5524880000000  0.5043000000000 1.0
C      1  0.4732020000000  0.5477880000000  0.4484330000000 1.0
C      1  0.4701090000000  0.4581560000000  0.4498130000000 1.0
C      1  0.5543740000000  0.4993330000000  0.4467310000000 1.0
C      1  0.5600930000000  0.5021130000000  0.4961040000000 1.0
C      1  0.4747560000000  0.5578030000000  0.4973360000000 1.0
C      1  0.4693260000000  0.4507940000000  0.4986940000000 1.0
C      1  0.4951150000000  0.5017670000000  0.3779540000000 1.0
C      1  0.5081350000000  0.4968630000000  0.6222770000000 1.0
C      1  0.4998900000000  0.5009690000000  0.4337590000000 1.0
C      1  0.4974670000000  0.5013250000000  0.4043190000000 1.0
C      1  0.4880570000000  0.5031220000000  0.2987750000000 1.0
C      1  0.4927630000000  0.5022180000000  0.3515640000000 1.0
C      1  0.4904100000000  0.5026700000000  0.3251720000000 1.0
C      1  0.4984300000000  0.4973250000000  0.6469310000000 1.0
C      1  0.5176190000000  0.4963860000000  0.5975530000000 1.0
C      1  0.4790090000000  0.4982480000000  0.6962420000000 1.0
C      1  0.4857420000000  0.5035660000000  0.2728110000000 1.0
C      1  0.4887210000000  0.4977860000000  0.6715830000000 1.0
C      1  0.5038750000000  0.4965560000000  0.5134730000000 1.0
C      1  0.4694570000000  0.4987020000000  0.7204950000000 1.0
C      1  0.5047490000000  0.5006100000000  0.4834040000000 1.0
END
