TITL C-2323478-8180-231 1.0712959662167e-06 125000 -360.217252578604 0 0 60 (C5) n - 1
REM
REM in /home/bkarasulu/CARBON/AIRSS/Generating-Clusters/LCBOP/Higher-Symm/Only-C60/SD-CG/FIRE-HFTN
REM
REM
REM
REM
REM
REM ./C.cell (50c204cfd26239f34c78669fe23a5462)
REM
REM compiler GCC version 9.2.1 20190827 (Red Hat 9.2.1-1)
REM options -cpp -mtune=generic -march=x86-64 -g -O0 -fpre-include=/usr/include/finclude/math-vector-fortran.h
REM seed 874173107 50450516 -840113455 -1309793118 -953297402 -1358652189 1150096233 -182507479 -1325231678 482865099 -1573668650 2111887332 -231305938 -1525642414 2137192844 1786737429 39390899 173137089 -1397140559 2013192136 -1529803132 -2101191601 1125520920 337499700 -2103224823 -747555908 -1710903439 1466451310 -1165071690 -2003951211 -187747559 -1552093210 -600891617
REM
CELL 1.54180   50.00000   50.00000   50.00000   90.00000   90.00000   90.00000
LATT -1
SFAC C  
C      1  0.5060960000000  0.5432980000000  0.4352590000000 1.0
C      1  0.5430650000000  0.5075790000000  0.4352600000000 1.0
C      1  0.5205180000000  0.4613820000000  0.4352630000000 1.0
C      1  0.4696140000000  0.4685490000000  0.4352640000000 1.0
C      1  0.4607010000000  0.5191770000000  0.4352610000000 1.0
C      1  0.5060980000000  0.5433040000000  0.5647360000000 1.0
C      1  0.5430670000000  0.5075850000000  0.5647370000000 1.0
C      1  0.5205200000000  0.4613880000000  0.5647400000000 1.0
C      1  0.4696170000000  0.4685550000000  0.5647400000000 1.0
C      1  0.4607030000000  0.5191830000000  0.5647380000000 1.0
C      1  0.4695540000000  0.5801590000000  0.5139300000000 1.0
C      1  0.5668270000000  0.5537270000000  0.5139300000000 1.0
C      1  0.5717470000000  0.4530470000000  0.5139340000000 1.0
C      1  0.4775160000000  0.4172560000000  0.5139370000000 1.0
C      1  0.4143570000000  0.4958150000000  0.5139350000000 1.0
C      1  0.4695540000000  0.5801570000000  0.4860640000000 1.0
C      1  0.5668260000000  0.5537250000000  0.4860630000000 1.0
C      1  0.5717470000000  0.4530460000000  0.4860680000000 1.0
C      1  0.4775150000000  0.4172550000000  0.4860710000000 1.0
C      1  0.4143570000000  0.4958140000000  0.4860690000000 1.0
C      1  0.4557560000000  0.4758600000000  0.4859390000000 1.0
C      1  0.4633700000000  0.5346180000000  0.4859360000000 1.0
C      1  0.5216050000000  0.5455340000000  0.4859350000000 1.0
C      1  0.5499820000000  0.4935220000000  0.4859370000000 1.0
C      1  0.5092850000000  0.4504620000000  0.4859390000000 1.0
C      1  0.4557570000000  0.4758620000000  0.5140650000000 1.0
C      1  0.4633710000000  0.5346190000000  0.5140620000000 1.0
C      1  0.5216060000000  0.5455350000000  0.5140600000000 1.0
C      1  0.5499820000000  0.4935240000000  0.5140620000000 1.0
C      1  0.5092860000000  0.4504630000000  0.5140650000000 1.0
C      1  0.5447110000000  0.5486990000000  0.5319490000000 1.0
C      1  0.5601310000000  0.4725280000000  0.5319520000000 1.0
C      1  0.4924530000000  0.4343240000000  0.5319550000000 1.0
C      1  0.4352050000000  0.4868840000000  0.5319530000000 1.0
C      1  0.4675020000000  0.5575720000000  0.5319490000000 1.0
C      1  0.5447100000000  0.5486970000000  0.4680450000000 1.0
C      1  0.5601300000000  0.4725250000000  0.4680490000000 1.0
C      1  0.4924520000000  0.4343210000000  0.4680520000000 1.0
C      1  0.4352040000000  0.4868810000000  0.4680500000000 1.0
C      1  0.4675010000000  0.5575690000000  0.4680460000000 1.0
C      1  0.5344730000000  0.5352950000000  0.4422910000000 1.0
C      1  0.5442220000000  0.4781180000000  0.4422930000000 1.0
C      1  0.4928560000000  0.4511780000000  0.4422950000000 1.0
C      1  0.4513610000000  0.4917050000000  0.4422940000000 1.0
C      1  0.4770830000000  0.5436920000000  0.4422910000000 1.0
C      1  0.5344760000000  0.5353000000000  0.5577050000000 1.0
C      1  0.5442240000000  0.4781230000000  0.5577070000000 1.0
C      1  0.4928580000000  0.4511830000000  0.5577090000000 1.0
C      1  0.4513630000000  0.4917100000000  0.5577080000000 1.0
C      1  0.4770850000000  0.5436970000000  0.5577050000000 1.0
C      1  0.5085590000000  0.5223950000000  0.5236310000000 1.0
C      1  0.5239430000000  0.4987810000000  0.5236320000000 1.0
C      1  0.5062390000000  0.4768530000000  0.5236330000000 1.0
C      1  0.4799140000000  0.4869150000000  0.5236330000000 1.0
C      1  0.4813470000000  0.5150610000000  0.5236320000000 1.0
C      1  0.5085580000000  0.5223930000000  0.4763670000000 1.0
C      1  0.5239420000000  0.4987790000000  0.4763680000000 1.0
C      1  0.5062380000000  0.4768510000000  0.4763690000000 1.0
C      1  0.4799130000000  0.4869130000000  0.4763690000000 1.0
C      1  0.4813460000000  0.5150590000000  0.4763680000000 1.0
END
