TITL C-2323482-8828-240 2.5514207597378 125000 -352.680237892634 0 0 60 (C1) n - 1
REM
REM in /home/bkarasulu/CARBON/AIRSS/Generating-Clusters/LCBOP/Higher-Symm/Only-C60/SD-CG/FIRE-HFTN
REM
REM
REM
REM
REM
REM ./C.cell (50c204cfd26239f34c78669fe23a5462)
REM
REM compiler GCC version 9.2.1 20190827 (Red Hat 9.2.1-1)
REM options -cpp -mtune=generic -march=x86-64 -g -O0 -fpre-include=/usr/include/finclude/math-vector-fortran.h
REM seed 220814802 -200242864 -651625061 744434732 -1148060970 685410664 1817170136 -1267058445 511574241 917898034 1461739832 111251988 -1794275448 -991987220 -1940762314 40367766 93640208 1852368529 804918666 1734896625 -1066008156 1002144550 -627837673 494841477 453277103 156824157 -1610838703 688680002 69980590 67451836 1506648636 -440083871 -709459560
REM
CELL 1.54180   50.00000   50.00000   50.00000   90.00000   90.00000   90.00000
LATT -1
SFAC C  
C      1  0.4067540000000  0.5161180000000  0.5085320000000 1.0
C      1  0.5113730000000  0.5888260000000  0.5057510000000 1.0
C      1  0.5912720000000  0.4950880000000  0.5081690000000 1.0
C      1  0.4920240000000  0.4116570000000  0.4981590000000 1.0
C      1  0.6854480000000  0.5208850000000  0.5032660000000 1.0
C      1  0.4948350000000  0.3140470000000  0.4926090000000 1.0
C      1  0.3097560000000  0.5059760000000  0.5154550000000 1.0
C      1  0.4996670000000  0.6848330000000  0.4914380000000 1.0
C      1  0.4902260000000  0.4642620000000  0.5581950000000 1.0
C      1  0.4647800000000  0.5047930000000  0.5627130000000 1.0
C      1  0.5050790000000  0.5304850000000  0.5691860000000 1.0
C      1  0.5303390000000  0.4894420000000  0.5663740000000 1.0
C      1  0.4339740000000  0.5186500000000  0.5132220000000 1.0
C      1  0.5138770000000  0.5632310000000  0.5161590000000 1.0
C      1  0.5653510000000  0.4892190000000  0.5161360000000 1.0
C      1  0.4907420000000  0.4385190000000  0.5051900000000 1.0
C      1  0.4960600000000  0.3610560000000  0.4830140000000 1.0
C      1  0.3548750000000  0.5101410000000  0.4996340000000 1.0
C      1  0.5053890000000  0.6375200000000  0.4857680000000 1.0
C      1  0.6405210000000  0.5074370000000  0.4930610000000 1.0
C      1  0.5207900000000  0.5031560000000  0.4994540000000 1.0
C      1  0.5167040000000  0.4766000000000  0.4881670000000 1.0
C      1  0.4736600000000  0.5063480000000  0.4879420000000 1.0
C      1  0.4968620000000  0.5197180000000  0.4992670000000 1.0
C      1  0.4456940000000  0.5413670000000  0.5254330000000 1.0
C      1  0.5371330000000  0.5539570000000  0.5292810000000 1.0
C      1  0.5573500000000  0.4637500000000  0.5256440000000 1.0
C      1  0.4662950000000  0.4514420000000  0.5110030000000 1.0
C      1  0.4724840000000  0.5429380000000  0.5344270000000 1.0
C      1  0.5411910000000  0.5270550000000  0.5368500000000 1.0
C      1  0.5302690000000  0.4566380000000  0.5303360000000 1.0
C      1  0.4586500000000  0.4758860000000  0.5229440000000 1.0
C      1  0.5180850000000  0.4668070000000  0.5542990000000 1.0
C      1  0.4680660000000  0.4798970000000  0.5498420000000 1.0
C      1  0.4788610000000  0.5290870000000  0.5587510000000 1.0
C      1  0.5286470000000  0.5171450000000  0.5607360000000 1.0
C      1  0.4982930000000  0.3344460000000  0.4747180000000 1.0
C      1  0.3275390000000  0.5069510000000  0.4946950000000 1.0
C      1  0.5022120000000  0.6631250000000  0.4749920000000 1.0
C      1  0.6664480000000  0.5139410000000  0.4848550000000 1.0
C      1  0.4939900000000  0.3863310000000  0.4906600000000 1.0
C      1  0.3808110000000  0.5131550000000  0.5040940000000 1.0
C      1  0.5084060000000  0.6131790000000  0.4957700000000 1.0
C      1  0.6159030000000  0.5012410000000  0.5006220000000 1.0
C      1  0.5111810000000  0.4617280000000  0.4409540000000 1.0
C      1  0.5027210000000  0.4759140000000  0.4631840000000 1.0
C      1  0.4791070000000  0.4916190000000  0.4643320000000 1.0
C      1  0.5192680000000  0.4473860000000  0.4207540000000 1.0
C      1  0.4932290000000  0.5436880000000  0.5145550000000 1.0
C      1  0.5441060000000  0.5083380000000  0.5153840000000 1.0
C      1  0.5141040000000  0.4548040000000  0.5067370000000 1.0
C      1  0.4529780000000  0.4985670000000  0.5062160000000 1.0
C      1  0.3185860000000  0.5047710000000  0.4682900000000 1.0
C      1  0.5016650000000  0.6662890000000  0.4472100000000 1.0
C      1  0.6727340000000  0.5132670000000  0.4576130000000 1.0
C      1  0.5041020000000  0.3289270000000  0.4479250000000 1.0
C      1  0.5011780000000  0.6690580000000  0.4213000000000 1.0
C      1  0.6784210000000  0.5125890000000  0.4321870000000 1.0
C      1  0.5095210000000  0.3239610000000  0.4229200000000 1.0
C      1  0.3104130000000  0.5027540000000  0.4436250000000 1.0
END
