TITL C-2323485-8600-405 -34.9883700058496 125000 -350.429370444343 0 0 60 (C1) n - 1
REM
REM in /home/bkarasulu/CARBON/AIRSS/Generating-Clusters/LCBOP/Higher-Symm/Only-C60/SD-CG/FIRE-HFTN
REM
REM
REM
REM
REM
REM ./C.cell (50c204cfd26239f34c78669fe23a5462)
REM
REM compiler GCC version 9.2.1 20190827 (Red Hat 9.2.1-1)
REM options -cpp -mtune=generic -march=x86-64 -g -O0 -fpre-include=/usr/include/finclude/math-vector-fortran.h
REM seed -2100684517 1290245987 1360050810 -149246550 -2147113232 -1309856402 578513429 904560180 1837353240 -399859941 421099150 -231428629 -847790726 -607115447 345625338 1400799944 -1545222477 -38736981 905476649 1654691380 1108402387 383460510 -795750261 -1401277415 -2044828933 2134166568 684553220 -1497833745 -742779583 -1356024591 1799797809 2110915533 -1014610287
REM
CELL 1.54180   50.00000   50.00000   50.00000   90.00000   90.00000   90.00000
LATT -1
SFAC C  
C      1  0.4564670000000  0.4525760000000  0.4883800000000 1.0
C      1  0.4676260000000  0.5571560000000  0.4909510000000 1.0
C      1  0.4517420000000  0.5367720000000  0.5342400000000 1.0
C      1  0.4451790000000  0.4740450000000  0.5325360000000 1.0
C      1  0.5551200000000  0.4822330000000  0.4891540000000 1.0
C      1  0.5575100000000  0.5087450000000  0.4891400000000 1.0
C      1  0.4249090000000  0.4891550000000  0.4917990000000 1.0
C      1  0.4285920000000  0.5287820000000  0.4930950000000 1.0
C      1  0.4876410000000  0.4885970000000  0.5103680000000 1.0
C      1  0.4902540000000  0.5147900000000  0.5109630000000 1.0
C      1  0.5184590000000  0.4137400000000  0.5370160000000 1.0
C      1  0.5361980000000  0.5800920000000  0.5418340000000 1.0
C      1  0.4574950000000  0.4787220000000  0.4286710000000 1.0
C      1  0.4594670000000  0.4649870000000  0.4066080000000 1.0
C      1  0.5217440000000  0.5383020000000  0.4556100000000 1.0
C      1  0.5134720000000  0.4634640000000  0.4538350000000 1.0
C      1  0.4966190000000  0.5299850000000  0.5618240000000 1.0
C      1  0.4903030000000  0.4697990000000  0.5603000000000 1.0
C      1  0.4996790000000  0.5193460000000  0.4174310000000 1.0
C      1  0.5509020000000  0.4834530000000  0.4311910000000 1.0
C      1  0.4583520000000  0.5184740000000  0.4579930000000 1.0
C      1  0.4541790000000  0.4906060000000  0.4536200000000 1.0
C      1  0.4747090000000  0.5331090000000  0.3732840000000 1.0
C      1  0.5990440000000  0.4774930000000  0.4109630000000 1.0
C      1  0.5201080000000  0.5589170000000  0.4765560000000 1.0
C      1  0.5077150000000  0.4420740000000  0.4733740000000 1.0
C      1  0.5401620000000  0.5545260000000  0.4983320000000 1.0
C      1  0.5282780000000  0.4405870000000  0.4951710000000 1.0
C      1  0.5109350000000  0.4758580000000  0.5152770000000 1.0
C      1  0.5155930000000  0.5224660000000  0.5162490000000 1.0
C      1  0.5255870000000  0.4873970000000  0.4430670000000 1.0
C      1  0.5152100000000  0.5146390000000  0.4404920000000 1.0
C      1  0.4982790000000  0.5124310000000  0.5856930000000 1.0
C      1  0.4953720000000  0.4853690000000  0.5850440000000 1.0
C      1  0.4875360000000  0.5265830000000  0.3950190000000 1.0
C      1  0.5750810000000  0.4804220000000  0.4208000000000 1.0
C      1  0.5501520000000  0.5325110000000  0.5434390000000 1.0
C      1  0.5422990000000  0.4570330000000  0.5415630000000 1.0
C      1  0.4492010000000  0.4505940000000  0.5162110000000 1.0
C      1  0.4607390000000  0.5595330000000  0.5189120000000 1.0
C      1  0.4696680000000  0.4849240000000  0.5436960000000 1.0
C      1  0.4733460000000  0.5203870000000  0.5446150000000 1.0
C      1  0.4851220000000  0.4403820000000  0.5639940000000 1.0
C      1  0.4976890000000  0.5595800000000  0.5672040000000 1.0
C      1  0.4507050000000  0.5374030000000  0.4775740000000 1.0
C      1  0.4437830000000  0.4755820000000  0.4756390000000 1.0
C      1  0.4307550000000  0.5226280000000  0.5211890000000 1.0
C      1  0.4278830000000  0.4929890000000  0.5202090000000 1.0
C      1  0.4798440000000  0.4393620000000  0.4791220000000 1.0
C      1  0.4931250000000  0.5663670000000  0.4824370000000 1.0
C      1  0.5212980000000  0.5262940000000  0.5440310000000 1.0
C      1  0.5154050000000  0.4692320000000  0.5427430000000 1.0
C      1  0.5145940000000  0.5787570000000  0.5581630000000 1.0
C      1  0.4975890000000  0.4186490000000  0.5536150000000 1.0
C      1  0.5614400000000  0.4790810000000  0.5455700000000 1.0
C      1  0.5643110000000  0.5068560000000  0.5462350000000 1.0
C      1  0.5382200000000  0.5256250000000  0.4993500000000 1.0
C      1  0.5325980000000  0.4690900000000  0.4981740000000 1.0
C      1  0.5356470000000  0.4322220000000  0.5234450000000 1.0
C      1  0.5490720000000  0.5592240000000  0.5269910000000 1.0
END
