TITL C-2323477-5056-162 4.66946938414826e-06 125000 -368.77768389038 0 0 60 (C1) n - 1
REM
REM in /home/bkarasulu/CARBON/AIRSS/Generating-Clusters/LCBOP/Higher-Symm/Only-C60/SD-CG/FIRE-HFTN
REM
REM
REM
REM
REM
REM ./C.cell (50c204cfd26239f34c78669fe23a5462)
REM
REM compiler GCC version 9.2.1 20190827 (Red Hat 9.2.1-1)
REM options -cpp -mtune=generic -march=x86-64 -g -O0 -fpre-include=/usr/include/finclude/math-vector-fortran.h
REM seed 1197521107 1336040314 828514094 -1062168739 -743540094 496631654 191154397 -1446167726 -846153823 980960127 1910830997 279093605 572551703 -64823277 -723531277 847096240 -1434525439 -266677888 -2033508733 -1994187370 -816572561 -1326154943 -1633254236 1742910276 -970010706 -2008087116 2018444762 1399221910 738151567 -241615618 563746974 39539818 1228885964
REM
CELL 1.54180   50.00000   50.00000   50.00000   90.00000   90.00000   90.00000
LATT -1
SFAC C  
C      1  0.5176860000000  0.4372080000000  0.4400790000000 1.0
C      1  0.4393520000000  0.4371190000000  0.5145960000000 1.0
C      1  0.5429120000000  0.4371090000000  0.5450330000000 1.0
C      1  0.4978900000000  0.4507660000000  0.4552690000000 1.0
C      1  0.4623260000000  0.4505860000000  0.5244310000000 1.0
C      1  0.5394660000000  0.4507660000000  0.5203660000000 1.0
C      1  0.4306500000000  0.4938510000000  0.4952450000000 1.0
C      1  0.5306240000000  0.4938880000000  0.5624490000000 1.0
C      1  0.5388340000000  0.4939650000000  0.4422150000000 1.0
C      1  0.5617120000000  0.5374930000000  0.4372330000000 1.0
C      1  0.4148040000000  0.5373550000000  0.4779430000000 1.0
C      1  0.5235200000000  0.5373850000000  0.5848130000000 1.0
C      1  0.4613160000000  0.4783740000000  0.5315830000000 1.0
C      1  0.5465780000000  0.4784490000000  0.5176520000000 1.0
C      1  0.4920590000000  0.4784960000000  0.4506670000000 1.0
C      1  0.4506800000000  0.5452440000000  0.5086470000000 1.0
C      1  0.5321350000000  0.5452710000000  0.5383880000000 1.0
C      1  0.5171810000000  0.5453530000000  0.4529670000000 1.0
C      1  0.5689310000000  0.5161880000000  0.5415840000000 1.0
C      1  0.5016220000000  0.5163000000000  0.4194510000000 1.0
C      1  0.4294690000000  0.5161520000000  0.5388640000000 1.0
C      1  0.4472500000000  0.4808320000000  0.4754940000000 1.0
C      1  0.5052340000000  0.4808120000000  0.5580270000000 1.0
C      1  0.5476390000000  0.4808950000000  0.4664410000000 1.0
C      1  0.4381180000000  0.4936970000000  0.5232700000000 1.0
C      1  0.5511010000000  0.4937340000000  0.5419100000000 1.0
C      1  0.5108210000000  0.4938270000000  0.4346980000000 1.0
C      1  0.4870390000000  0.5416970000000  0.5523400000000 1.0
C      1  0.5518020000000  0.5417960000000  0.4850520000000 1.0
C      1  0.4611610000000  0.5417660000000  0.4626170000000 1.0
C      1  0.5569620000000  0.4545690000000  0.4617110000000 1.0
C      1  0.4385320000000  0.4545020000000  0.4697590000000 1.0
C      1  0.5047350000000  0.4545050000000  0.5685340000000 1.0
C      1  0.4723800000000  0.4923330000000  0.4671290000000 1.0
C      1  0.4854120000000  0.4922470000000  0.5403870000000 1.0
C      1  0.5422660000000  0.4923450000000  0.4923990000000 1.0
C      1  0.4861630000000  0.4396770000000  0.5163610000000 1.0
C      1  0.5196440000000  0.4403870000000  0.5044100000000 1.0
C      1  0.4936280000000  0.4401620000000  0.4802420000000 1.0
C      1  0.4601990000000  0.5504180000000  0.5549850000000 1.0
C      1  0.5675030000000  0.5505150000000  0.5069800000000 1.0
C      1  0.4722840000000  0.5505270000000  0.4380590000000 1.0
C      1  0.4734230000000  0.5272900000000  0.5058250000000 1.0
C      1  0.5183390000000  0.5273120000000  0.5200920000000 1.0
C      1  0.5082500000000  0.5273740000000  0.4740490000000 1.0
C      1  0.5245600000000  0.4363430000000  0.5649850000000 1.0
C      1  0.5440800000000  0.4364120000000  0.4462350000000 1.0
C      1  0.4315920000000  0.4363300000000  0.4886390000000 1.0
C      1  0.4988470000000  0.5423640000000  0.4310600000000 1.0
C      1  0.4408730000000  0.5422330000000  0.5354730000000 1.0
C      1  0.5602750000000  0.5422820000000  0.5334580000000 1.0
C      1  0.4793320000000  0.5204400000000  0.4768170000000 1.0
C      1  0.4902860000000  0.5203730000000  0.5294980000000 1.0
C      1  0.5304120000000  0.5204550000000  0.4936420000000 1.0
C      1  0.4107390000000  0.5116010000000  0.4855090000000 1.0
C      1  0.5321670000000  0.5116520000000  0.5845480000000 1.0
C      1  0.5572090000000  0.5117510000000  0.4298780000000 1.0
C      1  0.5456270000000  0.5491390000000  0.4574040000000 1.0
C      1  0.4402930000000  0.5490470000000  0.4817980000000 1.0
C      1  0.5140740000000  0.5490400000000  0.5608100000000 1.0
END
