TITL C-2323484-8600-615 2410.81037655417 125000 -356.221098787021 0 0 60 (C1) n - 1
REM
REM in /home/bkarasulu/CARBON/AIRSS/Generating-Clusters/LCBOP/Higher-Symm/Only-C60/SD-CG/FIRE-HFTN
REM
REM
REM
REM
REM
REM ./C.cell (50c204cfd26239f34c78669fe23a5462)
REM
REM compiler GCC version 9.2.1 20190827 (Red Hat 9.2.1-1)
REM options -cpp -mtune=generic -march=x86-64 -g -O0 -fpre-include=/usr/include/finclude/math-vector-fortran.h
REM seed -1140787009 -281181572 590554342 2036905922 190715190 1641697631 242887462 -1803662475 -964132809 330423359 377750994 1693405233 -1079692078 25809020 1482812425 -1345785794 156602522 -266743490 426471911 -464360707 2097180273 1158704182 1284243944 -1726226412 3714979 555884343 1126710888 -602281759 1243944417 -1183404663 1320606965 -1548116527 668429551
REM
CELL 1.54180   50.00000   50.00000   50.00000   90.00000   90.00000   90.00000
LATT -1
SFAC C  
C      1  0.5623660000000  0.5316760000000  0.4609420000000 1.0
C      1  0.5612670000000  0.4563860000000  0.4905820000000 1.0
C      1  0.5610750000000  0.5138070000000  0.5452750000000 1.0
C      1  0.4347690000000  0.5299970000000  0.5444630000000 1.0
C      1  0.4317870000000  0.5254950000000  0.4510320000000 1.0
C      1  0.4320160000000  0.4391850000000  0.5033880000000 1.0
C      1  0.5209670000000  0.5669160000000  0.4590650000000 1.0
C      1  0.5205460000000  0.4382370000000  0.4605150000000 1.0
C      1  0.5209860000000  0.4933940000000  0.5731650000000 1.0
C      1  0.5183410000000  0.5038610000000  0.4180920000000 1.0
C      1  0.5203200000000  0.4202220000000  0.5329530000000 1.0
C      1  0.5175760000000  0.5658710000000  0.5604750000000 1.0
C      1  0.5039130000000  0.5779190000000  0.4801240000000 1.0
C      1  0.5015990000000  0.4504420000000  0.4423650000000 1.0
C      1  0.5017590000000  0.4717320000000  0.5727370000000 1.0
C      1  0.5445890000000  0.5100780000000  0.4175990000000 1.0
C      1  0.5464470000000  0.4209830000000  0.5258460000000 1.0
C      1  0.5432320000000  0.5584560000000  0.5653450000000 1.0
C      1  0.4355550000000  0.5584700000000  0.5068790000000 1.0
C      1  0.4313220000000  0.4782120000000  0.4497100000000 1.0
C      1  0.4320340000000  0.4617830000000  0.5449080000000 1.0
C      1  0.4600340000000  0.5268680000000  0.4492700000000 1.0
C      1  0.4603320000000  0.4378100000000  0.5024970000000 1.0
C      1  0.4630550000000  0.5299890000000  0.5470100000000 1.0
C      1  0.5453290000000  0.4484460000000  0.4684510000000 1.0
C      1  0.5461830000000  0.4953970000000  0.5610910000000 1.0
C      1  0.5466980000000  0.5556680000000  0.4619180000000 1.0
C      1  0.4217220000000  0.5438460000000  0.5251000000000 1.0
C      1  0.4182160000000  0.5019580000000  0.4513390000000 1.0
C      1  0.4186240000000  0.4510130000000  0.5238660000000 1.0
C      1  0.5034030000000  0.5591530000000  0.5370010000000 1.0
C      1  0.5012480000000  0.5015020000000  0.4402780000000 1.0
C      1  0.5017680000000  0.4411320000000  0.5296140000000 1.0
C      1  0.4730640000000  0.5016700000000  0.4426490000000 1.0
C      1  0.4735310000000  0.4432250000000  0.5279350000000 1.0
C      1  0.4766150000000  0.5509370000000  0.5316580000000 1.0
C      1  0.5023420000000  0.4249560000000  0.4789210000000 1.0
C      1  0.5030620000000  0.5162210000000  0.5723540000000 1.0
C      1  0.5006550000000  0.5548650000000  0.4419990000000 1.0
C      1  0.5142800000000  0.5008290000000  0.4649630000000 1.0
C      1  0.5140260000000  0.4654250000000  0.5233560000000 1.0
C      1  0.5209480000000  0.5529440000000  0.5160520000000 1.0
C      1  0.4758850000000  0.5490680000000  0.4564900000000 1.0
C      1  0.4756160000000  0.4368590000000  0.4788140000000 1.0
C      1  0.4770960000000  0.5098270000000  0.5608360000000 1.0
C      1  0.4603310000000  0.4614940000000  0.5466970000000 1.0
C      1  0.4639890000000  0.5595060000000  0.5064200000000 1.0
C      1  0.4595360000000  0.4764250000000  0.4479350000000 1.0
C      1  0.5698650000000  0.5078250000000  0.5195930000000 1.0
C      1  0.5708630000000  0.5171040000000  0.4832240000000 1.0
C      1  0.5698270000000  0.4825050000000  0.4942940000000 1.0
C      1  0.5245200000000  0.5324800000000  0.4998680000000 1.0
C      1  0.5171770000000  0.5072840000000  0.4915330000000 1.0
C      1  0.5128390000000  0.4883730000000  0.5109010000000 1.0
C      1  0.5625350000000  0.4369990000000  0.5113120000000 1.0
C      1  0.5606810000000  0.5402100000000  0.5557970000000 1.0
C      1  0.5625510000000  0.5193010000000  0.4353810000000 1.0
C      1  0.4758560000000  0.4800360000000  0.5613840000000 1.0
C      1  0.4781320000000  0.5638850000000  0.4822300000000 1.0
C      1  0.4750990000000  0.4538410000000  0.4545050000000 1.0
END
