TITL C-2323477-5056-621 -5.21908348110789e-05 125000 -359.144003310628 0 0 60 (C1) n - 1
REM
REM in /home/bkarasulu/CARBON/AIRSS/Generating-Clusters/LCBOP/Higher-Symm/Only-C60/SD-CG/FIRE-HFTN
REM
REM
REM
REM
REM
REM ./C.cell (50c204cfd26239f34c78669fe23a5462)
REM
REM compiler GCC version 9.2.1 20190827 (Red Hat 9.2.1-1)
REM options -cpp -mtune=generic -march=x86-64 -g -O0 -fpre-include=/usr/include/finclude/math-vector-fortran.h
REM seed 418137738 -632217945 -541317816 -383837016 1190068057 1642578877 -320222623 -1607663808 -781774610 -2030701660 458786435 555263210 -297501503 1659246441 1145457185 281015512 -850196277 -2026582372 846160157 1222579149 -1915733245 819824090 781291562 1778464468 -1560707501 1079924509 1179319401 -1129908842 -686510797 -412606362 2049770124 -288941836 -1705528038
REM
CELL 1.54180   50.00000   50.00000   50.00000   90.00000   90.00000   90.00000
LATT -1
SFAC C  
C      1  0.4955390000000  0.4721230000000  0.5355340000000 1.0
C      1  0.5281900000000  0.4177270000000  0.4745040000000 1.0
C      1  0.4307500000000  0.5291550000000  0.5529090000000 1.0
C      1  0.5166780000000  0.4525780000000  0.5368090000000 1.0
C      1  0.4875470000000  0.4812760000000  0.5616760000000 1.0
C      1  0.4998330000000  0.5286390000000  0.4722410000000 1.0
C      1  0.4991440000000  0.5241000000000  0.4122640000000 1.0
C      1  0.5221020000000  0.5371460000000  0.4178130000000 1.0
C      1  0.4724340000000  0.5773480000000  0.5168010000000 1.0
C      1  0.5354510000000  0.5590590000000  0.5369150000000 1.0
C      1  0.5266730000000  0.6064790000000  0.5420750000000 1.0
C      1  0.4174730000000  0.4393670000000  0.4693960000000 1.0
C      1  0.4797990000000  0.5318220000000  0.5222880000000 1.0
C      1  0.4862340000000  0.5037990000000  0.4678570000000 1.0
C      1  0.4643190000000  0.4045460000000  0.5190900000000 1.0
C      1  0.5481130000000  0.5356630000000  0.5402420000000 1.0
C      1  0.5426390000000  0.5405750000000  0.4347830000000 1.0
C      1  0.5459270000000  0.4736240000000  0.4570760000000 1.0
C      1  0.4122360000000  0.4612970000000  0.4547930000000 1.0
C      1  0.5558610000000  0.5101740000000  0.5371710000000 1.0
C      1  0.5286570000000  0.4726160000000  0.4366030000000 1.0
C      1  0.4694540000000  0.5021190000000  0.4449010000000 1.0
C      1  0.4448080000000  0.4114720000000  0.5020420000000 1.0
C      1  0.6161860000000  0.4485310000000  0.5122830000000 1.0
C      1  0.4644680000000  0.4422840000000  0.4721400000000 1.0
C      1  0.5552180000000  0.4711410000000  0.5946520000000 1.0
C      1  0.4890010000000  0.4542490000000  0.4773950000000 1.0
C      1  0.4897340000000  0.4812940000000  0.4856720000000 1.0
C      1  0.5115070000000  0.4376770000000  0.4765830000000 1.0
C      1  0.4644560000000  0.5602610000000  0.4658790000000 1.0
C      1  0.5400690000000  0.4650540000000  0.5479240000000 1.0
C      1  0.4885530000000  0.4093990000000  0.5292930000000 1.0
C      1  0.5680250000000  0.4725610000000  0.5073150000000 1.0
C      1  0.5526060000000  0.5378610000000  0.4596220000000 1.0
C      1  0.5319340000000  0.6292580000000  0.5535920000000 1.0
C      1  0.4621710000000  0.4911870000000  0.5674220000000 1.0
C      1  0.4352790000000  0.5470060000000  0.5334010000000 1.0
C      1  0.5019740000000  0.5159980000000  0.5152270000000 1.0
C      1  0.5090070000000  0.4806180000000  0.5804770000000 1.0
C      1  0.5555430000000  0.4824720000000  0.5310660000000 1.0
C      1  0.5358840000000  0.4723540000000  0.5755400000000 1.0
C      1  0.5207480000000  0.5821400000000  0.5296460000000 1.0
C      1  0.4416850000000  0.5080310000000  0.5650310000000 1.0
C      1  0.4482660000000  0.5461610000000  0.4848040000000 1.0
C      1  0.5059520000000  0.5759520000000  0.4826200000000 1.0
C      1  0.4922880000000  0.5560100000000  0.4674500000000 1.0
C      1  0.5059510000000  0.4786130000000  0.4234340000000 1.0
C      1  0.4416830000000  0.5045930000000  0.4521150000000 1.0
C      1  0.5930420000000  0.4602240000000  0.5096760000000 1.0
C      1  0.5563010000000  0.4746040000000  0.4817310000000 1.0
C      1  0.4953560000000  0.4883650000000  0.5126790000000 1.0
C      1  0.4572690000000  0.5509010000000  0.5139690000000 1.0
C      1  0.4872710000000  0.5002120000000  0.4221430000000 1.0
C      1  0.5449060000000  0.5315050000000  0.4847830000000 1.0
C      1  0.4228300000000  0.4845290000000  0.4468070000000 1.0
C      1  0.4358050000000  0.5235520000000  0.4729980000000 1.0
C      1  0.5000790000000  0.5814230000000  0.5099600000000 1.0
C      1  0.5091090000000  0.4258260000000  0.5341640000000 1.0
C      1  0.4410770000000  0.4295180000000  0.4808900000000 1.0
C      1  0.5189060000000  0.5259320000000  0.4938320000000 1.0
END
