TITL C-2323479-8056-323 9.39579191341083 125000 -356.485335015172 0 0 60 (C1) n - 1
REM
REM in /home/bkarasulu/CARBON/AIRSS/Generating-Clusters/LCBOP/Higher-Symm/Only-C60/SD-CG/FIRE-HFTN
REM
REM
REM
REM
REM
REM ./C.cell (50c204cfd26239f34c78669fe23a5462)
REM
REM compiler GCC version 9.2.1 20190827 (Red Hat 9.2.1-1)
REM options -cpp -mtune=generic -march=x86-64 -g -O0 -fpre-include=/usr/include/finclude/math-vector-fortran.h
REM seed -1658844023 -1028245759 -863720660 529568274 2059895751 -321312955 708317955 -1499922807 1347521931 199968617 1838401044 -641880922 -1259828907 1709555628 -1924596642 -435259869 1435978791 680837214 -1244901967 2099027372 -1222460337 880739908 -1888319260 -2085010248 60534751 1122850367 -920431387 1972784184 -370721067 -1308663348 175839266 709615701 -609354019
REM
CELL 1.54180   50.00000   50.00000   50.00000   90.00000   90.00000   90.00000
LATT -1
SFAC C  
C      1  0.4325030000000  0.4346000000000  0.4895250000000 1.0
C      1  0.4358720000000  0.5690570000000  0.4857250000000 1.0
C      1  0.5408350000000  0.5155870000000  0.5211470000000 1.0
C      1  0.5375120000000  0.4749920000000  0.5215540000000 1.0
C      1  0.4519580000000  0.4776020000000  0.4778570000000 1.0
C      1  0.4555150000000  0.5246230000000  0.4758310000000 1.0
C      1  0.4979680000000  0.4399440000000  0.4639760000000 1.0
C      1  0.5064510000000  0.5498040000000  0.4625370000000 1.0
C      1  0.4913880000000  0.5135290000000  0.5726680000000 1.0
C      1  0.4894110000000  0.4850810000000  0.5728520000000 1.0
C      1  0.4944730000000  0.5514400000000  0.5443690000000 1.0
C      1  0.4882960000000  0.4466650000000  0.5446710000000 1.0
C      1  0.5743910000000  0.5083520000000  0.5639950000000 1.0
C      1  0.5726720000000  0.4805200000000  0.5646640000000 1.0
C      1  0.5145520000000  0.4341820000000  0.5380330000000 1.0
C      1  0.5214000000000  0.5594670000000  0.5357210000000 1.0
C      1  0.4950560000000  0.5294500000000  0.4457450000000 1.0
C      1  0.4899660000000  0.4638640000000  0.4469990000000 1.0
C      1  0.5110100000000  0.4478250000000  0.4911320000000 1.0
C      1  0.5198650000000  0.5451650000000  0.4880270000000 1.0
C      1  0.5272710000000  0.5195930000000  0.4972060000000 1.0
C      1  0.5225540000000  0.4725660000000  0.4981090000000 1.0
C      1  0.4736680000000  0.4708170000000  0.5534380000000 1.0
C      1  0.4773120000000  0.5297200000000  0.5536800000000 1.0
C      1  0.5312530000000  0.4026000000000  0.4704660000000 1.0
C      1  0.5105920000000  0.5976720000000  0.4723950000000 1.0
C      1  0.4359720000000  0.4721520000000  0.5223580000000 1.0
C      1  0.4419600000000  0.5338960000000  0.5205230000000 1.0
C      1  0.5470490000000  0.5531260000000  0.5498610000000 1.0
C      1  0.5403750000000  0.4384070000000  0.5528550000000 1.0
C      1  0.5614460000000  0.4551120000000  0.5611170000000 1.0
C      1  0.5661750000000  0.5346880000000  0.5591020000000 1.0
C      1  0.5320510000000  0.5106620000000  0.5470980000000 1.0
C      1  0.5299740000000  0.4817280000000  0.5474520000000 1.0
C      1  0.4369740000000  0.4614090000000  0.4958420000000 1.0
C      1  0.4437030000000  0.5436010000000  0.4933960000000 1.0
C      1  0.5169880000000  0.4265260000000  0.5102310000000 1.0
C      1  0.5224400000000  0.5666050000000  0.5077730000000 1.0
C      1  0.4531190000000  0.4867680000000  0.5400950000000 1.0
C      1  0.4552950000000  0.5169780000000  0.5396370000000 1.0
C      1  0.5198730000000  0.5928240000000  0.4974540000000 1.0
C      1  0.5287260000000  0.4040300000000  0.4976210000000 1.0
C      1  0.5192930000000  0.4202560000000  0.4533090000000 1.0
C      1  0.5039950000000  0.5773200000000  0.4556710000000 1.0
C      1  0.5067150000000  0.4715580000000  0.4257240000000 1.0
C      1  0.5101910000000  0.5188030000000  0.4246450000000 1.0
C      1  0.5190880000000  0.5213290000000  0.5700940000000 1.0
C      1  0.5157490000000  0.4735130000000  0.5707050000000 1.0
C      1  0.4495950000000  0.4178950000000  0.4773700000000 1.0
C      1  0.4320830000000  0.5939860000000  0.4775950000000 1.0
C      1  0.4296070000000  0.6185880000000  0.4693370000000 1.0
C      1  0.4742450000000  0.4218120000000  0.4680060000000 1.0
C      1  0.4704520000000  0.5167350000000  0.4521030000000 1.0
C      1  0.4680340000000  0.4808270000000  0.4536170000000 1.0
C      1  0.4850680000000  0.4999570000000  0.5026290000000 1.0
C      1  0.4599530000000  0.5011840000000  0.4916440000000 1.0
C      1  0.5106030000000  0.4973000000000  0.4922640000000 1.0
C      1  0.5508150000000  0.4907640000000  0.3710200000000 1.0
C      1  0.5176890000000  0.4942270000000  0.4133460000000 1.0
C      1  0.5347770000000  0.4924680000000  0.3914920000000 1.0
END
