TITL C-2323489-8765-542 1.20682313443255e-05 125000 -354.502022028525 0 0 60 (C1) n - 1
REM
REM in /home/bkarasulu/CARBON/AIRSS/Generating-Clusters/LCBOP/Higher-Symm/Only-C60/SD-CG/FIRE-HFTN
REM
REM
REM
REM
REM
REM ./C.cell (50c204cfd26239f34c78669fe23a5462)
REM
REM compiler GCC version 9.2.1 20190827 (Red Hat 9.2.1-1)
REM options -cpp -mtune=generic -march=x86-64 -g -O0 -fpre-include=/usr/include/finclude/math-vector-fortran.h
REM seed 185102999 -991681730 -1246475444 1738586151 -805057514 1503135236 -1130669306 -1848088059 -1396412591 -1137219969 -2038802124 432837794 1131520507 1296856896 574880495 1508698405 1625209760 -1877187751 -1010633923 822444921 -1898149588 -1160511850 -1796855627 -406647921 -2144260337 608501502 625377924 -52156636 134971514 -188085105 1992748703 1294647744 1208920940
REM
CELL 1.54180   50.00000   50.00000   50.00000   90.00000   90.00000   90.00000
LATT -1
SFAC C  
C      1  0.4238410000000  0.4780370000000  0.5005840000000 1.0
C      1  0.4368770000000  0.4994960000000  0.5486050000000 1.0
C      1  0.5513990000000  0.4471930000000  0.5197100000000 1.0
C      1  0.5183310000000  0.4781250000000  0.5582740000000 1.0
C      1  0.4558200000000  0.5184450000000  0.4973650000000 1.0
C      1  0.4568690000000  0.5055940000000  0.5659150000000 1.0
C      1  0.4758630000000  0.5093700000000  0.5141640000000 1.0
C      1  0.5642650000000  0.5325380000000  0.4587250000000 1.0
C      1  0.4908620000000  0.4655330000000  0.4893750000000 1.0
C      1  0.5244470000000  0.4405550000000  0.4644480000000 1.0
C      1  0.4665020000000  0.5653620000000  0.5463060000000 1.0
C      1  0.4721710000000  0.5455290000000  0.4135910000000 1.0
C      1  0.5134530000000  0.5307600000000  0.4778170000000 1.0
C      1  0.4672950000000  0.5525660000000  0.3875300000000 1.0
C      1  0.5124910000000  0.4420210000000  0.4914700000000 1.0
C      1  0.4833350000000  0.4244650000000  0.4432880000000 1.0
C      1  0.5270820000000  0.5362940000000  0.5675180000000 1.0
C      1  0.4870860000000  0.4800140000000  0.5174700000000 1.0
C      1  0.4642020000000  0.4375150000000  0.4571340000000 1.0
C      1  0.5155450000000  0.5586900000000  0.5528020000000 1.0
C      1  0.4378210000000  0.5242560000000  0.4512130000000 1.0
C      1  0.5063960000000  0.5206230000000  0.5798580000000 1.0
C      1  0.5652470000000  0.4705780000000  0.5107580000000 1.0
C      1  0.4636540000000  0.4542570000000  0.4798970000000 1.0
C      1  0.5400870000000  0.5520820000000  0.5131110000000 1.0
C      1  0.5263310000000  0.4343970000000  0.5149550000000 1.0
C      1  0.5101540000000  0.4237780000000  0.5356500000000 1.0
C      1  0.5045150000000  0.4815690000000  0.4659860000000 1.0
C      1  0.4978190000000  0.5505590000000  0.4244480000000 1.0
C      1  0.5718140000000  0.4703180000000  0.4832040000000 1.0
C      1  0.5559760000000  0.4800100000000  0.4617250000000 1.0
C      1  0.5669410000000  0.5416600000000  0.5110770000000 1.0
C      1  0.4501560000000  0.4460080000000  0.5243760000000 1.0
C      1  0.5471200000000  0.5493390000000  0.4436950000000 1.0
C      1  0.5755680000000  0.5395000000000  0.4840890000000 1.0
C      1  0.4238040000000  0.4914540000000  0.5261440000000 1.0
C      1  0.5234680000000  0.5534730000000  0.4316500000000 1.0
C      1  0.4432970000000  0.5763830000000  0.5506770000000 1.0
C      1  0.4932650000000  0.5310720000000  0.5218660000000 1.0
C      1  0.4742350000000  0.4558220000000  0.5347560000000 1.0
C      1  0.5536260000000  0.5279840000000  0.5578890000000 1.0
C      1  0.5679670000000  0.5211370000000  0.5327040000000 1.0
C      1  0.5328570000000  0.5701450000000  0.5335820000000 1.0
C      1  0.5064160000000  0.4565400000000  0.5694950000000 1.0
C      1  0.4901690000000  0.5519560000000  0.5410130000000 1.0
C      1  0.4806400000000  0.5120430000000  0.5773060000000 1.0
C      1  0.5198860000000  0.5299680000000  0.5069400000000 1.0
C      1  0.4513760000000  0.5335260000000  0.4285190000000 1.0
C      1  0.5583390000000  0.4963290000000  0.5210170000000 1.0
C      1  0.5131250000000  0.4863480000000  0.5316440000000 1.0
C      1  0.5305110000000  0.5026620000000  0.5167950000000 1.0
C      1  0.5102850000000  0.4246300000000  0.4459840000000 1.0
C      1  0.4189030000000  0.5034010000000  0.4545290000000 1.0
C      1  0.4423090000000  0.4561520000000  0.4990900000000 1.0
C      1  0.4481200000000  0.5323400000000  0.4760600000000 1.0
C      1  0.5300670000000  0.4687780000000  0.4588690000000 1.0
C      1  0.4905660000000  0.4969210000000  0.4484550000000 1.0
C      1  0.4134260000000  0.4882600000000  0.4763390000000 1.0
C      1  0.5633170000000  0.5051640000000  0.4518710000000 1.0
C      1  0.4926930000000  0.4404790000000  0.5506720000000 1.0
END
