TITL C-2323478-8180-563 -961.843247718979 125000 -308.783126889277 0 0 60 (C1) n - 1
REM
REM in /home/bkarasulu/CARBON/AIRSS/Generating-Clusters/LCBOP/Higher-Symm/Only-C60/SD-CG/FIRE-HFTN
REM
REM
REM
REM
REM
REM ./C.cell (50c204cfd26239f34c78669fe23a5462)
REM
REM compiler GCC version 9.2.1 20190827 (Red Hat 9.2.1-1)
REM options -cpp -mtune=generic -march=x86-64 -g -O0 -fpre-include=/usr/include/finclude/math-vector-fortran.h
REM seed -2042957667 -460554337 -734388532 -1890707172 -763773285 -1949925269 672606280 819382008 266874730 -1796900459 1796792848 -1364181798 1394184482 899486053 988536108 1305642547 1995209996 2078903755 -1378046468 675007629 1269114892 -604415611 -1818270696 843127637 1728411679 1748149073 -95048806 -2094830959 -1819267372 -331817320 -1979619474 -389450737 -1827349736
REM
CELL 1.54180   50.00000   50.00000   50.00000   90.00000   90.00000   90.00000
LATT -1
SFAC C  
C      1  0.4919340000000  0.5114040000000  0.5410140000000 1.0
C      1  0.5018830000000  0.5208780000000  0.4736910000000 1.0
C      1  0.5009690000000  0.4747930000000  0.4909490000000 1.0
C      1  0.4330800000000  0.4902040000000  0.4569680000000 1.0
C      1  0.4362400000000  0.4825010000000  0.5246420000000 1.0
C      1  0.4331240000000  0.5363500000000  0.5113240000000 1.0
C      1  0.5254290000000  0.5635820000000  0.4906050000000 1.0
C      1  0.5273210000000  0.4606520000000  0.4485100000000 1.0
C      1  0.5295880000000  0.4732360000000  0.5568420000000 1.0
C      1  0.5602440000000  0.5372150000000  0.5164600000000 1.0
C      1  0.5648820000000  0.4994380000000  0.4579400000000 1.0
C      1  0.5684640000000  0.4656370000000  0.5182260000000 1.0
C      1  0.5785320000000  0.4703510000000  0.4924520000000 1.0
C      1  0.5744950000000  0.5142850000000  0.5264660000000 1.0
C      1  0.5756690000000  0.5213610000000  0.4739730000000 1.0
C      1  0.4861830000000  0.5296150000000  0.4318710000000 1.0
C      1  0.4870540000000  0.4344360000000  0.5087980000000 1.0
C      1  0.4824260000000  0.5555150000000  0.5558590000000 1.0
C      1  0.4513360000000  0.5190540000000  0.5558750000000 1.0
C      1  0.4565370000000  0.5412370000000  0.4658430000000 1.0
C      1  0.4556620000000  0.4553210000000  0.4818110000000 1.0
C      1  0.4746580000000  0.5026150000000  0.4391930000000 1.0
C      1  0.4697300000000  0.4484240000000  0.5284960000000 1.0
C      1  0.4654890000000  0.5627390000000  0.5334940000000 1.0
C      1  0.4475160000000  0.4590280000000  0.5105920000000 1.0
C      1  0.4426300000000  0.5422980000000  0.5377700000000 1.0
C      1  0.4544890000000  0.5109700000000  0.4632710000000 1.0
C      1  0.5343190000000  0.5247640000000  0.4403950000000 1.0
C      1  0.5397840000000  0.4353890000000  0.5053250000000 1.0
C      1  0.5317050000000  0.5369830000000  0.5491720000000 1.0
C      1  0.4873170000000  0.5440050000000  0.4599450000000 1.0
C      1  0.4867070000000  0.4500560000000  0.4815340000000 1.0
C      1  0.4794030000000  0.5272940000000  0.5608860000000 1.0
C      1  0.5367980000000  0.4422840000000  0.5390970000000 1.0
C      1  0.5267140000000  0.5628560000000  0.5263160000000 1.0
C      1  0.5306590000000  0.4913850000000  0.4303990000000 1.0
C      1  0.4738970000000  0.4682760000000  0.5507280000000 1.0
C      1  0.4714280000000  0.5666600000000  0.5040940000000 1.0
C      1  0.4746080000000  0.4718700000000  0.4405810000000 1.0
C      1  0.5069440000000  0.5258630000000  0.5013390000000 1.0
C      1  0.5112990000000  0.4940630000000  0.4712180000000 1.0
C      1  0.5152470000000  0.4712670000000  0.5148700000000 1.0
C      1  0.5404280000000  0.4943370000000  0.4724670000000 1.0
C      1  0.5427220000000  0.4784020000000  0.5159230000000 1.0
C      1  0.5348640000000  0.5247300000000  0.5074410000000 1.0
C      1  0.5502590000000  0.4521030000000  0.4756780000000 1.0
C      1  0.5473120000000  0.5049180000000  0.5501050000000 1.0
C      1  0.5467180000000  0.5433610000000  0.4683710000000 1.0
C      1  0.4967100000000  0.4534280000000  0.4512170000000 1.0
C      1  0.5008950000000  0.4717060000000  0.5617800000000 1.0
C      1  0.4952000000000  0.5660350000000  0.4829780000000 1.0
C      1  0.4481910000000  0.5521850000000  0.4911100000000 1.0
C      1  0.4488170000000  0.4659620000000  0.4558260000000 1.0
C      1  0.4508530000000  0.4893950000000  0.5494610000000 1.0
C      1  0.4327710000000  0.5062640000000  0.5064290000000 1.0
C      1  0.5438570000000  0.4999420000000  0.4993160000000 1.0
C      1  0.4617270000000  0.5049270000000  0.4940320000000 1.0
C      1  0.4845750000000  0.5125460000000  0.5134790000000 1.0
C      1  0.4058170000000  0.5019870000000  0.4930240000000 1.0
C      1  0.5869190000000  0.5041620000000  0.4976380000000 1.0
END
