TITL C-2323480-5884-142 -0.00384565161703754 125000 -357.614696318982 0 0 60 (C1) n - 1
REM
REM in /home/bkarasulu/CARBON/AIRSS/Generating-Clusters/LCBOP/Higher-Symm/Only-C60/SD-CG/FIRE-HFTN
REM
REM
REM
REM
REM
REM ./C.cell (50c204cfd26239f34c78669fe23a5462)
REM
REM compiler GCC version 9.2.1 20190827 (Red Hat 9.2.1-1)
REM options -cpp -mtune=generic -march=x86-64 -g -O0 -fpre-include=/usr/include/finclude/math-vector-fortran.h
REM seed -645138795 -736829012 -700853628 718626893 583564894 1232308969 1996071334 594569216 -1566403443 -1976751015 1726142356 -473943136 255710676 888288062 -290863912 1462550903 -14377338 -520547931 2051092947 -1018390230 912135991 -1636534553 260418478 537945258 -1657432837 -828706861 2124302577 -708475449 -1725127302 -140266589 1717019935 -205463557 -916063065
REM
CELL 1.54180   50.00000   50.00000   50.00000   90.00000   90.00000   90.00000
LATT -1
SFAC C  
C      1  0.4814520000000  0.4715850000000  0.4996890000000 1.0
C      1  0.5512780000000  0.4855240000000  0.4570880000000 1.0
C      1  0.5126760000000  0.5791260000000  0.5269320000000 1.0
C      1  0.5211990000000  0.5303090000000  0.5872190000000 1.0
C      1  0.4612260000000  0.4628910000000  0.4822970000000 1.0
C      1  0.5104090000000  0.4670990000000  0.4360080000000 1.0
C      1  0.4941280000000  0.5992780000000  0.4858930000000 1.0
C      1  0.5634450000000  0.4904590000000  0.4821770000000 1.0
C      1  0.4976850000000  0.4432550000000  0.4281110000000 1.0
C      1  0.4730100000000  0.4573760000000  0.3699210000000 1.0
C      1  0.4790610000000  0.5016680000000  0.3513010000000 1.0
C      1  0.5090360000000  0.5076430000000  0.5171450000000 1.0
C      1  0.5301640000000  0.4459750000000  0.4760940000000 1.0
C      1  0.5312530000000  0.4652560000000  0.4555420000000 1.0
C      1  0.4515640000000  0.5309390000000  0.4524780000000 1.0
C      1  0.4677920000000  0.5961380000000  0.4768290000000 1.0
C      1  0.5080360000000  0.6223590000000  0.4814250000000 1.0
C      1  0.5655720000000  0.4867050000000  0.5608730000000 1.0
C      1  0.4730810000000  0.4857020000000  0.5445700000000 1.0
C      1  0.5376810000000  0.5068050000000  0.5207900000000 1.0
C      1  0.4602640000000  0.4609050000000  0.5508820000000 1.0
C      1  0.5509820000000  0.5021070000000  0.5447990000000 1.0
C      1  0.4403360000000  0.5069080000000  0.4613050000000 1.0
C      1  0.5304640000000  0.4335110000000  0.5531250000000 1.0
C      1  0.5293290000000  0.5435170000000  0.4702440000000 1.0
C      1  0.5201610000000  0.5062600000000  0.5986260000000 1.0
C      1  0.5082690000000  0.5516070000000  0.4878100000000 1.0
C      1  0.5259330000000  0.5270000000000  0.4467650000000 1.0
C      1  0.4767380000000  0.5294400000000  0.4402650000000 1.0
C      1  0.5022290000000  0.4916160000000  0.4230240000000 1.0
C      1  0.4735680000000  0.4354400000000  0.3852910000000 1.0
C      1  0.5170310000000  0.5688260000000  0.5511350000000 1.0
C      1  0.4838550000000  0.4301250000000  0.4094400000000 1.0
C      1  0.4483490000000  0.5803770000000  0.4678380000000 1.0
C      1  0.4729490000000  0.4420760000000  0.5661070000000 1.0
C      1  0.4649180000000  0.4944110000000  0.6248160000000 1.0
C      1  0.4647160000000  0.5081650000000  0.5590950000000 1.0
C      1  0.5476250000000  0.5090160000000  0.4414910000000 1.0
C      1  0.5196630000000  0.5515980000000  0.5712830000000 1.0
C      1  0.5624050000000  0.4630310000000  0.5729660000000 1.0
C      1  0.4517000000000  0.5103470000000  0.6077870000000 1.0
C      1  0.4821460000000  0.4839280000000  0.3717890000000 1.0
C      1  0.5210720000000  0.4576370000000  0.5956670000000 1.0
C      1  0.4448000000000  0.4824470000000  0.4707380000000 1.0
C      1  0.4415710000000  0.5561080000000  0.4592470000000 1.0
C      1  0.5293470000000  0.4350010000000  0.5003970000000 1.0
C      1  0.4899020000000  0.4870360000000  0.5216430000000 1.0
C      1  0.4573250000000  0.4363310000000  0.4773170000000 1.0
C      1  0.4946080000000  0.4912000000000  0.3959270000000 1.0
C      1  0.5107590000000  0.4810800000000  0.6072340000000 1.0
C      1  0.5284790000000  0.4304280000000  0.5266680000000 1.0
C      1  0.5548630000000  0.5118950000000  0.4984640000000 1.0
C      1  0.5059400000000  0.5774470000000  0.4996000000000 1.0
C      1  0.4536770000000  0.5166810000000  0.5818620000000 1.0
C      1  0.4882080000000  0.4811530000000  0.6239910000000 1.0
C      1  0.5384520000000  0.4483320000000  0.5756240000000 1.0
C      1  0.4987220000000  0.5302960000000  0.5036850000000 1.0
C      1  0.4346860000000  0.4565480000000  0.5419590000000 1.0
C      1  0.5013550000000  0.5170910000000  0.4364250000000 1.0
C      1  0.5528570000000  0.5369880000000  0.4852900000000 1.0
END
