TITL C-2323478-8180-125 -2312.5787454027 125000 -359.992740233283 0 0 60 (C1) n - 1
REM
REM in /home/bkarasulu/CARBON/AIRSS/Generating-Clusters/LCBOP/Higher-Symm/Only-C60/SD-CG/FIRE-HFTN
REM
REM
REM
REM
REM
REM ./C.cell (50c204cfd26239f34c78669fe23a5462)
REM
REM compiler GCC version 9.2.1 20190827 (Red Hat 9.2.1-1)
REM options -cpp -mtune=generic -march=x86-64 -g -O0 -fpre-include=/usr/include/finclude/math-vector-fortran.h
REM seed 1081076386 -1738985275 -199783558 1821420425 -126806956 1081103856 797806123 1944981124 1603687693 -1443816842 -738419136 929554396 2108519639 1248555341 -660923375 187657917 2097677085 1560950628 409367362 -1936154601 -63900046 -870548535 44642666 489492419 -105809600 -1291611034 -1044630612 896106107 -2063848338 734000340 1611326867 1101275129 -166829432
REM
CELL 1.54180   50.00000   50.00000   50.00000   90.00000   90.00000   90.00000
LATT -1
SFAC C  
C      1  0.5336010000000  0.4733650000000  0.4474270000000 1.0
C      1  0.5249450000000  0.5341210000000  0.4526000000000 1.0
C      1  0.5287100000000  0.5543560000000  0.5338900000000 1.0
C      1  0.5282270000000  0.5053100000000  0.5557120000000 1.0
C      1  0.5181210000000  0.4150080000000  0.5048330000000 1.0
C      1  0.5254680000000  0.4603910000000  0.5466860000000 1.0
C      1  0.5128440000000  0.5628900000000  0.5568580000000 1.0
C      1  0.5281690000000  0.5687240000000  0.4824210000000 1.0
C      1  0.5197190000000  0.4754340000000  0.4220940000000 1.0
C      1  0.5303350000000  0.4364400000000  0.4879990000000 1.0
C      1  0.4436720000000  0.5402150000000  0.5121540000000 1.0
C      1  0.4371820000000  0.4982150000000  0.5400680000000 1.0
C      1  0.4527920000000  0.4568010000000  0.5195500000000 1.0
C      1  0.4494040000000  0.4738260000000  0.4657170000000 1.0
C      1  0.4509360000000  0.5283360000000  0.4624030000000 1.0
C      1  0.4354290000000  0.5306770000000  0.4866880000000 1.0
C      1  0.4549950000000  0.5009810000000  0.4534920000000 1.0
C      1  0.4435070000000  0.4674780000000  0.4935730000000 1.0
C      1  0.4526550000000  0.4742680000000  0.5429300000000 1.0
C      1  0.4478360000000  0.5243150000000  0.5361880000000 1.0
C      1  0.4813310000000  0.4992600000000  0.4416090000000 1.0
C      1  0.4773560000000  0.5614360000000  0.4853990000000 1.0
C      1  0.4748650000000  0.5279560000000  0.5506780000000 1.0
C      1  0.4741040000000  0.4768350000000  0.5624640000000 1.0
C      1  0.4821540000000  0.4362800000000  0.4660410000000 1.0
C      1  0.4819720000000  0.5050400000000  0.5705570000000 1.0
C      1  0.4610170000000  0.5633670000000  0.5093360000000 1.0
C      1  0.4722650000000  0.5502940000000  0.4586440000000 1.0
C      1  0.4636030000000  0.4520230000000  0.4508280000000 1.0
C      1  0.4761540000000  0.4397500000000  0.5173470000000 1.0
C      1  0.5078670000000  0.5236550000000  0.4740770000000 1.0
C      1  0.5077290000000  0.5430470000000  0.5178100000000 1.0
C      1  0.5114020000000  0.5003220000000  0.5317970000000 1.0
C      1  0.4954950000000  0.4588200000000  0.5075430000000 1.0
C      1  0.5119960000000  0.4759100000000  0.4663200000000 1.0
C      1  0.4943650000000  0.5211830000000  0.5275980000000 1.0
C      1  0.5044300000000  0.5498390000000  0.4908160000000 1.0
C      1  0.4980670000000  0.4995580000000  0.4650120000000 1.0
C      1  0.5045670000000  0.4520010000000  0.4800390000000 1.0
C      1  0.5105430000000  0.4733770000000  0.5248980000000 1.0
C      1  0.5655180000000  0.5217080000000  0.5308920000000 1.0
C      1  0.5533600000000  0.4704170000000  0.5400310000000 1.0
C      1  0.5537200000000  0.4554480000000  0.4884300000000 1.0
C      1  0.5633890000000  0.5041440000000  0.4685800000000 1.0
C      1  0.5516480000000  0.5510050000000  0.4897140000000 1.0
C      1  0.5520690000000  0.5309550000000  0.4667110000000 1.0
C      1  0.5560860000000  0.4759680000000  0.4658790000000 1.0
C      1  0.5636520000000  0.4611190000000  0.5148530000000 1.0
C      1  0.5549460000000  0.4996480000000  0.5460100000000 1.0
C      1  0.5531810000000  0.5452440000000  0.5192710000000 1.0
C      1  0.4769190000000  0.4120680000000  0.4803530000000 1.0
C      1  0.4907610000000  0.4799810000000  0.4217980000000 1.0
C      1  0.5186870000000  0.5788540000000  0.4564850000000 1.0
C      1  0.4834420000000  0.5580010000000  0.5547630000000 1.0
C      1  0.5065450000000  0.4627360000000  0.5683480000000 1.0
C      1  0.4881110000000  0.4141510000000  0.5071110000000 1.0
C      1  0.5101700000000  0.4993810000000  0.5764610000000 1.0
C      1  0.4697430000000  0.5741480000000  0.5345160000000 1.0
C      1  0.5057230000000  0.5560250000000  0.4436070000000 1.0
C      1  0.4724990000000  0.4578950000000  0.4240890000000 1.0
END
