TITL C-2323478-8180-483 10363.5244643045 125000 -346.666185190173 0 0 60 (C1) n - 1
REM
REM in /home/bkarasulu/CARBON/AIRSS/Generating-Clusters/LCBOP/Higher-Symm/Only-C60/SD-CG/FIRE-HFTN
REM
REM
REM
REM
REM
REM ./C.cell (50c204cfd26239f34c78669fe23a5462)
REM
REM compiler GCC version 9.2.1 20190827 (Red Hat 9.2.1-1)
REM options -cpp -mtune=generic -march=x86-64 -g -O0 -fpre-include=/usr/include/finclude/math-vector-fortran.h
REM seed 1621458300 -661014759 -456493398 2007385696 -2130908850 1763669926 -691660982 -176602520 -1654531608 -2109225420 1500175168 -1597088720 2097859976 -712601110 -1268772271 -199127474 539709174 979085528 -1016387678 96228994 -75332010 -1177360204 -1416780483 -1097796822 -1936515062 341144905 1849435438 1521860413 -805807485 29032382 -321798571 489781347 -434390185
REM
CELL 1.54180   50.00000   50.00000   50.00000   90.00000   90.00000   90.00000
LATT -1
SFAC C  
C      1  0.4384120000000  0.5146080000000  0.4674170000000 1.0
C      1  0.4815260000000  0.4321420000000  0.4713960000000 1.0
C      1  0.5671960000000  0.4848040000000  0.4710460000000 1.0
C      1  0.5136680000000  0.5636430000000  0.4684640000000 1.0
C      1  0.4371920000000  0.5141330000000  0.5308390000000 1.0
C      1  0.4842750000000  0.4328200000000  0.5305460000000 1.0
C      1  0.5665320000000  0.4843460000000  0.5293680000000 1.0
C      1  0.5133570000000  0.5640280000000  0.5325470000000 1.0
C      1  0.4815770000000  0.5059500000000  0.4772350000000 1.0
C      1  0.4904070000000  0.4790270000000  0.4748060000000 1.0
C      1  0.5266160000000  0.5048220000000  0.4747960000000 1.0
C      1  0.5040940000000  0.5218480000000  0.4776010000000 1.0
C      1  0.4803320000000  0.5055470000000  0.5229320000000 1.0
C      1  0.4881750000000  0.4784130000000  0.5261610000000 1.0
C      1  0.5256520000000  0.5048420000000  0.5268830000000 1.0
C      1  0.5029750000000  0.5214390000000  0.5235510000000 1.0
C      1  0.4611300000000  0.5607600000000  0.5252590000000 1.0
C      1  0.4406360000000  0.4615840000000  0.5249320000000 1.0
C      1  0.5356840000000  0.4414700000000  0.5246260000000 1.0
C      1  0.5599730000000  0.5370050000000  0.5255300000000 1.0
C      1  0.4617150000000  0.5610290000000  0.4744650000000 1.0
C      1  0.4422660000000  0.4615790000000  0.4707400000000 1.0
C      1  0.5345500000000  0.4429600000000  0.4740060000000 1.0
C      1  0.5603450000000  0.5372940000000  0.4756290000000 1.0
C      1  0.5307090000000  0.5026030000000  0.5556650000000 1.0
C      1  0.5071970000000  0.5181870000000  0.5668320000000 1.0
C      1  0.4810080000000  0.5010900000000  0.5662150000000 1.0
C      1  0.4864040000000  0.4735400000000  0.5551710000000 1.0
C      1  0.5310090000000  0.5024920000000  0.4456890000000 1.0
C      1  0.5077300000000  0.5176770000000  0.4342550000000 1.0
C      1  0.4814670000000  0.5007820000000  0.4341690000000 1.0
C      1  0.4847330000000  0.4734470000000  0.4466920000000 1.0
C      1  0.5553470000000  0.4883620000000  0.5560370000000 1.0
C      1  0.5086600000000  0.5473030000000  0.5579530000000 1.0
C      1  0.4537510000000  0.5112010000000  0.5567440000000 1.0
C      1  0.4865990000000  0.4452250000000  0.5566240000000 1.0
C      1  0.5560520000000  0.4891960000000  0.4445420000000 1.0
C      1  0.5091970000000  0.5471000000000  0.4427250000000 1.0
C      1  0.4550810000000  0.5124090000000  0.4423380000000 1.0
C      1  0.4713250000000  0.4492090000000  0.4495870000000 1.0
C      1  0.5087550000000  0.4315950000000  0.4842280000000 1.0
C      1  0.5707800000000  0.5109110000000  0.4858800000000 1.0
C      1  0.4878040000000  0.5717400000000  0.4845770000000 1.0
C      1  0.4332260000000  0.4875640000000  0.4825660000000 1.0
C      1  0.5096500000000  0.4308860000000  0.5145230000000 1.0
C      1  0.5704280000000  0.5107010000000  0.5150620000000 1.0
C      1  0.4874370000000  0.5719080000000  0.5158980000000 1.0
C      1  0.4319080000000  0.4876910000000  0.5137780000000 1.0
C      1  0.5565140000000  0.4604850000000  0.4849350000000 1.0
C      1  0.5397930000000  0.5572420000000  0.4851120000000 1.0
C      1  0.4420450000000  0.5407580000000  0.4840130000000 1.0
C      1  0.4585930000000  0.4358140000000  0.4894590000000 1.0
C      1  0.5566460000000  0.4600120000000  0.5145740000000 1.0
C      1  0.5397280000000  0.5573400000000  0.5160760000000 1.0
C      1  0.4416190000000  0.5406460000000  0.5148800000000 1.0
C      1  0.4589700000000  0.4402630000000  0.5169970000000 1.0
C      1  0.5054400000000  0.5357540000000  0.5006800000000 1.0
C      1  0.4668450000000  0.5089870000000  0.4996620000000 1.0
C      1  0.5026000000000  0.4732770000000  0.5009210000000 1.0
C      1  0.5266670000000  0.4905100000000  0.5009270000000 1.0
END
