TITL C-2323478-8180-550 -8.58442162666999e-05 125000 -343.437479332831 0 0 60 (C1) n - 1
REM
REM in /home/bkarasulu/CARBON/AIRSS/Generating-Clusters/LCBOP/Higher-Symm/Only-C60/SD-CG/FIRE-HFTN
REM
REM
REM
REM
REM
REM ./C.cell (50c204cfd26239f34c78669fe23a5462)
REM
REM compiler GCC version 9.2.1 20190827 (Red Hat 9.2.1-1)
REM options -cpp -mtune=generic -march=x86-64 -g -O0 -fpre-include=/usr/include/finclude/math-vector-fortran.h
REM seed 156173567 -275790171 1958437721 -1848919883 618227234 -1772265965 -1167539525 -848679258 -1222858421 -1284734092 1891800571 1809276549 -1184197592 2099788494 913390364 -1615071830 1426375901 -2014076121 1028040638 1522844711 317077464 -621441380 -1621722117 -1374762418 163038017 1857445928 -1326504956 178546586 1625044157 -69580773 894038703 1215457763 -866481739
REM
CELL 1.54180   50.00000   50.00000   50.00000   90.00000   90.00000   90.00000
LATT -1
SFAC C  
C      1  0.5417870000000  0.4446990000000  0.5275310000000 1.0
C      1  0.4447480000000  0.4616840000000  0.5337650000000 1.0
C      1  0.4614460000000  0.5553800000000  0.5377290000000 1.0
C      1  0.5552570000000  0.5383820000000  0.5327970000000 1.0
C      1  0.5453990000000  0.4431680000000  0.4653450000000 1.0
C      1  0.4433510000000  0.4659830000000  0.4662000000000 1.0
C      1  0.4575650000000  0.5618930000000  0.4702410000000 1.0
C      1  0.5492190000000  0.5461590000000  0.4665600000000 1.0
C      1  0.4644910000000  0.5176580000000  0.4756340000000 1.0
C      1  0.5167830000000  0.5143100000000  0.4749010000000 1.0
C      1  0.5214710000000  0.4865850000000  0.4739340000000 1.0
C      1  0.4951830000000  0.4749430000000  0.4650840000000 1.0
C      1  0.4687480000000  0.5095540000000  0.5274820000000 1.0
C      1  0.5110520000000  0.5301930000000  0.5234630000000 1.0
C      1  0.5134980000000  0.4791880000000  0.5201920000000 1.0
C      1  0.4900530000000  0.4667630000000  0.5137680000000 1.0
C      1  0.4326380000000  0.4840630000000  0.5161660000000 1.0
C      1  0.4818450000000  0.5663270000000  0.5188570000000 1.0
C      1  0.5657350000000  0.5201900000000  0.5110790000000 1.0
C      1  0.5175570000000  0.4315530000000  0.5101340000000 1.0
C      1  0.4312360000000  0.4867140000000  0.4860280000000 1.0
C      1  0.4794290000000  0.5707800000000  0.4895670000000 1.0
C      1  0.5629350000000  0.5232940000000  0.4810800000000 1.0
C      1  0.5193960000000  0.4356660000000  0.4791690000000 1.0
C      1  0.4791930000000  0.5214370000000  0.4488570000000 1.0
C      1  0.5094580000000  0.5262090000000  0.4497250000000 1.0
C      1  0.5712090000000  0.4012150000000  0.4423180000000 1.0
C      1  0.4791920000000  0.4903610000000  0.4424420000000 1.0
C      1  0.4829930000000  0.5134790000000  0.5561930000000 1.0
C      1  0.5141780000000  0.5135690000000  0.5498900000000 1.0
C      1  0.5205380000000  0.4837850000000  0.5473630000000 1.0
C      1  0.4699120000000  0.4904480000000  0.5706260000000 1.0
C      1  0.5558430000000  0.4676850000000  0.5124080000000 1.0
C      1  0.4604240000000  0.4370870000000  0.5264620000000 1.0
C      1  0.4366950000000  0.5403640000000  0.5306760000000 1.0
C      1  0.5394870000000  0.5635650000000  0.5287550000000 1.0
C      1  0.5592510000000  0.4696810000000  0.4624190000000 1.0
C      1  0.4628840000000  0.4421160000000  0.4690060000000 1.0
C      1  0.4318200000000  0.5465480000000  0.4769540000000 1.0
C      1  0.5328030000000  0.5679940000000  0.4771960000000 1.0
C      1  0.5660330000000  0.4965880000000  0.4665480000000 1.0
C      1  0.4931560000000  0.4444600000000  0.4661910000000 1.0
C      1  0.4357980000000  0.5171780000000  0.4776410000000 1.0
C      1  0.5063490000000  0.5755240000000  0.4785250000000 1.0
C      1  0.5713800000000  0.4917540000000  0.5184690000000 1.0
C      1  0.4888680000000  0.4387980000000  0.5190780000000 1.0
C      1  0.4395040000000  0.5113580000000  0.5277200000000 1.0
C      1  0.5106520000000  0.5591150000000  0.5262410000000 1.0
C      1  0.4686080000000  0.5503340000000  0.4446110000000 1.0
C      1  0.5339610000000  0.5386970000000  0.4423470000000 1.0
C      1  0.5588830000000  0.4214190000000  0.4532240000000 1.0
C      1  0.4525360000000  0.4786510000000  0.4410550000000 1.0
C      1  0.4735250000000  0.5422230000000  0.5612200000000 1.0
C      1  0.5426240000000  0.5245360000000  0.5562480000000 1.0
C      1  0.5340890000000  0.4586460000000  0.5531830000000 1.0
C      1  0.4529020000000  0.4717830000000  0.5599980000000 1.0
C      1  0.4781030000000  0.5085550000000  0.4992240000000 1.0
C      1  0.4797640000000  0.4801360000000  0.4921300000000 1.0
C      1  0.5042140000000  0.5211040000000  0.4986090000000 1.0
C      1  0.5323500000000  0.4784700000000  0.4988040000000 1.0
END
