TITL C-2323482-8828-238 3.83150813027298e-05 125000 -359.664731482612 0 0 60 (D2) n - 1
REM
REM in /home/bkarasulu/CARBON/AIRSS/Generating-Clusters/LCBOP/Higher-Symm/Only-C60/SD-CG/FIRE-HFTN
REM
REM
REM
REM
REM
REM ./C.cell (50c204cfd26239f34c78669fe23a5462)
REM
REM compiler GCC version 9.2.1 20190827 (Red Hat 9.2.1-1)
REM options -cpp -mtune=generic -march=x86-64 -g -O0 -fpre-include=/usr/include/finclude/math-vector-fortran.h
REM seed -958743294 1075886060 195589598 -1261977914 1398946139 193018269 1284035835 1099251288 -1727072700 -189635577 361010807 -1502184193 -1622299685 454822565 -342828273 1316515103 366816721 1361192985 840192835 -1537155516 -444942659 701243752 -87792978 -1036528581 -373624500 884155776 1204485490 656467697 2007592528 -943605585 -1335221852 -1870004229 542614652
REM
CELL 1.54180   50.00000   50.00000   50.00000   90.00000   90.00000   90.00000
LATT -1
SFAC C  
C      1  0.5130280000000  0.4513850000000  0.4677950000000 1.0
C      1  0.4869730000000  0.4513810000000  0.5322000000000 1.0
C      1  0.4869730000000  0.5486180000000  0.4677990000000 1.0
C      1  0.5130250000000  0.5486160000000  0.5322050000000 1.0
C      1  0.5400310000000  0.5466480000000  0.4687300000000 1.0
C      1  0.4599680000000  0.5466440000000  0.5312750000000 1.0
C      1  0.4599700000000  0.4533550000000  0.4687240000000 1.0
C      1  0.5400310000000  0.4533530000000  0.5312720000000 1.0
C      1  0.4873580000000  0.4937220000000  0.5533830000000 1.0
C      1  0.5126420000000  0.4937280000000  0.4466160000000 1.0
C      1  0.5126400000000  0.5062730000000  0.5533850000000 1.0
C      1  0.4873600000000  0.5062770000000  0.4466160000000 1.0
C      1  0.4413590000000  0.4521010000000  0.4480720000000 1.0
C      1  0.5586420000000  0.4520980000000  0.5519240000000 1.0
C      1  0.5586430000000  0.5479040000000  0.4480790000000 1.0
C      1  0.4413560000000  0.5478980000000  0.5519260000000 1.0
C      1  0.5294640000000  0.4895090000000  0.4238310000000 1.0
C      1  0.4705360000000  0.4895010000000  0.5761680000000 1.0
C      1  0.4705380000000  0.5104980000000  0.4238310000000 1.0
C      1  0.5294610000000  0.5104920000000  0.5761700000000 1.0
C      1  0.5483110000000  0.5569700000000  0.5625920000000 1.0
C      1  0.4516870000000  0.5569740000000  0.4374130000000 1.0
C      1  0.4516860000000  0.4430250000000  0.5625850000000 1.0
C      1  0.5483150000000  0.4430320000000  0.4374100000000 1.0
C      1  0.5136550000000  0.5561470000000  0.4656550000000 1.0
C      1  0.4863440000000  0.5561430000000  0.5343510000000 1.0
C      1  0.4863470000000  0.4438570000000  0.4656490000000 1.0
C      1  0.5136550000000  0.4438540000000  0.5343460000000 1.0
C      1  0.5553300000000  0.4438560000000  0.4862710000000 1.0
C      1  0.4446710000000  0.4438540000000  0.5137240000000 1.0
C      1  0.4446700000000  0.5561450000000  0.4862740000000 1.0
C      1  0.5553290000000  0.5561450000000  0.5137310000000 1.0
C      1  0.5320680000000  0.5083900000000  0.4042510000000 1.0
C      1  0.4679320000000  0.5083800000000  0.5957500000000 1.0
C      1  0.4679360000000  0.4916190000000  0.4042490000000 1.0
C      1  0.5320640000000  0.4916110000000  0.5957500000000 1.0
C      1  0.4815300000000  0.5201460000000  0.4707310000000 1.0
C      1  0.5184700000000  0.5201440000000  0.5292710000000 1.0
C      1  0.5184720000000  0.4798560000000  0.4707300000000 1.0
C      1  0.4815290000000  0.4798530000000  0.5292680000000 1.0
C      1  0.5471110000000  0.5364930000000  0.4943470000000 1.0
C      1  0.4528880000000  0.5364910000000  0.5056570000000 1.0
C      1  0.4528890000000  0.4635070000000  0.4943420000000 1.0
C      1  0.5471120000000  0.4635080000000  0.5056550000000 1.0
C      1  0.4662050000000  0.5130750000000  0.4942110000000 1.0
C      1  0.5337950000000  0.5130750000000  0.5057910000000 1.0
C      1  0.5337960000000  0.4869260000000  0.4942110000000 1.0
C      1  0.4662050000000  0.4869240000000  0.5057880000000 1.0
C      1  0.5386760000000  0.5610830000000  0.5363230000000 1.0
C      1  0.4613220000000  0.5610850000000  0.4636830000000 1.0
C      1  0.4613220000000  0.4389140000000  0.5363160000000 1.0
C      1  0.5386790000000  0.4389180000000  0.4636790000000 1.0
C      1  0.5435480000000  0.4649400000000  0.4223060000000 1.0
C      1  0.4564530000000  0.4649320000000  0.5776910000000 1.0
C      1  0.4564550000000  0.5350670000000  0.4223070000000 1.0
C      1  0.5435440000000  0.5350610000000  0.5776960000000 1.0
C      1  0.4224300000000  0.4499280000000  0.4302900000000 1.0
C      1  0.5775710000000  0.4499230000000  0.5697050000000 1.0
C      1  0.5775730000000  0.5500790000000  0.4302980000000 1.0
C      1  0.4224260000000  0.5500700000000  0.5697070000000 1.0
END
