TITL C-2323490-8774-125 1.90834264227505e-05 125000 -351.871943593335 0 0 60 (C1) n - 1
REM
REM in /home/bkarasulu/CARBON/AIRSS/Generating-Clusters/LCBOP/Higher-Symm/Only-C60/SD-CG/FIRE-HFTN
REM
REM
REM
REM
REM
REM ./C.cell (50c204cfd26239f34c78669fe23a5462)
REM
REM compiler GCC version 9.2.1 20190827 (Red Hat 9.2.1-1)
REM options -cpp -mtune=generic -march=x86-64 -g -O0 -fpre-include=/usr/include/finclude/math-vector-fortran.h
REM seed 502460702 1944212785 -682232954 1611218877 -2088678730 -1962676027 1083427993 1353428946 325852411 -2146844291 512998428 644663345 609298281 1700317616 1369184226 -556681249 1292936266 490427092 -1868735064 1303574247 1177509126 1608037807 -422520390 2086663142 637409569 1102882224 1017034506 -924672600 2069365022 1090091475 527563521 2004448478 1745377386
REM
CELL 1.54180   50.00000   50.00000   50.00000   90.00000   90.00000   90.00000
LATT -1
SFAC C  
C      1  0.4978320000000  0.4095660000000  0.5165170000000 1.0
C      1  0.4960790000000  0.5811060000000  0.4756100000000 1.0
C      1  0.4390230000000  0.4960960000000  0.5271070000000 1.0
C      1  0.5640320000000  0.5010480000000  0.4725480000000 1.0
C      1  0.4720860000000  0.5210740000000  0.5019300000000 1.0
C      1  0.5322200000000  0.4766440000000  0.5005320000000 1.0
C      1  0.5184420000000  0.5703020000000  0.4898540000000 1.0
C      1  0.4801770000000  0.4307720000000  0.5086510000000 1.0
C      1  0.4704220000000  0.5703070000000  0.4727970000000 1.0
C      1  0.5241200000000  0.4046640000000  0.5130620000000 1.0
C      1  0.4770390000000  0.4801310000000  0.5663770000000 1.0
C      1  0.5265280000000  0.5236810000000  0.4343800000000 1.0
C      1  0.5503950000000  0.5101830000000  0.4273250000000 1.0
C      1  0.4518480000000  0.4914050000000  0.5729130000000 1.0
C      1  0.4526310000000  0.5559500000000  0.5446060000000 1.0
C      1  0.5445510000000  0.4456210000000  0.4529020000000 1.0
C      1  0.5150730000000  0.5416860000000  0.5352120000000 1.0
C      1  0.4838860000000  0.4653310000000  0.4657830000000 1.0
C      1  0.5339860000000  0.4279790000000  0.4726640000000 1.0
C      1  0.4615360000000  0.5717800000000  0.5223820000000 1.0
C      1  0.4510970000000  0.5705300000000  0.4956990000000 1.0
C      1  0.5430960000000  0.4209260000000  0.4992410000000 1.0
C      1  0.5601200000000  0.4356530000000  0.5164290000000 1.0
C      1  0.4287760000000  0.5556530000000  0.4844350000000 1.0
C      1  0.4638150000000  0.4401660000000  0.5304570000000 1.0
C      1  0.5392550000000  0.5619600000000  0.4721790000000 1.0
C      1  0.5315340000000  0.5485190000000  0.4480780000000 1.0
C      1  0.4745940000000  0.4544390000000  0.5530510000000 1.0
C      1  0.4885890000000  0.5802970000000  0.5253450000000 1.0
C      1  0.5059220000000  0.4235520000000  0.4690170000000 1.0
C      1  0.4973640000000  0.5257410000000  0.5522720000000 1.0
C      1  0.5023020000000  0.4801640000000  0.4481990000000 1.0
C      1  0.4109690000000  0.4288950000000  0.5297550000000 1.0
C      1  0.5912600000000  0.5703020000000  0.4835150000000 1.0
C      1  0.5660230000000  0.5670730000000  0.4778820000000 1.0
C      1  0.4365160000000  0.4340180000000  0.5301770000000 1.0
C      1  0.5686040000000  0.5028540000000  0.4460170000000 1.0
C      1  0.4334370000000  0.4961790000000  0.5535520000000 1.0
C      1  0.5117300000000  0.5648740000000  0.5178630000000 1.0
C      1  0.4857220000000  0.4402930000000  0.4809470000000 1.0
C      1  0.5203640000000  0.4817090000000  0.5463140000000 1.0
C      1  0.4840680000000  0.5261010000000  0.4565260000000 1.0
C      1  0.4930010000000  0.5238690000000  0.4838240000000 1.0
C      1  0.5118760000000  0.4757260000000  0.5196050000000 1.0
C      1  0.5408180000000  0.5001310000000  0.4882510000000 1.0
C      1  0.4633110000000  0.4972320000000  0.5130410000000 1.0
C      1  0.5947300000000  0.4392830000000  0.4344210000000 1.0
C      1  0.4022680000000  0.5600260000000  0.5632580000000 1.0
C      1  0.5018560000000  0.5092570000000  0.4411730000000 1.0
C      1  0.5001650000000  0.4971110000000  0.5596770000000 1.0
C      1  0.4721110000000  0.5387000000000  0.5562740000000 1.0
C      1  0.5262840000000  0.4652160000000  0.4429450000000 1.0
C      1  0.5595220000000  0.4510830000000  0.5386190000000 1.0
C      1  0.4360990000000  0.5425960000000  0.4609260000000 1.0
C      1  0.5444970000000  0.4686220000000  0.5528440000000 1.0
C      1  0.4643560000000  0.5467900000000  0.4549090000000 1.0
C      1  0.5703630000000  0.4427400000000  0.4429930000000 1.0
C      1  0.4268120000000  0.5581700000000  0.5546980000000 1.0
C      1  0.4845160000000  0.4788150000000  0.5139690000000 1.0
C      1  0.5203530000000  0.5194080000000  0.4884700000000 1.0
END
