TITL C-2323481-8605-144 8.34615657850629e-07 125000 -372.367024439338 0 0 60 (D6h) n - 1
REM
REM in /home/bkarasulu/CARBON/AIRSS/Generating-Clusters/LCBOP/Higher-Symm/Only-C60/SD-CG/FIRE-HFTN
REM
REM
REM
REM
REM
REM ./C.cell (50c204cfd26239f34c78669fe23a5462)
REM
REM compiler GCC version 9.2.1 20190827 (Red Hat 9.2.1-1)
REM options -cpp -mtune=generic -march=x86-64 -g -O0 -fpre-include=/usr/include/finclude/math-vector-fortran.h
REM seed 1213288521 1446077559 248905173 1887463394 -163053990 -240821055 1408392911 -510226278 -263965277 -116475326 386651911 -913298228 -576956601 -866418387 -262601910 1583841695 -2135779375 1892537780 1635339434 -1565187179 -1668291483 -1683385152 -1432391355 -1138599386 -1516144721 84265716 528687777 1172970913 1337948190 377734742 -351171559 1903919430 599972087
REM
CELL 1.54180   50.00000   50.00000   50.00000   90.00000   90.00000   90.00000
LATT -1
SFAC C  
C      1  0.4299850000000  0.5297570000000  0.4985990000000 1.0
C      1  0.4299850000000  0.5136650000000  0.4735290000000 1.0
C      1  0.4299850000000  0.4839080000000  0.4749310000000 1.0
C      1  0.4299850000000  0.4702430000000  0.5014010000000 1.0
C      1  0.4299850000000  0.4863350000000  0.5264710000000 1.0
C      1  0.4299850000000  0.5160920000000  0.5250690000000 1.0
C      1  0.5700150000000  0.5297570000000  0.4985990000000 1.0
C      1  0.5700150000000  0.5136650000000  0.4735290000000 1.0
C      1  0.5700150000000  0.4839080000000  0.4749310000000 1.0
C      1  0.5700150000000  0.4702430000000  0.5014010000000 1.0
C      1  0.5700150000000  0.4863350000000  0.5264710000000 1.0
C      1  0.5700150000000  0.5160920000000  0.5250690000000 1.0
C      1  0.5134180000000  0.5474260000000  0.5738850000000 1.0
C      1  0.5134180000000  0.5876990000000  0.4958700000000 1.0
C      1  0.5134180000000  0.5402730000000  0.4219860000000 1.0
C      1  0.5134180000000  0.4525740000000  0.4261150000000 1.0
C      1  0.5134180000000  0.4123010000000  0.5041300000000 1.0
C      1  0.5134180000000  0.4597270000000  0.5780140000000 1.0
C      1  0.4865820000000  0.5474260000000  0.5738850000000 1.0
C      1  0.4865820000000  0.5876990000000  0.4958700000000 1.0
C      1  0.4865820000000  0.5402730000000  0.4219860000000 1.0
C      1  0.4865820000000  0.4525740000000  0.4261150000000 1.0
C      1  0.4865820000000  0.4123010000000  0.5041300000000 1.0
C      1  0.4865820000000  0.4597270000000  0.5780140000000 1.0
C      1  0.4757330000000  0.4715250000000  0.5013410000000 1.0
C      1  0.4757330000000  0.4869240000000  0.5253300000000 1.0
C      1  0.4757330000000  0.5153980000000  0.5239890000000 1.0
C      1  0.4757330000000  0.5284750000000  0.4986590000000 1.0
C      1  0.4757330000000  0.5130760000000  0.4746700000000 1.0
C      1  0.4757330000000  0.4846020000000  0.4760110000000 1.0
C      1  0.5242670000000  0.4715250000000  0.5013410000000 1.0
C      1  0.5242670000000  0.4869240000000  0.5253300000000 1.0
C      1  0.5242670000000  0.5153980000000  0.5239890000000 1.0
C      1  0.5242670000000  0.5284750000000  0.4986590000000 1.0
C      1  0.5242670000000  0.5130760000000  0.4746700000000 1.0
C      1  0.5242670000000  0.4846020000000  0.4760110000000 1.0
C      1  0.5370570000000  0.4595340000000  0.4369570000000 1.0
C      1  0.5370570000000  0.4251700000000  0.5035240000000 1.0
C      1  0.5370570000000  0.4656370000000  0.5665660000000 1.0
C      1  0.5370570000000  0.5404660000000  0.5630430000000 1.0
C      1  0.5370570000000  0.5748300000000  0.4964760000000 1.0
C      1  0.5370570000000  0.5343630000000  0.4334340000000 1.0
C      1  0.4629430000000  0.4595340000000  0.4369570000000 1.0
C      1  0.4629430000000  0.4251700000000  0.5035240000000 1.0
C      1  0.4629430000000  0.4656370000000  0.5665660000000 1.0
C      1  0.4629430000000  0.5404660000000  0.5630430000000 1.0
C      1  0.4629430000000  0.5748300000000  0.4964760000000 1.0
C      1  0.4629430000000  0.5343630000000  0.4334340000000 1.0
C      1  0.4539020000000  0.5261680000000  0.5407670000000 1.0
C      1  0.4539020000000  0.5483900000000  0.4977210000000 1.0
C      1  0.4539020000000  0.5222220000000  0.4569540000000 1.0
C      1  0.4539020000000  0.4738320000000  0.4592330000000 1.0
C      1  0.4539020000000  0.4516100000000  0.5022790000000 1.0
C      1  0.4539020000000  0.4777780000000  0.5430460000000 1.0
C      1  0.5460980000000  0.5261680000000  0.5407670000000 1.0
C      1  0.5460980000000  0.5483900000000  0.4977210000000 1.0
C      1  0.5460980000000  0.5222220000000  0.4569540000000 1.0
C      1  0.5460980000000  0.4738320000000  0.4592330000000 1.0
C      1  0.5460980000000  0.4516100000000  0.5022790000000 1.0
C      1  0.5460980000000  0.4777780000000  0.5430460000000 1.0
END
