TITL C-2323478-8180-468 99.6883154075448 125000 -355.76202026427 0 0 60 (C1) n - 1
REM
REM in /home/bkarasulu/CARBON/AIRSS/Generating-Clusters/LCBOP/Higher-Symm/Only-C60/SD-CG/FIRE-HFTN
REM
REM
REM
REM
REM
REM ./C.cell (50c204cfd26239f34c78669fe23a5462)
REM
REM compiler GCC version 9.2.1 20190827 (Red Hat 9.2.1-1)
REM options -cpp -mtune=generic -march=x86-64 -g -O0 -fpre-include=/usr/include/finclude/math-vector-fortran.h
REM seed 889297147 -1446680712 881256310 -1134901318 -982826916 138107150 -1563574464 -287355710 2000131647 1474762543 -4796223 1156261833 1804259283 -816353468 -1480428792 -498853934 398520698 -160351369 -2095639164 -1381783785 969131071 826062337 1404255723 253399852 1519870534 -1240500062 1899580844 -1406517706 -290411777 6466633 -962222330 -1781970678 408018266
REM
CELL 1.54180   50.00000   50.00000   50.00000   90.00000   90.00000   90.00000
LATT -1
SFAC C  
C      1  0.4731380000000  0.5084980000000  0.3834490000000 1.0
C      1  0.5209450000000  0.5000470000000  0.5180400000000 1.0
C      1  0.5103880000000  0.5528940000000  0.5234650000000 1.0
C      1  0.4843320000000  0.4262460000000  0.5296040000000 1.0
C      1  0.5800300000000  0.6083170000000  0.5053960000000 1.0
C      1  0.4802450000000  0.4683940000000  0.4517070000000 1.0
C      1  0.4778290000000  0.4817200000000  0.4289450000000 1.0
C      1  0.3942090000000  0.4507610000000  0.5142530000000 1.0
C      1  0.4754830000000  0.4951080000000  0.4061970000000 1.0
C      1  0.5651320000000  0.4581080000000  0.5555710000000 1.0
C      1  0.4352200000000  0.4219950000000  0.5215270000000 1.0
C      1  0.3875770000000  0.4701150000000  0.5314200000000 1.0
C      1  0.5772410000000  0.5559730000000  0.4975860000000 1.0
C      1  0.4529260000000  0.4384990000000  0.5626710000000 1.0
C      1  0.5013950000000  0.4796120000000  0.5149460000000 1.0
C      1  0.5181020000000  0.6434870000000  0.5366830000000 1.0
C      1  0.4614130000000  0.5754490000000  0.2697060000000 1.0
C      1  0.5458600000000  0.4549330000000  0.5756280000000 1.0
C      1  0.5729510000000  0.5299380000000  0.4952320000000 1.0
C      1  0.5108340000000  0.4198410000000  0.5210710000000 1.0
C      1  0.6116390000000  0.4434570000000  0.5544850000000 1.0
C      1  0.4936140000000  0.4567870000000  0.5775170000000 1.0
C      1  0.5202410000000  0.4377890000000  0.5011810000000 1.0
C      1  0.5698280000000  0.4870510000000  0.4736820000000 1.0
C      1  0.5640840000000  0.5034270000000  0.4948280000000 1.0
C      1  0.4591060000000  0.5886210000000  0.2473270000000 1.0
C      1  0.4603050000000  0.4942700000000  0.5757070000000 1.0
C      1  0.5532550000000  0.3984560000000  0.5413480000000 1.0
C      1  0.4707940000000  0.5218870000000  0.3607020000000 1.0
C      1  0.5131690000000  0.5266230000000  0.5217150000000 1.0
C      1  0.4800060000000  0.4477330000000  0.5514540000000 1.0
C      1  0.4617050000000  0.4239320000000  0.5107420000000 1.0
C      1  0.5066720000000  0.6224570000000  0.4945760000000 1.0
C      1  0.4347970000000  0.4233570000000  0.5497920000000 1.0
C      1  0.4637590000000  0.5620560000000  0.2924590000000 1.0
C      1  0.4782290000000  0.4775340000000  0.5903440000000 1.0
C      1  0.5818640000000  0.6340180000000  0.5093530000000 1.0
C      1  0.4684490000000  0.5352770000000  0.3379540000000 1.0
C      1  0.5487540000000  0.4937020000000  0.5167330000000 1.0
C      1  0.5282420000000  0.4014610000000  0.5325880000000 1.0
C      1  0.5181620000000  0.5954850000000  0.5467660000000 1.0
C      1  0.4815870000000  0.4748960000000  0.5351650000000 1.0
C      1  0.4088600000000  0.4950370000000  0.5716800000000 1.0
C      1  0.4676990000000  0.4959190000000  0.5482140000000 1.0
C      1  0.5209290000000  0.6217120000000  0.5524720000000 1.0
C      1  0.5753600000000  0.4119690000000  0.5477300000000 1.0
C      1  0.5849990000000  0.4379190000000  0.5525830000000 1.0
C      1  0.4121030000000  0.4315590000000  0.5087800000000 1.0
C      1  0.5046010000000  0.4604040000000  0.4940560000000 1.0
C      1  0.4833380000000  0.4550530000000  0.4758220000000 1.0
C      1  0.4661040000000  0.5486660000000  0.3152070000000 1.0
C      1  0.5611110000000  0.4780250000000  0.5363490000000 1.0
C      1  0.5116370000000  0.6438250000000  0.5103930000000 1.0
C      1  0.5116350000000  0.5806480000000  0.5235270000000 1.0
C      1  0.5066940000000  0.5960850000000  0.5002850000000 1.0
C      1  0.5789630000000  0.5821620000000  0.5012430000000 1.0
C      1  0.4333580000000  0.4986840000000  0.5817280000000 1.0
C      1  0.3928310000000  0.4852390000000  0.5527480000000 1.0
C      1  0.5204550000000  0.4520600000000  0.5827170000000 1.0
C      1  0.4658140000000  0.4348220000000  0.4849500000000 1.0
END
