TITL C-2323492-8884-159 0.0165528122595813 125000 -310.464386827734 0 0 60 (C2h) n - 1
REM
REM in /home/bkarasulu/CARBON/AIRSS/Generating-Clusters/LCBOP/Higher-Symm/Only-C60/SD-CG/FIRE-HFTN
REM
REM
REM
REM
REM
REM ./C.cell (50c204cfd26239f34c78669fe23a5462)
REM
REM compiler GCC version 9.2.1 20190827 (Red Hat 9.2.1-1)
REM options -cpp -mtune=generic -march=x86-64 -g -O0 -fpre-include=/usr/include/finclude/math-vector-fortran.h
REM seed -652355885 -292762192 -364477130 -1817875806 -1891864570 -737499836 -1077035566 -1401034730 720834500 -1693874591 1841754465 -182271751 -994256794 1318181069 929383789 1693378663 -579024387 1041917167 1255512704 224398149 1623738528 -1187185746 1139624081 1961852954 862873331 -2131507372 1543257646 1532524711 1468272478 -1272236254 1556532161 -2069463451 -1035622163
REM
CELL 1.54180   50.00000   50.00000   50.00000   90.00000   90.00000   90.00000
LATT -1
SFAC C  
C      1  0.5288080000000  0.5440480000000  0.5443490000000 1.0
C      1  0.5290890000000  0.5440800000000  0.4556280000000 1.0
C      1  0.5296090000000  0.4553280000000  0.4556630000000 1.0
C      1  0.5293300000000  0.4553810000000  0.5442950000000 1.0
C      1  0.4707650000000  0.5443720000000  0.4559200000000 1.0
C      1  0.4702450000000  0.5443380000000  0.5446720000000 1.0
C      1  0.4705240000000  0.4557050000000  0.5446190000000 1.0
C      1  0.4710460000000  0.4556510000000  0.4559520000000 1.0
C      1  0.5588320000000  0.4705070000000  0.5291090000000 1.0
C      1  0.5581600000000  0.5289670000000  0.5290170000000 1.0
C      1  0.5584460000000  0.5289330000000  0.4708830000000 1.0
C      1  0.5591160000000  0.4705160000000  0.4707650000000 1.0
C      1  0.4416940000000  0.4709830000000  0.4710330000000 1.0
C      1  0.4414080000000  0.5291170000000  0.4710660000000 1.0
C      1  0.4407380000000  0.5292350000000  0.5294840000000 1.0
C      1  0.4410210000000  0.4708920000000  0.5294930000000 1.0
C      1  0.5287940000000  0.4994270000000  0.4248780000000 1.0
C      1  0.5279890000000  0.4251520000000  0.4997590000000 1.0
C      1  0.5283030000000  0.4994360000000  0.5744750000000 1.0
C      1  0.5277880000000  0.5756470000000  0.4997670000000 1.0
C      1  0.4718640000000  0.5002410000000  0.5748480000000 1.0
C      1  0.4715510000000  0.4255250000000  0.5005640000000 1.0
C      1  0.4720650000000  0.5002330000000  0.4243530000000 1.0
C      1  0.4710600000000  0.5751220000000  0.5005730000000 1.0
C      1  0.4865950000000  0.5000770000000  0.4482500000000 1.0
C      1  0.4862950000000  0.4493470000000  0.5004760000000 1.0
C      1  0.4863180000000  0.5000980000000  0.5508570000000 1.0
C      1  0.4859760000000  0.5514240000000  0.5004870000000 1.0
C      1  0.5135580000000  0.4995240000000  0.5506530000000 1.0
C      1  0.5135360000000  0.4491430000000  0.4999020000000 1.0
C      1  0.5138780000000  0.4995130000000  0.4485760000000 1.0
C      1  0.5132590000000  0.5517500000000  0.4999230000000 1.0
C      1  0.4752610000000  0.5002340000000  0.4750950000000 1.0
C      1  0.4749650000000  0.4764280000000  0.5007690000000 1.0
C      1  0.4746770000000  0.5002470000000  0.5238650000000 1.0
C      1  0.4748320000000  0.5241900000000  0.5007800000000 1.0
C      1  0.5248890000000  0.4992310000000  0.5235720000000 1.0
C      1  0.5251770000000  0.4761350000000  0.4997530000000 1.0
C      1  0.5250220000000  0.4992200000000  0.4758100000000 1.0
C      1  0.5245930000000  0.5249050000000  0.4997660000000 1.0
C      1  0.4602310000000  0.5002590000000  0.5981740000000 1.0
C      1  0.4589280000000  0.5981910000000  0.5005550000000 1.0
C      1  0.4600830000000  0.5002780000000  0.4012070000000 1.0
C      1  0.4596520000000  0.4023340000000  0.5005430000000 1.0
C      1  0.5409260000000  0.4994450000000  0.4018090000000 1.0
C      1  0.5397710000000  0.5987930000000  0.4997220000000 1.0
C      1  0.5402020000000  0.4994570000000  0.5976660000000 1.0
C      1  0.5396230000000  0.4018260000000  0.4997410000000 1.0
C      1  0.4454060000000  0.5000880000000  0.4675460000000 1.0
C      1  0.4449800000000  0.4681010000000  0.5003000000000 1.0
C      1  0.4446790000000  0.5000950000000  0.5325870000000 1.0
C      1  0.4447450000000  0.5321850000000  0.5003070000000 1.0
C      1  0.5548730000000  0.4997000000000  0.5318990000000 1.0
C      1  0.5551740000000  0.4674130000000  0.4999050000000 1.0
C      1  0.5551090000000  0.4996930000000  0.4678150000000 1.0
C      1  0.5544470000000  0.5324540000000  0.4999120000000 1.0
C      1  0.4999270000000  0.5473410000000  0.4526590000000 1.0
C      1  0.5002670000000  0.4523420000000  0.4526950000000 1.0
C      1  0.4999270000000  0.4524000000000  0.5476000000000 1.0
C      1  0.4995870000000  0.5473050000000  0.5476580000000 1.0
END
