TITL C-2323491-8878-44 -1.81091424664615e-05 125000 -335.44284775369 0 0 60 (Ci) n - 1
REM
REM in /home/bkarasulu/CARBON/AIRSS/Generating-Clusters/LCBOP/Higher-Symm/Only-C60/SD-CG/FIRE-HFTN
REM
REM
REM
REM
REM
REM ./C.cell (50c204cfd26239f34c78669fe23a5462)
REM
REM compiler GCC version 9.2.1 20190827 (Red Hat 9.2.1-1)
REM options -cpp -mtune=generic -march=x86-64 -g -O0 -fpre-include=/usr/include/finclude/math-vector-fortran.h
REM seed 1160559269 1801319374 468736535 -461146703 -423272729 932338279 1956681887 -1326594427 -1453876081 -393396442 -1939386251 590898092 -334382014 -1123584278 86097720 -2139169904 228729208 156654964 1585944029 850557522 1224542176 -1815933635 717302949 282141723 1384600168 1593194063 -595148707 -1232471615 1641007443 -2038494045 -198009531 570228189 -494578849
REM
CELL 1.54180   50.00000   50.00000   50.00000   90.00000   90.00000   90.00000
LATT -1
SFAC C  
C      1  0.4851590000000  0.4621510000000  0.4438210000000 1.0
C      1  0.5149870000000  0.5374470000000  0.4438230000000 1.0
C      1  0.4850130000000  0.4625530000000  0.5561770000000 1.0
C      1  0.5148410000000  0.5378490000000  0.5561790000000 1.0
C      1  0.5149850000000  0.4623050000000  0.4435900000000 1.0
C      1  0.4851830000000  0.5376620000000  0.4440180000000 1.0
C      1  0.5148170000000  0.4623380000000  0.5559820000000 1.0
C      1  0.4850150000000  0.5376950000000  0.5564100000000 1.0
C      1  0.4769140000000  0.4529480000000  0.5277400000000 1.0
C      1  0.5227070000000  0.5478710000000  0.5276810000000 1.0
C      1  0.4772930000000  0.4521290000000  0.4723190000000 1.0
C      1  0.5230860000000  0.5470520000000  0.4722600000000 1.0
C      1  0.5226640000000  0.4522280000000  0.5274720000000 1.0
C      1  0.4768560000000  0.5472680000000  0.5279430000000 1.0
C      1  0.5231440000000  0.4527320000000  0.4720570000000 1.0
C      1  0.4773360000000  0.5477720000000  0.4725280000000 1.0
C      1  0.5487940000000  0.4425390000000  0.4847870000000 1.0
C      1  0.4512360000000  0.5574870000000  0.4845790000000 1.0
C      1  0.5487640000000  0.4425130000000  0.5154210000000 1.0
C      1  0.4512060000000  0.5574610000000  0.5152130000000 1.0
C      1  0.4513390000000  0.4424950000000  0.4846610000000 1.0
C      1  0.5487840000000  0.5572370000000  0.4847610000000 1.0
C      1  0.4512160000000  0.4427630000000  0.5152390000000 1.0
C      1  0.5486610000000  0.5575050000000  0.5153390000000 1.0
C      1  0.5568750000000  0.5129990000000  0.5241570000000 1.0
C      1  0.4423550000000  0.4871890000000  0.5245330000000 1.0
C      1  0.5576450000000  0.5128110000000  0.4754670000000 1.0
C      1  0.4431250000000  0.4870010000000  0.4758430000000 1.0
C      1  0.4426340000000  0.5130660000000  0.5247130000000 1.0
C      1  0.5571970000000  0.4872600000000  0.5238200000000 1.0
C      1  0.4428030000000  0.5127400000000  0.4761800000000 1.0
C      1  0.5573660000000  0.4869340000000  0.4752870000000 1.0
C      1  0.4733630000000  0.4864250000000  0.5675640000000 1.0
C      1  0.5267040000000  0.5137420000000  0.5670590000000 1.0
C      1  0.4732960000000  0.4862580000000  0.4329410000000 1.0
C      1  0.5266370000000  0.5135750000000  0.4324360000000 1.0
C      1  0.5267190000000  0.4863750000000  0.5669510000000 1.0
C      1  0.4733640000000  0.5137550000000  0.5676850000000 1.0
C      1  0.5266360000000  0.4862450000000  0.4323150000000 1.0
C      1  0.4732810000000  0.5136250000000  0.4330490000000 1.0
C      1  0.4801120000000  0.4800220000000  0.4865840000000 1.0
C      1  0.5201510000000  0.5184670000000  0.4865960000000 1.0
C      1  0.4798490000000  0.4815330000000  0.5134040000000 1.0
C      1  0.5198880000000  0.5199780000000  0.5134160000000 1.0
C      1  0.5197670000000  0.4814950000000  0.4864090000000 1.0
C      1  0.4793900000000  0.5201820000000  0.4866780000000 1.0
C      1  0.5206100000000  0.4798180000000  0.5133220000000 1.0
C      1  0.4802330000000  0.5185050000000  0.5135910000000 1.0
C      1  0.5683950000000  0.4629410000000  0.4802670000000 1.0
C      1  0.4316640000000  0.5368600000000  0.4801910000000 1.0
C      1  0.5683360000000  0.4631400000000  0.5198090000000 1.0
C      1  0.4316050000000  0.5370590000000  0.5197330000000 1.0
C      1  0.4318650000000  0.4629940000000  0.4800020000000 1.0
C      1  0.5684730000000  0.5369000000000  0.4804090000000 1.0
C      1  0.4315270000000  0.4631000000000  0.5195910000000 1.0
C      1  0.5681350000000  0.5370060000000  0.5199980000000 1.0
C      1  0.4998150000000  0.4379100000000  0.5144420000000 1.0
C      1  0.5001810000000  0.4377060000000  0.4853900000000 1.0
C      1  0.4998190000000  0.5622940000000  0.5146100000000 1.0
C      1  0.5001850000000  0.5620900000000  0.4855580000000 1.0
END
