TITL C-2323488-8613-379 0.000981475207509574 125000 -349.330530637113 0 0 60 (C2v) n - 1
REM
REM in /home/bkarasulu/CARBON/AIRSS/Generating-Clusters/LCBOP/Higher-Symm/Only-C60/SD-CG/FIRE-HFTN
REM
REM
REM
REM
REM
REM ./C.cell (50c204cfd26239f34c78669fe23a5462)
REM
REM compiler GCC version 9.2.1 20190827 (Red Hat 9.2.1-1)
REM options -cpp -mtune=generic -march=x86-64 -g -O0 -fpre-include=/usr/include/finclude/math-vector-fortran.h
REM seed -1402980457 -686943814 -327595260 -1453464119 -1404723094 772285702 1570457789 -66578790 1224458081 1865729065 -1010628223 -1535242026 -1791017639 211469939 -1766732975 -1820601523 1825999050 -696429198 -1881130940 6320823 1413059164 126711445 94960083 -1775207005 1553974950 -1103385882 -849406717 -937465866 -894385257 1357350885 351856430 -324003483 -245487027
REM
CELL 1.54180   50.00000   50.00000   50.00000   90.00000   90.00000   90.00000
LATT -1
SFAC C  
C      1  0.4494350000000  0.5564290000000  0.4989920000000 1.0
C      1  0.5505650000000  0.4435710000000  0.4989920000000 1.0
C      1  0.4494360000000  0.4435700000000  0.4989920000000 1.0
C      1  0.5505640000000  0.5564300000000  0.4989920000000 1.0
C      1  0.4593420000000  0.5588400000000  0.4700320000000 1.0
C      1  0.5406570000000  0.4411600000000  0.4700320000000 1.0
C      1  0.4593430000000  0.4411600000000  0.4700320000000 1.0
C      1  0.5406570000000  0.5588400000000  0.4700320000000 1.0
C      1  0.5138340000000  0.4266300000000  0.4682240000000 1.0
C      1  0.4861650000000  0.5733700000000  0.4682240000000 1.0
C      1  0.5138330000000  0.5733700000000  0.4682240000000 1.0
C      1  0.4861660000000  0.4266300000000  0.4682240000000 1.0
C      1  0.4866060000000  0.4152840000000  0.5245480000000 1.0
C      1  0.5133940000000  0.5847160000000  0.5245480000000 1.0
C      1  0.4866050000000  0.5847160000000  0.5245480000000 1.0
C      1  0.5133950000000  0.4152840000000  0.5245480000000 1.0
C      1  0.4855030000000  0.5258760000000  0.4540840000000 1.0
C      1  0.5144970000000  0.4741240000000  0.4540840000000 1.0
C      1  0.4855040000000  0.4741240000000  0.4540840000000 1.0
C      1  0.5144960000000  0.5258760000000  0.4540840000000 1.0
C      1  0.4592420000000  0.5375900000000  0.4481750000000 1.0
C      1  0.5407580000000  0.4624100000000  0.4481750000000 1.0
C      1  0.4592420000000  0.4624090000000  0.4481750000000 1.0
C      1  0.5407580000000  0.5375910000000  0.4481750000000 1.0
C      1  0.4628600000000  0.4241740000000  0.5157460000000 1.0
C      1  0.5371400000000  0.5758250000000  0.5157460000000 1.0
C      1  0.4628590000000  0.5758250000000  0.5157460000000 1.0
C      1  0.5371410000000  0.4241750000000  0.5157460000000 1.0
C      1  0.4362950000000  0.4861700000000  0.5352450000000 1.0
C      1  0.5637050000000  0.5138300000000  0.5352440000000 1.0
C      1  0.4362950000000  0.5138290000000  0.5352450000000 1.0
C      1  0.5637060000000  0.4861710000000  0.5352440000000 1.0
C      1  0.4427020000000  0.4859750000000  0.4407680000000 1.0
C      1  0.5572980000000  0.5140250000000  0.4407680000000 1.0
C      1  0.4427020000000  0.5140250000000  0.4407680000000 1.0
C      1  0.5572980000000  0.4859750000000  0.4407680000000 1.0
C      1  0.4613220000000  0.5140270000000  0.5667810000000 1.0
C      1  0.5386780000000  0.4859730000000  0.5667800000000 1.0
C      1  0.4613220000000  0.4859730000000  0.5667810000000 1.0
C      1  0.5386780000000  0.5140270000000  0.5667800000000 1.0
C      1  0.5631430000000  0.4653800000000  0.5153210000000 1.0
C      1  0.4368570000000  0.5346200000000  0.5153210000000 1.0
C      1  0.5631430000000  0.5346210000000  0.5153210000000 1.0
C      1  0.4368570000000  0.4653790000000  0.5153210000000 1.0
C      1  0.5216650000000  0.5145400000000  0.5264630000000 1.0
C      1  0.4783350000000  0.4854600000000  0.5264630000000 1.0
C      1  0.5216660000000  0.4854600000000  0.5264630000000 1.0
C      1  0.4783350000000  0.5145400000000  0.5264630000000 1.0
C      1  0.5142150000000  0.4731750000000  0.5027910000000 1.0
C      1  0.4857850000000  0.5268250000000  0.5027910000000 1.0
C      1  0.5142150000000  0.5268250000000  0.5027910000000 1.0
C      1  0.4857850000000  0.4731750000000  0.5027910000000 1.0
C      1  0.5154610000000  0.5249740000000  0.5533810000000 1.0
C      1  0.4845390000000  0.4750250000000  0.5533810000000 1.0
C      1  0.5154620000000  0.4750260000000  0.5533810000000 1.0
C      1  0.4845390000000  0.5249740000000  0.5533810000000 1.0
C      1  0.5221960000000  0.4862620000000  0.4794500000000 1.0
C      1  0.4778040000000  0.5137380000000  0.4794500000000 1.0
C      1  0.5221950000000  0.5137380000000  0.4794500000000 1.0
C      1  0.4778040000000  0.4862620000000  0.4794500000000 1.0
END
