TITL C-2323481-8605-23 11.1951864469853 125000 -361.53069743662 0 0 60 (C1) n - 1
REM
REM in /home/bkarasulu/CARBON/AIRSS/Generating-Clusters/LCBOP/Higher-Symm/Only-C60/SD-CG/FIRE-HFTN
REM
REM
REM
REM
REM
REM ./C.cell (50c204cfd26239f34c78669fe23a5462)
REM
REM compiler GCC version 9.2.1 20190827 (Red Hat 9.2.1-1)
REM options -cpp -mtune=generic -march=x86-64 -g -O0 -fpre-include=/usr/include/finclude/math-vector-fortran.h
REM seed 834425912 -1692730496 237766576 165562776 -1253743526 1699583581 -360561400 727879591 -299498117 -1221076773 -1911551974 -1672377512 -416783819 -1905965986 1451325921 67752056 1956705528 -2111309916 -963124226 609231127 1551975211 883023656 963495360 696435436 587012232 -1620481039 -1523900711 -1878190966 -542696181 1776359187 1638977806 -406174483 929836775
REM
CELL 1.54180   50.00000   50.00000   50.00000   90.00000   90.00000   90.00000
LATT -1
SFAC C  
C      1  0.5107740000000  0.5170730000000  0.5175970000000 1.0
C      1  0.4837450000000  0.5031900000000  0.5187040000000 1.0
C      1  0.4744760000000  0.4768380000000  0.4436360000000 1.0
C      1  0.5314120000000  0.5294040000000  0.4418820000000 1.0
C      1  0.4332550000000  0.4796800000000  0.5528210000000 1.0
C      1  0.5632410000000  0.4975580000000  0.5356800000000 1.0
C      1  0.5261360000000  0.5037200000000  0.4967660000000 1.0
C      1  0.4573930000000  0.5127960000000  0.5086290000000 1.0
C      1  0.5108010000000  0.5317940000000  0.5615690000000 1.0
C      1  0.4909690000000  0.4662950000000  0.5565340000000 1.0
C      1  0.4713690000000  0.4499300000000  0.5435920000000 1.0
C      1  0.5275530000000  0.5353730000000  0.5370580000000 1.0
C      1  0.4831310000000  0.5097220000000  0.4736600000000 1.0
C      1  0.4909050000000  0.4783720000000  0.5055070000000 1.0
C      1  0.4865540000000  0.4925960000000  0.5694080000000 1.0
C      1  0.5131130000000  0.5055900000000  0.5739230000000 1.0
C      1  0.4660310000000  0.5277490000000  0.4858460000000 1.0
C      1  0.5121200000000  0.4819650000000  0.4865420000000 1.0
C      1  0.3964460000000  0.5251210000000  0.4452530000000 1.0
C      1  0.5762300000000  0.4679220000000  0.4981310000000 1.0
C      1  0.4816960000000  0.5383980000000  0.5547640000000 1.0
C      1  0.5204830000000  0.4632250000000  0.5511280000000 1.0
C      1  0.4128080000000  0.5093220000000  0.4579700000000 1.0
C      1  0.5803070000000  0.4801630000000  0.4736370000000 1.0
C      1  0.5278670000000  0.5637450000000  0.5268340000000 1.0
C      1  0.4811040000000  0.4286420000000  0.5276200000000 1.0
C      1  0.5150770000000  0.5696500000000  0.5020610000000 1.0
C      1  0.4949420000000  0.4315560000000  0.5030400000000 1.0
C      1  0.4775380000000  0.5564580000000  0.5316560000000 1.0
C      1  0.5353920000000  0.4552400000000  0.5272250000000 1.0
C      1  0.4493380000000  0.4739080000000  0.4596040000000 1.0
C      1  0.5584710000000  0.5279810000000  0.4521820000000 1.0
C      1  0.5565420000000  0.5257790000000  0.5314250000000 1.0
C      1  0.4462700000000  0.4613600000000  0.5354130000000 1.0
C      1  0.5343490000000  0.4426530000000  0.4783550000000 1.0
C      1  0.4746420000000  0.5540500000000  0.4805090000000 1.0
C      1  0.4771470000000  0.5302810000000  0.4350000000000 1.0
C      1  0.5300370000000  0.4796220000000  0.4406310000000 1.0
C      1  0.4424130000000  0.4655950000000  0.5074530000000 1.0
C      1  0.5613470000000  0.5336850000000  0.5032700000000 1.0
C      1  0.4408020000000  0.5041690000000  0.5616930000000 1.0
C      1  0.5600970000000  0.4715550000000  0.5220250000000 1.0
C      1  0.5562770000000  0.5517480000000  0.4810530000000 1.0
C      1  0.4532050000000  0.4538380000000  0.4825250000000 1.0
C      1  0.5178400000000  0.5044400000000  0.4333660000000 1.0
C      1  0.4879970000000  0.5028170000000  0.4314620000000 1.0
C      1  0.4864960000000  0.5653880000000  0.5042820000000 1.0
C      1  0.5236610000000  0.4386450000000  0.5049890000000 1.0
C      1  0.5315740000000  0.4841430000000  0.5686760000000 1.0
C      1  0.4671600000000  0.5137810000000  0.5637080000000 1.0
C      1  0.4916870000000  0.4545470000000  0.4560720000000 1.0
C      1  0.5163080000000  0.5514690000000  0.4545970000000 1.0
C      1  0.4790290000000  0.4405600000000  0.4794810000000 1.0
C      1  0.5298730000000  0.5627010000000  0.4779010000000 1.0
C      1  0.4373010000000  0.4937420000000  0.5001270000000 1.0
C      1  0.5522170000000  0.5093900000000  0.4909340000000 1.0
C      1  0.5664830000000  0.5043160000000  0.4666400000000 1.0
C      1  0.4315550000000  0.4938920000000  0.4711610000000 1.0
C      1  0.4875360000000  0.5510560000000  0.4536280000000 1.0
C      1  0.5194800000000  0.4638000000000  0.4631650000000 1.0
END
