TITL C-2323485-8600-401 10.1260839088438 125000 -351.396433247879 0 0 60 (C2) n - 1
REM
REM in /home/bkarasulu/CARBON/AIRSS/Generating-Clusters/LCBOP/Higher-Symm/Only-C60/SD-CG/FIRE-HFTN
REM
REM
REM
REM
REM
REM ./C.cell (50c204cfd26239f34c78669fe23a5462)
REM
REM compiler GCC version 9.2.1 20190827 (Red Hat 9.2.1-1)
REM options -cpp -mtune=generic -march=x86-64 -g -O0 -fpre-include=/usr/include/finclude/math-vector-fortran.h
REM seed -2091508548 -298631571 88060947 -1270127980 1814377964 80206615 -1395944221 -1051616754 -1768021205 -608135940 -337398957 -1004487664 1168296890 -1234022258 913560712 1513461694 -190819312 -421765043 2118434108 1896806455 1068055246 -1754288305 -1798865609 -1579938663 787851024 -827745117 -164737422 1833900956 -247433554 559025875 -618744618 701397895 477333004
REM
CELL 1.54180   50.00000   50.00000   50.00000   90.00000   90.00000   90.00000
LATT -1
SFAC C  
C      1  0.5549700000000  0.3832850000000  0.4982870000000 1.0
C      1  0.5548820000000  0.6167560000000  0.5017690000000 1.0
C      1  0.5126680000000  0.5148680000000  0.5420720000000 1.0
C      1  0.5127220000000  0.4851410000000  0.4579410000000 1.0
C      1  0.5978600000000  0.5728240000000  0.5462980000000 1.0
C      1  0.5979610000000  0.4272480000000  0.4538010000000 1.0
C      1  0.5311760000000  0.6270180000000  0.4957270000000 1.0
C      1  0.5312660000000  0.3730050000000  0.5043040000000 1.0
C      1  0.4637210000000  0.5342840000000  0.4866230000000 1.0
C      1  0.4637330000000  0.4656890000000  0.5133400000000 1.0
C      1  0.5372170000000  0.4477910000000  0.5158540000000 1.0
C      1  0.5371950000000  0.5522370000000  0.4841830000000 1.0
C      1  0.5756110000000  0.5487130000000  0.5138920000000 1.0
C      1  0.5756620000000  0.4513440000000  0.4861840000000 1.0
C      1  0.4904120000000  0.4755680000000  0.4484410000000 1.0
C      1  0.4903420000000  0.5244250000000  0.5515500000000 1.0
C      1  0.4567010000000  0.3879780000000  0.4949930000000 1.0
C      1  0.4566130000000  0.6119900000000  0.5049630000000 1.0
C      1  0.4670130000000  0.5341160000000  0.5595500000000 1.0
C      1  0.4670980000000  0.4658600000000  0.4404170000000 1.0
C      1  0.5727860000000  0.4006630000000  0.4891250000000 1.0
C      1  0.5727010000000  0.5993910000000  0.5109480000000 1.0
C      1  0.5824410000000  0.4240000000000  0.4779430000000 1.0
C      1  0.5823630000000  0.5760620000000  0.5221400000000 1.0
C      1  0.4513810000000  0.5122750000000  0.4949390000000 1.0
C      1  0.4513850000000  0.4876890000000  0.5050120000000 1.0
C      1  0.4028820000000  0.4648820000000  0.4607410000000 1.0
C      1  0.4028160000000  0.5350460000000  0.5391610000000 1.0
C      1  0.5857050000000  0.5297070000000  0.5339720000000 1.0
C      1  0.5857610000000  0.4703560000000  0.4661150000000 1.0
C      1  0.5997500000000  0.4539590000000  0.4469120000000 1.0
C      1  0.5996630000000  0.5461150000000  0.5531890000000 1.0
C      1  0.4395500000000  0.4048240000000  0.4838040000000 1.0
C      1  0.4394640000000  0.5951310000000  0.5161340000000 1.0
C      1  0.4423720000000  0.4544230000000  0.4341260000000 1.0
C      1  0.4422710000000  0.5455340000000  0.5658150000000 1.0
C      1  0.4285980000000  0.5750110000000  0.5295330000000 1.0
C      1  0.4286840000000  0.4249360000000  0.4703950000000 1.0
C      1  0.5732160000000  0.4784520000000  0.5262850000000 1.0
C      1  0.5732270000000  0.5216020000000  0.4737890000000 1.0
C      1  0.5047990000000  0.6293050000000  0.4940920000000 1.0
C      1  0.5048890000000  0.3706990000000  0.5059130000000 1.0
C      1  0.4355380000000  0.4493560000000  0.4081240000000 1.0
C      1  0.4354080000000  0.5505960000000  0.5918110000000 1.0
C      1  0.3841630000000  0.5165270000000  0.5358410000000 1.0
C      1  0.3842110000000  0.4833870000000  0.4640420000000 1.0
C      1  0.4790280000000  0.6239080000000  0.4972910000000 1.0
C      1  0.4791170000000  0.3760770000000  0.5026880000000 1.0
C      1  0.5814890000000  0.4976560000000  0.4659390000000 1.0
C      1  0.5814530000000  0.5024040000000  0.5341430000000 1.0
C      1  0.4242970000000  0.5519780000000  0.5447380000000 1.0
C      1  0.4243810000000  0.4479660000000  0.4551850000000 1.0
C      1  0.5622360000000  0.4586860000000  0.5098010000000 1.0
C      1  0.5622150000000  0.5413600000000  0.4902620000000 1.0
C      1  0.4851160000000  0.5493420000000  0.4820630000000 1.0
C      1  0.4851340000000  0.4506470000000  0.5179220000000 1.0
C      1  0.3663630000000  0.5023210000000  0.4656450000000 1.0
C      1  0.3663310000000  0.4975790000000  0.5342200000000 1.0
C      1  0.5110080000000  0.4447500000000  0.5185660000000 1.0
C      1  0.5109860000000  0.5552590000000  0.4814450000000 1.0
END
