TITL C-2323489-8765-31 8.83735499302636e-07 125000 -353.127173521521 0 0 60 (C1) n - 1
REM
REM in /home/bkarasulu/CARBON/AIRSS/Generating-Clusters/LCBOP/Higher-Symm/Only-C60/SD-CG/FIRE-HFTN
REM
REM
REM
REM
REM
REM ./C.cell (50c204cfd26239f34c78669fe23a5462)
REM
REM compiler GCC version 9.2.1 20190827 (Red Hat 9.2.1-1)
REM options -cpp -mtune=generic -march=x86-64 -g -O0 -fpre-include=/usr/include/finclude/math-vector-fortran.h
REM seed -593831703 -382507317 -572362055 -224828885 1483473406 -1172062664 -232760872 -661366132 -1589785165 -1089207249 -1067584872 1676736499 -704337210 1154084094 -993139676 -563268164 -253099492 -230736224 1625309681 627224226 65777693 1599275035 -1399812093 -1183755155 -1169654495 203140571 -1556327010 609661229 1031081888 -1055702423 1241644388 1490186340 1443473079
REM
CELL 1.54180   50.00000   50.00000   50.00000   90.00000   90.00000   90.00000
LATT -1
SFAC C  
C      1  0.5521660000000  0.4536460000000  0.5063510000000 1.0
C      1  0.4529400000000  0.5432080000000  0.4895510000000 1.0
C      1  0.4816480000000  0.4831870000000  0.5058550000000 1.0
C      1  0.5217060000000  0.5089160000000  0.4954400000000 1.0
C      1  0.5718140000000  0.4949770000000  0.4780040000000 1.0
C      1  0.4275030000000  0.5057960000000  0.5140120000000 1.0
C      1  0.5130140000000  0.4215140000000  0.5012500000000 1.0
C      1  0.4898310000000  0.5727190000000  0.4983940000000 1.0
C      1  0.4835540000000  0.4840870000000  0.4773310000000 1.0
C      1  0.5178810000000  0.5087340000000  0.5249280000000 1.0
C      1  0.5283560000000  0.4849330000000  0.4807820000000 1.0
C      1  0.4738220000000  0.5085340000000  0.5177740000000 1.0
C      1  0.5345600000000  0.5600160000000  0.4903320000000 1.0
C      1  0.4679370000000  0.4364300000000  0.5129070000000 1.0
C      1  0.4188200000000  0.5009490000000  0.4863550000000 1.0
C      1  0.5806170000000  0.5032920000000  0.5044800000000 1.0
C      1  0.5060070000000  0.5540420000000  0.4843130000000 1.0
C      1  0.4973780000000  0.4376860000000  0.5183580000000 1.0
C      1  0.4604190000000  0.5629780000000  0.5319030000000 1.0
C      1  0.5397790000000  0.4316750000000  0.4656860000000 1.0
C      1  0.5076440000000  0.4698420000000  0.4683650000000 1.0
C      1  0.4936020000000  0.5240700000000  0.5314140000000 1.0
C      1  0.4323030000000  0.4977530000000  0.5422850000000 1.0
C      1  0.5621080000000  0.5068220000000  0.4531110000000 1.0
C      1  0.5372090000000  0.5139340000000  0.4387050000000 1.0
C      1  0.4565110000000  0.4948300000000  0.5598890000000 1.0
C      1  0.4614120000000  0.4486890000000  0.4571570000000 1.0
C      1  0.5374590000000  0.5494810000000  0.5469960000000 1.0
C      1  0.4815100000000  0.5112510000000  0.4696380000000 1.0
C      1  0.5195470000000  0.4795650000000  0.5371700000000 1.0
C      1  0.5537180000000  0.4734140000000  0.4847660000000 1.0
C      1  0.4507900000000  0.5216680000000  0.5090510000000 1.0
C      1  0.5407880000000  0.4295150000000  0.4955960000000 1.0
C      1  0.4617630000000  0.5667600000000  0.5023280000000 1.0
C      1  0.4962590000000  0.4234700000000  0.4763220000000 1.0
C      1  0.5041970000000  0.5718520000000  0.5245120000000 1.0
C      1  0.5014100000000  0.4658290000000  0.5176490000000 1.0
C      1  0.5031640000000  0.5261470000000  0.4811950000000 1.0
C      1  0.5697710000000  0.4926210000000  0.5278870000000 1.0
C      1  0.4321040000000  0.5105460000000  0.4632680000000 1.0
C      1  0.4869880000000  0.5520740000000  0.5384330000000 1.0
C      1  0.5128570000000  0.4423050000000  0.4605370000000 1.0
C      1  0.5219330000000  0.5381660000000  0.5673360000000 1.0
C      1  0.4733460000000  0.4636660000000  0.4366650000000 1.0
C      1  0.4716170000000  0.4699110000000  0.5554300000000 1.0
C      1  0.5287900000000  0.5418550000000  0.4427740000000 1.0
C      1  0.4981970000000  0.5270020000000  0.5767270000000 1.0
C      1  0.4937780000000  0.4798730000000  0.4266670000000 1.0
C      1  0.5005430000000  0.5486410000000  0.4362710000000 1.0
C      1  0.5018210000000  0.4729110000000  0.5621650000000 1.0
C      1  0.4732570000000  0.5149570000000  0.5735700000000 1.0
C      1  0.5168410000000  0.4953790000000  0.4279670000000 1.0
C      1  0.5449730000000  0.5564410000000  0.4634690000000 1.0
C      1  0.4584930000000  0.4501090000000  0.5371330000000 1.0
C      1  0.5493050000000  0.4715160000000  0.5302720000000 1.0
C      1  0.4578660000000  0.5289130000000  0.4622890000000 1.0
C      1  0.4730010000000  0.5461610000000  0.4412640000000 1.0
C      1  0.5122740000000  0.4679920000000  0.5867470000000 1.0
C      1  0.5326140000000  0.5631140000000  0.5212520000000 1.0
C      1  0.4684880000000  0.4336360000000  0.4817250000000 1.0
END
