TITL C-2323481-8605-114 2.90379799811312e-06 125000 -368.518290719595 0 0 60 (D2) n - 1
REM
REM in /home/bkarasulu/CARBON/AIRSS/Generating-Clusters/LCBOP/Higher-Symm/Only-C60/SD-CG/FIRE-HFTN
REM
REM
REM
REM
REM
REM ./C.cell (50c204cfd26239f34c78669fe23a5462)
REM
REM compiler GCC version 9.2.1 20190827 (Red Hat 9.2.1-1)
REM options -cpp -mtune=generic -march=x86-64 -g -O0 -fpre-include=/usr/include/finclude/math-vector-fortran.h
REM seed -54788726 -713110666 -421713911 895245868 -1204491031 1897260107 224174778 -360221962 -2051363209 180359293 1726679084 171511889 -98554377 -70167404 1840053448 2065379601 -1680293347 519453296 -1643360542 555351694 -1433093962 -1633838741 -538557949 1110104425 -57248109 -73243377 -657239212 154086564 89902343 -105134369 -220234972 -653503504 1344156617
REM
CELL 1.54180   50.00000   50.00000   50.00000   90.00000   90.00000   90.00000
LATT -1
SFAC C  
C      1  0.5281810000000  0.5021780000000  0.5773680000000 1.0
C      1  0.4718050000000  0.4978290000000  0.5773630000000 1.0
C      1  0.4718190000000  0.5021710000000  0.4226320000000 1.0
C      1  0.5281950000000  0.4978210000000  0.4226370000000 1.0
C      1  0.4679960000000  0.4766570000000  0.4313160000000 1.0
C      1  0.5320170000000  0.5233360000000  0.4313190000000 1.0
C      1  0.5320040000000  0.4766630000000  0.5686860000000 1.0
C      1  0.4679840000000  0.5233440000000  0.5686780000000 1.0
C      1  0.5025180000000  0.4362850000000  0.5146290000000 1.0
C      1  0.4974800000000  0.5637160000000  0.5146230000000 1.0
C      1  0.4974800000000  0.4362840000000  0.4853770000000 1.0
C      1  0.5025220000000  0.5637140000000  0.4853710000000 1.0
C      1  0.4716780000000  0.5569260000000  0.5253720000000 1.0
C      1  0.5283170000000  0.4430760000000  0.5253830000000 1.0
C      1  0.5283240000000  0.5569230000000  0.4746220000000 1.0
C      1  0.4716810000000  0.4430750000000  0.4746230000000 1.0
C      1  0.5315360000000  0.5440600000000  0.4489400000000 1.0
C      1  0.4684730000000  0.4559350000000  0.4489390000000 1.0
C      1  0.4684660000000  0.5440660000000  0.5510560000000 1.0
C      1  0.5315250000000  0.4559390000000  0.5510650000000 1.0
C      1  0.4574450000000  0.4933960000000  0.5295440000000 1.0
C      1  0.5425490000000  0.5066060000000  0.5295510000000 1.0
C      1  0.5425540000000  0.4933920000000  0.4704570000000 1.0
C      1  0.4574510000000  0.5066050000000  0.4704490000000 1.0
C      1  0.4779900000000  0.4714520000000  0.5746470000000 1.0
C      1  0.5219960000000  0.5285550000000  0.5746480000000 1.0
C      1  0.5220090000000  0.4714450000000  0.4253560000000 1.0
C      1  0.4780040000000  0.5285480000000  0.4253490000000 1.0
C      1  0.5192660000000  0.4381370000000  0.4668660000000 1.0
C      1  0.4807400000000  0.5618600000000  0.4668560000000 1.0
C      1  0.4807330000000  0.4381400000000  0.5331400000000 1.0
C      1  0.5192620000000  0.5618630000000  0.5331380000000 1.0
C      1  0.5444440000000  0.4450740000000  0.4785030000000 1.0
C      1  0.4555600000000  0.5549240000000  0.4784900000000 1.0
C      1  0.4555550000000  0.4450770000000  0.5215020000000 1.0
C      1  0.5444410000000  0.5549250000000  0.5215050000000 1.0
C      1  0.4387450000000  0.5065720000000  0.5126920000000 1.0
C      1  0.5612520000000  0.4934290000000  0.5127040000000 1.0
C      1  0.5612550000000  0.5065690000000  0.4873070000000 1.0
C      1  0.4387470000000  0.4934300000000  0.4872970000000 1.0
C      1  0.5681950000000  0.4663360000000  0.5144240000000 1.0
C      1  0.4318020000000  0.5336650000000  0.5144090000000 1.0
C      1  0.4318040000000  0.4663370000000  0.4855790000000 1.0
C      1  0.5681990000000  0.5336620000000  0.4855880000000 1.0
C      1  0.5534820000000  0.5321150000000  0.5360860000000 1.0
C      1  0.4465120000000  0.4678880000000  0.5360800000000 1.0
C      1  0.4465190000000  0.5321130000000  0.4639110000000 1.0
C      1  0.5534870000000  0.4678840000000  0.4639230000000 1.0
C      1  0.5136100000000  0.4981490000000  0.4724050000000 1.0
C      1  0.4863940000000  0.5018480000000  0.4724030000000 1.0
C      1  0.4863900000000  0.4981520000000  0.5275950000000 1.0
C      1  0.5136060000000  0.5018500000000  0.5275970000000 1.0
C      1  0.4831860000000  0.5509920000000  0.4400620000000 1.0
C      1  0.5168250000000  0.4490020000000  0.4400700000000 1.0
C      1  0.5168160000000  0.5509970000000  0.5599330000000 1.0
C      1  0.4831740000000  0.4490080000000  0.5599350000000 1.0
C      1  0.4503310000000  0.4462220000000  0.4933600000000 1.0
C      1  0.5496700000000  0.5537780000000  0.4933630000000 1.0
C      1  0.5496670000000  0.4462210000000  0.5066460000000 1.0
C      1  0.4503320000000  0.5537800000000  0.5066320000000 1.0
END
