TITL C-2323489-8765-380 -5.80676611201159e-07 125000 -336.981295950747 0 0 60 (Ci) n - 1
REM
REM in /home/bkarasulu/CARBON/AIRSS/Generating-Clusters/LCBOP/Higher-Symm/Only-C60/SD-CG/FIRE-HFTN
REM
REM
REM
REM
REM
REM ./C.cell (50c204cfd26239f34c78669fe23a5462)
REM
REM compiler GCC version 9.2.1 20190827 (Red Hat 9.2.1-1)
REM options -cpp -mtune=generic -march=x86-64 -g -O0 -fpre-include=/usr/include/finclude/math-vector-fortran.h
REM seed 169138640 -2016778384 -1962912151 1394350534 -1055370841 -1253798372 -1497426274 -416357413 -728362890 74512400 -1566259181 488163644 1645215906 1461969307 -1749967715 -472335922 -419908386 -286737207 2099031478 -1447835180 -20114756 1972720698 902981660 -147318449 932998224 -705699355 917300262 -1719393600 1923682875 -675077186 -2116883293 -935041165 242824567
REM
CELL 1.54180   50.00000   50.00000   50.00000   90.00000   90.00000   90.00000
LATT -1
SFAC C  
C      1  0.4805340000000  0.5668630000000  0.5297350000000 1.0
C      1  0.5682400000000  0.5267180000000  0.4696680000000 1.0
C      1  0.5299280000000  0.4765580000000  0.5700140000000 1.0
C      1  0.4695500000000  0.4283720000000  0.4770800000000 1.0
C      1  0.5266780000000  0.5642870000000  0.4742460000000 1.0
C      1  0.5227590000000  0.4324980000000  0.5152720000000 1.0
C      1  0.5618780000000  0.4734930000000  0.5275490000000 1.0
C      1  0.4307760000000  0.5177630000000  0.5222910000000 1.0
C      1  0.4273490000000  0.4798600000000  0.4718020000000 1.0
C      1  0.5153230000000  0.5227800000000  0.4279480000000 1.0
C      1  0.4867690000000  0.4677500000000  0.4221240000000 1.0
C      1  0.4688440000000  0.5275460000000  0.5613000000000 1.0
C      1  0.5304500000000  0.5716280000000  0.5229200000000 1.0
C      1  0.4381220000000  0.5265070000000  0.4724510000000 1.0
C      1  0.4846770000000  0.4772200000000  0.5720520000000 1.0
C      1  0.5194660000000  0.4331370000000  0.4702650000000 1.0
C      1  0.4772410000000  0.5675020000000  0.4847280000000 1.0
C      1  0.4733220000000  0.4357130000000  0.5257540000000 1.0
C      1  0.4317600000000  0.4732820000000  0.5303320000000 1.0
C      1  0.5726510000000  0.5201400000000  0.5281980000000 1.0
C      1  0.5692240000000  0.4822370000000  0.4777090000000 1.0
C      1  0.4700720000000  0.5234420000000  0.4299860000000 1.0
C      1  0.5311560000000  0.4724540000000  0.4387000000000 1.0
C      1  0.5132310000000  0.5322500000000  0.5778760000000 1.0
C      1  0.5411720000000  0.4907730000000  0.4879770000000 1.0
C      1  0.4901250000000  0.4878790000000  0.5436560000000 1.0
C      1  0.4897040000000  0.5393210000000  0.4899290000000 1.0
C      1  0.5495110000000  0.5304810000000  0.5154030000000 1.0
C      1  0.4564660000000  0.4774630000000  0.5124740000000 1.0
C      1  0.4665350000000  0.5197190000000  0.4825590000000 1.0
C      1  0.4777940000000  0.5066360000000  0.4551780000000 1.0
C      1  0.5215260000000  0.4840810000000  0.4653550000000 1.0
C      1  0.5253620000000  0.5231420000000  0.5537720000000 1.0
C      1  0.4826040000000  0.4652470000000  0.5240000000000 1.0
C      1  0.5256460000000  0.5421260000000  0.5301120000000 1.0
C      1  0.5051660000000  0.4603140000000  0.4779600000000 1.0
C      1  0.4504890000000  0.4695190000000  0.4845970000000 1.0
C      1  0.5222060000000  0.4933640000000  0.5448220000000 1.0
C      1  0.5173960000000  0.5347530000000  0.4760000000000 1.0
C      1  0.4588280000000  0.5092270000000  0.5120230000000 1.0
C      1  0.5334650000000  0.4802810000000  0.5174410000000 1.0
C      1  0.5435340000000  0.5225370000000  0.4875260000000 1.0
C      1  0.5098750000000  0.5121210000000  0.4563440000000 1.0
C      1  0.4746380000000  0.4768580000000  0.4462280000000 1.0
C      1  0.4784740000000  0.5159190000000  0.5346450000000 1.0
C      1  0.5102960000000  0.4606790000000  0.5100710000000 1.0
C      1  0.4948340000000  0.5396860000000  0.5220400000000 1.0
C      1  0.4743540000000  0.4578740000000  0.4698880000000 1.0
C      1  0.4211800000000  0.5058470000000  0.4668710000000 1.0
C      1  0.4718370000000  0.5808730000000  0.5079630000000 1.0
C      1  0.5281630000000  0.4191270000000  0.4920370000000 1.0
C      1  0.4174860000000  0.4965790000000  0.5337330000000 1.0
C      1  0.5788200000000  0.4941530000000  0.5331290000000 1.0
C      1  0.5825140000000  0.5034210000000  0.4662670000000 1.0
C      1  0.5078490000000  0.4696220000000  0.5847870000000 1.0
C      1  0.4921510000000  0.5303780000000  0.4152130000000 1.0
C      1  0.4680770000000  0.4206470000000  0.5034250000000 1.0
C      1  0.5136660000000  0.4652600000000  0.4190920000000 1.0
C      1  0.5319230000000  0.5793530000000  0.4965750000000 1.0
C      1  0.4863340000000  0.5347400000000  0.5809080000000 1.0
END
