TITL C-2323480-5884-14 145390.654836388 125000 -342.648034167947 0 0 60 (C1) n - 1
REM
REM in /home/bkarasulu/CARBON/AIRSS/Generating-Clusters/LCBOP/Higher-Symm/Only-C60/SD-CG/FIRE-HFTN
REM
REM
REM
REM
REM
REM ./C.cell (50c204cfd26239f34c78669fe23a5462)
REM
REM compiler GCC version 9.2.1 20190827 (Red Hat 9.2.1-1)
REM options -cpp -mtune=generic -march=x86-64 -g -O0 -fpre-include=/usr/include/finclude/math-vector-fortran.h
REM seed -1220141664 -420424024 -593240283 -1785904429 1606595791 -780204545 1852861391 1286738606 -1468090047 -256428702 -1554724380 1101005701 777736081 1851621862 -305939257 1114747471 762089445 -1679689677 26918113 -616852384 1952115225 1797046793 -1600823386 -1670676438 1912311903 -1535103349 591661364 1819961522 1950840688 1457247577 1653229671 894637884 -898631118
REM
CELL 1.54180   50.00000   50.00000   50.00000   90.00000   90.00000   90.00000
LATT -1
SFAC C  
C      1  0.5425360000000  0.4727120000000  0.5343680000000 1.0
C      1  0.5434610000000  0.5338160000000  0.5375570000000 1.0
C      1  0.4853820000000  0.5500970000000  0.5383590000000 1.0
C      1  0.4466500000000  0.4997810000000  0.5459700000000 1.0
C      1  0.4831330000000  0.4515260000000  0.5428950000000 1.0
C      1  0.5467370000000  0.4434820000000  0.4997390000000 1.0
C      1  0.5630670000000  0.5298560000000  0.4957310000000 1.0
C      1  0.4902190000000  0.5758870000000  0.5013300000000 1.0
C      1  0.4199540000000  0.5157560000000  0.5128130000000 1.0
C      1  0.4556620000000  0.4323790000000  0.5119430000000 1.0
C      1  0.5142140000000  0.4862110000000  0.4908340000000 1.0
C      1  0.5093310000000  0.5103720000000  0.4755470000000 1.0
C      1  0.4890720000000  0.5232470000000  0.4917580000000 1.0
C      1  0.4676850000000  0.5060090000000  0.4972940000000 1.0
C      1  0.4903230000000  0.4724040000000  0.4957250000000 1.0
C      1  0.5617520000000  0.4684860000000  0.5116820000000 1.0
C      1  0.5463340000000  0.5505080000000  0.5111380000000 1.0
C      1  0.4669050000000  0.5627490000000  0.5178090000000 1.0
C      1  0.4246390000000  0.4887170000000  0.5285120000000 1.0
C      1  0.4855260000000  0.4294980000000  0.5220810000000 1.0
C      1  0.4375680000000  0.4547600000000  0.5287230000000 1.0
C      1  0.5215650000000  0.4334000000000  0.5172070000000 1.0
C      1  0.5710030000000  0.5033360000000  0.5104960000000 1.0
C      1  0.5202980000000  0.5705000000000  0.5144770000000 1.0
C      1  0.4387040000000  0.5406440000000  0.5230900000000 1.0
C      1  0.5330900000000  0.5087450000000  0.4050620000000 1.0
C      1  0.5108540000000  0.5279440000000  0.4033250000000 1.0
C      1  0.4907550000000  0.5170170000000  0.3846990000000 1.0
C      1  0.5006040000000  0.4909740000000  0.3749800000000 1.0
C      1  0.5268160000000  0.4858860000000  0.3875000000000 1.0
C      1  0.5242280000000  0.4908720000000  0.5178110000000 1.0
C      1  0.5201290000000  0.5162120000000  0.5275080000000 1.0
C      1  0.4979020000000  0.5299370000000  0.5186420000000 1.0
C      1  0.4675150000000  0.4972930000000  0.5240970000000 1.0
C      1  0.4826560000000  0.4736680000000  0.5225790000000 1.0
C      1  0.4713930000000  0.5379000000000  0.5612260000000 1.0
C      1  0.4571240000000  0.4822590000000  0.5678750000000 1.0
C      1  0.5067030000000  0.4545570000000  0.5604770000000 1.0
C      1  0.5511840000000  0.4915890000000  0.5564350000000 1.0
C      1  0.5286610000000  0.5471250000000  0.5601550000000 1.0
C      1  0.5281380000000  0.4483520000000  0.5426690000000 1.0
C      1  0.5648120000000  0.5121910000000  0.5403380000000 1.0
C      1  0.5112310000000  0.5652420000000  0.5446140000000 1.0
C      1  0.4463460000000  0.5292220000000  0.5504810000000 1.0
C      1  0.4553760000000  0.4559520000000  0.5549250000000 1.0
C      1  0.5294400000000  0.4977850000000  0.5749210000000 1.0
C      1  0.5173840000000  0.5256230000000  0.5768350000000 1.0
C      1  0.4878210000000  0.5215900000000  0.5780450000000 1.0
C      1  0.4814780000000  0.4926540000000  0.5797590000000 1.0
C      1  0.5070020000000  0.4781460000000  0.5767500000000 1.0
C      1  0.4651790000000  0.5122080000000  0.4001100000000 1.0
C      1  0.4813890000000  0.4695460000000  0.3842230000000 1.0
C      1  0.5243490000000  0.4611340000000  0.4046980000000 1.0
C      1  0.5340420000000  0.4987720000000  0.4334060000000 1.0
C      1  0.4983800000000  0.5295500000000  0.4306120000000 1.0
C      1  0.4702490000000  0.5245420000000  0.4257700000000 1.0
C      1  0.4590320000000  0.4844240000000  0.3949490000000 1.0
C      1  0.4982830000000  0.4505450000000  0.3979980000000 1.0
C      1  0.5335480000000  0.4699190000000  0.4306670000000 1.0
C      1  0.5151850000000  0.5144900000000  0.4487830000000 1.0
END
