TITL C-2323490-8774-576 -5.76320635046174e-06 125000 -379.416310468497 0 0 60 (C1) n - 1
REM
REM in /home/bkarasulu/CARBON/AIRSS/Generating-Clusters/LCBOP/Higher-Symm/Only-C60/SD-CG/FIRE-HFTN
REM
REM
REM
REM
REM
REM ./C.cell (50c204cfd26239f34c78669fe23a5462)
REM
REM compiler GCC version 9.2.1 20190827 (Red Hat 9.2.1-1)
REM options -cpp -mtune=generic -march=x86-64 -g -O0 -fpre-include=/usr/include/finclude/math-vector-fortran.h
REM seed 948265952 665444207 -1745375792 1046004589 -1760237734 -173975006 -1098279494 -1112777391 -360396158 -956430123 304071030 -326646532 1960090032 885482053 677359034 -496277211 -1294868323 1730694108 -1885651720 -1357607547 -1991808228 969226353 1755991718 -1778228862 249101175 1654267655 1703505260 -1877650643 -718170295 -1040933871 349292448 -793152912 1532187075
REM
CELL 1.54180   50.00000   50.00000   50.00000   90.00000   90.00000   90.00000
LATT -1
SFAC C  
C      1  0.4675150000000  0.5098350000000  0.5656450000000 1.0
C      1  0.5234700000000  0.5714020000000  0.4687130000000 1.0
C      1  0.5620870000000  0.4760810000000  0.5038020000000 1.0
C      1  0.5187640000000  0.4863560000000  0.5637880000000 1.0
C      1  0.4720160000000  0.4743810000000  0.4359510000000 1.0
C      1  0.5168840000000  0.5114990000000  0.4433380000000 1.0
C      1  0.4855610000000  0.4353280000000  0.4826180000000 1.0
C      1  0.5203230000000  0.4328650000000  0.5265750000000 1.0
C      1  0.4949410000000  0.5643080000000  0.5193800000000 1.0
C      1  0.4380460000000  0.5296670000000  0.5128860000000 1.0
C      1  0.5615120000000  0.5317550000000  0.4980920000000 1.0
C      1  0.4294450000000  0.4829980000000  0.4816340000000 1.0
C      1  0.4671400000000  0.5026280000000  0.4374130000000 1.0
C      1  0.5229560000000  0.5720520000000  0.5196090000000 1.0
C      1  0.5653850000000  0.4880740000000  0.4783350000000 1.0
C      1  0.5206810000000  0.4846270000000  0.4339160000000 1.0
C      1  0.4704300000000  0.4821700000000  0.5665060000000 1.0
C      1  0.5156720000000  0.5146530000000  0.5662360000000 1.0
C      1  0.4926740000000  0.4328360000000  0.5304340000000 1.0
C      1  0.5138640000000  0.4356470000000  0.4771570000000 1.0
C      1  0.4963130000000  0.5670140000000  0.4696970000000 1.0
C      1  0.4388930000000  0.5316210000000  0.4852850000000 1.0
C      1  0.5580190000000  0.5210900000000  0.5247890000000 1.0
C      1  0.4368900000000  0.4804190000000  0.5093870000000 1.0
C      1  0.5395600000000  0.5287060000000  0.5690830000000 1.0
C      1  0.5407350000000  0.5650980000000  0.5401700000000 1.0
C      1  0.5511770000000  0.5395500000000  0.5460380000000 1.0
C      1  0.4597220000000  0.4604100000000  0.5494760000000 1.0
C      1  0.5400150000000  0.4649990000000  0.4440090000000 1.0
C      1  0.4403610000000  0.5099140000000  0.4431120000000 1.0
C      1  0.4810280000000  0.4401100000000  0.5546920000000 1.0
C      1  0.5230180000000  0.4443340000000  0.4521020000000 1.0
C      1  0.4806030000000  0.5457490000000  0.4569600000000 1.0
C      1  0.4548430000000  0.4607160000000  0.5202400000000 1.0
C      1  0.5642530000000  0.4721510000000  0.4553210000000 1.0
C      1  0.4575990000000  0.5473640000000  0.4729750000000 1.0
C      1  0.5390000000000  0.5254810000000  0.4557700000000 1.0
C      1  0.5401460000000  0.5534990000000  0.4556160000000 1.0
C      1  0.5592300000000  0.5586760000000  0.4912410000000 1.0
C      1  0.4551650000000  0.4549830000000  0.4488640000000 1.0
C      1  0.5391050000000  0.4764840000000  0.5463480000000 1.0
C      1  0.4445180000000  0.5221740000000  0.5562940000000 1.0
C      1  0.4683590000000  0.4331390000000  0.4606500000000 1.0
C      1  0.5381180000000  0.4489190000000  0.5409990000000 1.0
C      1  0.4815930000000  0.5467110000000  0.5379690000000 1.0
C      1  0.4317340000000  0.4624620000000  0.4626180000000 1.0
C      1  0.5545810000000  0.4493300000000  0.5039750000000 1.0
C      1  0.4522540000000  0.5418630000000  0.5355690000000 1.0
C      1  0.4313610000000  0.5038490000000  0.5241730000000 1.0
C      1  0.5314440000000  0.4343860000000  0.4993690000000 1.0
C      1  0.5545120000000  0.4921020000000  0.5269820000000 1.0
C      1  0.4305210000000  0.5092960000000  0.4698110000000 1.0
C      1  0.5563960000000  0.5144100000000  0.4759210000000 1.0
C      1  0.4825020000000  0.5700260000000  0.4945510000000 1.0
C      1  0.4889200000000  0.5212810000000  0.4442320000000 1.0
C      1  0.4983980000000  0.4679530000000  0.4305720000000 1.0
C      1  0.4966680000000  0.4714040000000  0.5720520000000 1.0
C      1  0.4908330000000  0.5260200000000  0.5579950000000 1.0
C      1  0.5365330000000  0.5748210000000  0.4945750000000 1.0
C      1  0.4757160000000  0.4423250000000  0.5084860000000 1.0
END
