TITL C-2323480-5884-376 0.11969224326019 125000 -351.682796411544 0 0 60 (Cs) n - 1
REM
REM in /home/bkarasulu/CARBON/AIRSS/Generating-Clusters/LCBOP/Higher-Symm/Only-C60/SD-CG/FIRE-HFTN
REM
REM
REM
REM
REM
REM ./C.cell (50c204cfd26239f34c78669fe23a5462)
REM
REM compiler GCC version 9.2.1 20190827 (Red Hat 9.2.1-1)
REM options -cpp -mtune=generic -march=x86-64 -g -O0 -fpre-include=/usr/include/finclude/math-vector-fortran.h
REM seed -662863230 1694828961 1785461773 987533569 -1265028561 2090743777 -1869382882 1896793461 106381239 894222186 812590584 1719782132 2098529167 -254705971 1153328392 -834018641 -630090314 840711475 1796203436 263335641 1323381054 1155758329 -573595485 -1331835636 -1224979984 1785655228 -474606741 1286311385 1574712896 247806328 703971802 1993152043 216336926
REM
CELL 1.54180   50.00000   50.00000   50.00000   90.00000   90.00000   90.00000
LATT -1
SFAC C  
C      1  0.4903050000000  0.5219990000000  0.5219570000000 1.0
C      1  0.5179260000000  0.5141970000000  0.5155070000000 1.0
C      1  0.5198320000000  0.5256160000000  0.4896680000000 1.0
C      1  0.4950620000000  0.5255090000000  0.4784630000000 1.0
C      1  0.4768490000000  0.5142230000000  0.4971220000000 1.0
C      1  0.4903090000000  0.4779960000000  0.5219530000000 1.0
C      1  0.5179290000000  0.4858040000000  0.5155050000000 1.0
C      1  0.5198360000000  0.4743890000000  0.4896640000000 1.0
C      1  0.4950670000000  0.4744930000000  0.4784590000000 1.0
C      1  0.4768520000000  0.4857730000000  0.4971200000000 1.0
C      1  0.4535510000000  0.5597620000000  0.5219830000000 1.0
C      1  0.5083010000000  0.5607940000000  0.5519100000000 1.0
C      1  0.5496990000000  0.5599250000000  0.5091890000000 1.0
C      1  0.5235220000000  0.5603210000000  0.4556200000000 1.0
C      1  0.4643960000000  0.5598480000000  0.4643590000000 1.0
C      1  0.4535620000000  0.4402260000000  0.5219750000000 1.0
C      1  0.5083130000000  0.4392010000000  0.5519020000000 1.0
C      1  0.5497100000000  0.4400830000000  0.5091810000000 1.0
C      1  0.5235330000000  0.4396900000000  0.4556120000000 1.0
C      1  0.4644070000000  0.4401500000000  0.4643510000000 1.0
C      1  0.5591300000000  0.4666920000000  0.5156980000000 1.0
C      1  0.5326200000000  0.4665870000000  0.4488500000000 1.0
C      1  0.4606770000000  0.4666640000000  0.4530090000000 1.0
C      1  0.4411780000000  0.4665660000000  0.5216750000000 1.0
C      1  0.5049490000000  0.4667130000000  0.5617510000000 1.0
C      1  0.5591240000000  0.5333170000000  0.5157030000000 1.0
C      1  0.5326130000000  0.5334260000000  0.4488550000000 1.0
C      1  0.4606700000000  0.5333360000000  0.4530140000000 1.0
C      1  0.4411720000000  0.5334200000000  0.5216800000000 1.0
C      1  0.5049430000000  0.5332790000000  0.5617550000000 1.0
C      1  0.5291030000000  0.4849910000000  0.5595170000000 1.0
C      1  0.5634460000000  0.4852150000000  0.4921490000000 1.0
C      1  0.5115560000000  0.4852490000000  0.4378560000000 1.0
C      1  0.4427780000000  0.4851190000000  0.4686840000000 1.0
C      1  0.4520020000000  0.4851240000000  0.5432260000000 1.0
C      1  0.5291000000000  0.5150060000000  0.5595190000000 1.0
C      1  0.5634430000000  0.5147980000000  0.4921510000000 1.0
C      1  0.5115530000000  0.5147620000000  0.4378580000000 1.0
C      1  0.4427750000000  0.5148740000000  0.4686860000000 1.0
C      1  0.4519990000000  0.5148610000000  0.5432280000000 1.0
C      1  0.5515810000000  0.5253990000000  0.5428800000000 1.0
C      1  0.5556380000000  0.5251570000000  0.4651490000000 1.0
C      1  0.4835250000000  0.5251140000000  0.4365620000000 1.0
C      1  0.4329210000000  0.5253930000000  0.4948300000000 1.0
C      1  0.4802710000000  0.5238300000000  0.5484470000000 1.0
C      1  0.5515860000000  0.4746050000000  0.5428760000000 1.0
C      1  0.5556420000000  0.4748580000000  0.4651450000000 1.0
C      1  0.4835300000000  0.4748920000000  0.4365580000000 1.0
C      1  0.4329260000000  0.4745960000000  0.4948260000000 1.0
C      1  0.4802760000000  0.4761590000000  0.5484440000000 1.0
C      1  0.4773150000000  0.5718630000000  0.5119880000000 1.0
C      1  0.5036140000000  0.5721980000000  0.5259380000000 1.0
C      1  0.5245690000000  0.5725810000000  0.5049460000000 1.0
C      1  0.5114580000000  0.5729470000000  0.4783130000000 1.0
C      1  0.4821680000000  0.5724320000000  0.4828000000000 1.0
C      1  0.4773280000000  0.4281310000000  0.5119780000000 1.0
C      1  0.5036280000000  0.4277990000000  0.5259280000000 1.0
C      1  0.5245830000000  0.4274230000000  0.5049350000000 1.0
C      1  0.5114720000000  0.4270580000000  0.4783020000000 1.0
C      1  0.4821810000000  0.4275670000000  0.4827900000000 1.0
END
