TITL C-2323487-9546-27 0.000405225265721799 125000 -365.342615200789 0 0 60 (C1) n - 1
REM
REM in /home/bkarasulu/CARBON/AIRSS/Generating-Clusters/LCBOP/Higher-Symm/Only-C60/SD-CG/FIRE-HFTN
REM
REM
REM
REM
REM
REM ./C.cell (50c204cfd26239f34c78669fe23a5462)
REM
REM compiler GCC version 9.2.1 20190827 (Red Hat 9.2.1-1)
REM options -cpp -mtune=generic -march=x86-64 -g -O0 -fpre-include=/usr/include/finclude/math-vector-fortran.h
REM seed 1376688485 -1876688972 -2012386694 1961152605 729847496 -786534940 -957190349 1331875228 721067596 1095108431 1186674071 179735414 1958902814 1209026476 -1773779725 -1362803310 -917530795 -1874847967 718832668 -1377527144 -1664614908 787452751 243962686 -751491053 -492356298 -1453010373 -1791038428 -1770295424 -774181594 -1025377929 1587507477 1580829461 1437290034
REM
CELL 1.54180   50.00000   50.00000   50.00000   90.00000   90.00000   90.00000
LATT -1
SFAC C  
C      1  0.5040530000000  0.5484640000000  0.4811390000000 1.0
C      1  0.4506990000000  0.4438130000000  0.4685020000000 1.0
C      1  0.5121960000000  0.4404070000000  0.4756300000000 1.0
C      1  0.5585850000000  0.4788590000000  0.5013710000000 1.0
C      1  0.4961160000000  0.4235850000000  0.4595540000000 1.0
C      1  0.5402010000000  0.4933310000000  0.4864750000000 1.0
C      1  0.5396990000000  0.4367320000000  0.4827510000000 1.0
C      1  0.4689870000000  0.4239780000000  0.4586620000000 1.0
C      1  0.5555560000000  0.5314870000000  0.4701810000000 1.0
C      1  0.4486960000000  0.5178860000000  0.4482770000000 1.0
C      1  0.4726480000000  0.5329320000000  0.5630510000000 1.0
C      1  0.5499350000000  0.4515290000000  0.5050760000000 1.0
C      1  0.5172930000000  0.4994490000000  0.4474010000000 1.0
C      1  0.5477480000000  0.5319180000000  0.5514860000000 1.0
C      1  0.4922930000000  0.5813270000000  0.5251960000000 1.0
C      1  0.4652960000000  0.5387880000000  0.5363520000000 1.0
C      1  0.4710710000000  0.5651090000000  0.5282500000000 1.0
C      1  0.4628140000000  0.4464950000000  0.5225790000000 1.0
C      1  0.4838420000000  0.5579690000000  0.4630430000000 1.0
C      1  0.3878570000000  0.4925690000000  0.5125850000000 1.0
C      1  0.5096310000000  0.4792510000000  0.5473170000000 1.0
C      1  0.5732710000000  0.4829700000000  0.5480440000000 1.0
C      1  0.4551370000000  0.4580940000000  0.5474710000000 1.0
C      1  0.5426210000000  0.5067520000000  0.4610120000000 1.0
C      1  0.5797360000000  0.5004480000000  0.5693020000000 1.0
C      1  0.4871570000000  0.4739190000000  0.4164810000000 1.0
C      1  0.5127560000000  0.4530250000000  0.5367750000000 1.0
C      1  0.5409650000000  0.4470680000000  0.5321760000000 1.0
C      1  0.5683540000000  0.5251610000000  0.5703960000000 1.0
C      1  0.5558920000000  0.4197820000000  0.4686710000000 1.0
C      1  0.4390780000000  0.4928960000000  0.4587870000000 1.0
C      1  0.4913970000000  0.4478150000000  0.5179290000000 1.0
C      1  0.4640390000000  0.5398870000000  0.4525370000000 1.0
C      1  0.5259240000000  0.5600520000000  0.4965290000000 1.0
C      1  0.4603780000000  0.4955100000000  0.5000390000000 1.0
C      1  0.4473990000000  0.4666640000000  0.4497880000000 1.0
C      1  0.4103630000000  0.4936260000000  0.4994940000000 1.0
C      1  0.5027390000000  0.5212420000000  0.4862280000000 1.0
C      1  0.5210880000000  0.5298130000000  0.5627180000000 1.0
C      1  0.5202510000000  0.5063810000000  0.5026810000000 1.0
C      1  0.4837340000000  0.6108610000000  0.4505980000000 1.0
C      1  0.5171520000000  0.5795110000000  0.5148350000000 1.0
C      1  0.4843270000000  0.6365400000000  0.4461380000000 1.0
C      1  0.4954430000000  0.5177100000000  0.5697210000000 1.0
C      1  0.4350130000000  0.4938700000000  0.4868910000000 1.0
C      1  0.5097820000000  0.4867840000000  0.4235490000000 1.0
C      1  0.5569060000000  0.5257680000000  0.5232590000000 1.0
C      1  0.5164020000000  0.4987050000000  0.5285490000000 1.0
C      1  0.4913840000000  0.4890640000000  0.5664080000000 1.0
C      1  0.4957120000000  0.5011770000000  0.4669560000000 1.0
C      1  0.4666050000000  0.4748250000000  0.5657630000000 1.0
C      1  0.4965030000000  0.4580940000000  0.4916710000000 1.0
C      1  0.5682320000000  0.4965470000000  0.5224950000000 1.0
C      1  0.5602810000000  0.4575840000000  0.5508120000000 1.0
C      1  0.4475720000000  0.4434510000000  0.4977390000000 1.0
C      1  0.4823760000000  0.4822710000000  0.4844850000000 1.0
C      1  0.5498380000000  0.5424320000000  0.4976310000000 1.0
C      1  0.4624480000000  0.5166240000000  0.5189120000000 1.0
C      1  0.4833170000000  0.5848390000000  0.4555440000000 1.0
C      1  0.4632110000000  0.4663590000000  0.4261060000000 1.0
END
