TITL C-2323484-8600-570 1.06570231621918e-05 125000 -359.460474751765 0 0 60 (D2) n - 1
REM
REM in /home/bkarasulu/CARBON/AIRSS/Generating-Clusters/LCBOP/Higher-Symm/Only-C60/SD-CG/FIRE-HFTN
REM
REM
REM
REM
REM
REM ./C.cell (50c204cfd26239f34c78669fe23a5462)
REM
REM compiler GCC version 9.2.1 20190827 (Red Hat 9.2.1-1)
REM options -cpp -mtune=generic -march=x86-64 -g -O0 -fpre-include=/usr/include/finclude/math-vector-fortran.h
REM seed 420173647 1996180927 -2136495163 9148751 -1938776151 1531165310 1493319064 -212476457 -251003383 811444135 -119549102 -1073192687 1884661222 -1437593051 -1069121415 -1868566804 473638326 -979943877 -1781530504 -1178214229 -686416572 -1785219352 -544689041 1288621590 -1901880914 -1628045081 -239078576 1149396842 852922179 -1411563040 1273873659 1816978912 1023596459
REM
CELL 1.54180   50.00000   50.00000   50.00000   90.00000   90.00000   90.00000
LATT -1
SFAC C  
C      1  0.4695160000000  0.5074760000000  0.5885190000000 1.0
C      1  0.5304750000000  0.4925300000000  0.5885230000000 1.0
C      1  0.5304840000000  0.5074710000000  0.4114810000000 1.0
C      1  0.4695250000000  0.4925240000000  0.4114780000000 1.0
C      1  0.4701970000000  0.4861280000000  0.5027410000000 1.0
C      1  0.5298020000000  0.5138720000000  0.5027430000000 1.0
C      1  0.5298030000000  0.4861280000000  0.4972600000000 1.0
C      1  0.4701980000000  0.5138710000000  0.4972560000000 1.0
C      1  0.5838980000000  0.5108270000000  0.5088730000000 1.0
C      1  0.4161010000000  0.4891740000000  0.5088650000000 1.0
C      1  0.4161010000000  0.5108250000000  0.4911260000000 1.0
C      1  0.5839000000000  0.4891740000000  0.4911360000000 1.0
C      1  0.5128010000000  0.4530250000000  0.4564120000000 1.0
C      1  0.4872030000000  0.5469720000000  0.4564070000000 1.0
C      1  0.4871990000000  0.4530280000000  0.5435910000000 1.0
C      1  0.5127960000000  0.5469750000000  0.5435900000000 1.0
C      1  0.5582750000000  0.5578080000000  0.5213430000000 1.0
C      1  0.4417220000000  0.4421940000000  0.5213400000000 1.0
C      1  0.4417240000000  0.5578060000000  0.4786540000000 1.0
C      1  0.5582780000000  0.4421930000000  0.4786630000000 1.0
C      1  0.5139570000000  0.4963040000000  0.4303600000000 1.0
C      1  0.4860500000000  0.5036920000000  0.4303590000000 1.0
C      1  0.4860430000000  0.4963080000000  0.5696400000000 1.0
C      1  0.5139500000000  0.5036960000000  0.5696410000000 1.0
C      1  0.5138130000000  0.5433200000000  0.4638570000000 1.0
C      1  0.4861910000000  0.4566780000000  0.4638580000000 1.0
C      1  0.4861870000000  0.5433220000000  0.5361400000000 1.0
C      1  0.5138100000000  0.4566800000000  0.5361440000000 1.0
C      1  0.4660390000000  0.5331400000000  0.5196710000000 1.0
C      1  0.5339590000000  0.4668610000000  0.5196770000000 1.0
C      1  0.5339610000000  0.5331390000000  0.4803270000000 1.0
C      1  0.4660410000000  0.4668590000000  0.4803250000000 1.0
C      1  0.5675660000000  0.5647520000000  0.4951040000000 1.0
C      1  0.4324340000000  0.4352480000000  0.4951010000000 1.0
C      1  0.4324330000000  0.5647510000000  0.5048920000000 1.0
C      1  0.5675670000000  0.4352490000000  0.5049030000000 1.0
C      1  0.4414890000000  0.4526150000000  0.4761850000000 1.0
C      1  0.5585130000000  0.5473840000000  0.4761890000000 1.0
C      1  0.5585110000000  0.4526170000000  0.5238180000000 1.0
C      1  0.4414860000000  0.5473840000000  0.5238080000000 1.0
C      1  0.5248170000000  0.4778240000000  0.4489360000000 1.0
C      1  0.4751880000000  0.5221730000000  0.4489320000000 1.0
C      1  0.4751830000000  0.4778270000000  0.5510650000000 1.0
C      1  0.5248110000000  0.5221760000000  0.5510660000000 1.0
C      1  0.5414300000000  0.5166030000000  0.5291660000000 1.0
C      1  0.4585670000000  0.4833990000000  0.5291630000000 1.0
C      1  0.4585700000000  0.5166010000000  0.4708330000000 1.0
C      1  0.5414340000000  0.4833980000000  0.4708380000000 1.0
C      1  0.5669860000000  0.5289210000000  0.5251270000000 1.0
C      1  0.4330110000000  0.4710810000000  0.5251210000000 1.0
C      1  0.4330130000000  0.5289180000000  0.4748720000000 1.0
C      1  0.5669890000000  0.4710800000000  0.4748800000000 1.0
C      1  0.4711860000000  0.5647080000000  0.4734870000000 1.0
C      1  0.5288170000000  0.4352900000000  0.4734950000000 1.0
C      1  0.5288130000000  0.5647100000000  0.5265080000000 1.0
C      1  0.4711840000000  0.4352920000000  0.5265100000000 1.0
C      1  0.5114620000000  0.5789350000000  0.5076180000000 1.0
C      1  0.4885370000000  0.4210660000000  0.5076220000000 1.0
C      1  0.4885370000000  0.5789340000000  0.4923770000000 1.0
C      1  0.5114640000000  0.4210650000000  0.4923830000000 1.0
END
