TITL C-2323478-8180-218 5.17077648105681e-06 125000 -359.579453823073 0 0 60 (C1) n - 1
REM
REM in /home/bkarasulu/CARBON/AIRSS/Generating-Clusters/LCBOP/Higher-Symm/Only-C60/SD-CG/FIRE-HFTN
REM
REM
REM
REM
REM
REM ./C.cell (50c204cfd26239f34c78669fe23a5462)
REM
REM compiler GCC version 9.2.1 20190827 (Red Hat 9.2.1-1)
REM options -cpp -mtune=generic -march=x86-64 -g -O0 -fpre-include=/usr/include/finclude/math-vector-fortran.h
REM seed -1698098872 -1252760070 337965608 1635482969 304390493 -1433781944 -1469451231 33658584 1141987096 -445579048 -129631590 218176355 489710413 1917992779 433833988 2129109652 31948505 -956678211 666252097 -1340504922 825518031 1549056318 1718328788 -1407770403 -2138095276 1680720402 1553516975 -946567943 1589966436 -1430512077 1650106474 -899166981 855072157
REM
CELL 1.54180   50.00000   50.00000   50.00000   90.00000   90.00000   90.00000
LATT -1
SFAC C  
C      1  0.4502300000000  0.5223010000000  0.5028850000000 1.0
C      1  0.4985870000000  0.4264330000000  0.4555320000000 1.0
C      1  0.5516030000000  0.5588340000000  0.4896190000000 1.0
C      1  0.5835790000000  0.5162800000000  0.4560380000000 1.0
C      1  0.4314010000000  0.5270630000000  0.4342090000000 1.0
C      1  0.4908740000000  0.5206440000000  0.5785100000000 1.0
C      1  0.5027580000000  0.4955370000000  0.5728090000000 1.0
C      1  0.4916590000000  0.5713460000000  0.4969030000000 1.0
C      1  0.4737110000000  0.5410200000000  0.5691890000000 1.0
C      1  0.4883470000000  0.4950140000000  0.5118380000000 1.0
C      1  0.5541240000000  0.5046780000000  0.5649330000000 1.0
C      1  0.4837270000000  0.4299330000000  0.5344340000000 1.0
C      1  0.4863540000000  0.4743060000000  0.5613450000000 1.0
C      1  0.5410600000000  0.5391270000000  0.4465320000000 1.0
C      1  0.5059250000000  0.5698250000000  0.4715550000000 1.0
C      1  0.4662070000000  0.5656830000000  0.4368720000000 1.0
C      1  0.5665690000000  0.5430420000000  0.5056400000000 1.0
C      1  0.4557480000000  0.4877970000000  0.4528690000000 1.0
C      1  0.4889870000000  0.5728180000000  0.4489720000000 1.0
C      1  0.5261020000000  0.4505860000000  0.5448940000000 1.0
C      1  0.4919290000000  0.4191830000000  0.4807220000000 1.0
C      1  0.4127880000000  0.4890960000000  0.5044830000000 1.0
C      1  0.4449080000000  0.5501320000000  0.4324900000000 1.0
C      1  0.4333700000000  0.5012770000000  0.4418750000000 1.0
C      1  0.4990010000000  0.5244540000000  0.4786300000000 1.0
C      1  0.5719750000000  0.5176190000000  0.5172720000000 1.0
C      1  0.5352600000000  0.4878250000000  0.4390230000000 1.0
C      1  0.5215570000000  0.5213760000000  0.4968870000000 1.0
C      1  0.4713260000000  0.5641090000000  0.5137570000000 1.0
C      1  0.4664360000000  0.4139740000000  0.5496440000000 1.0
C      1  0.4536280000000  0.5429080000000  0.5230110000000 1.0
C      1  0.5146760000000  0.5047410000000  0.5178590000000 1.0
C      1  0.5083730000000  0.4635310000000  0.4846290000000 1.0
C      1  0.5365580000000  0.4671650000000  0.4835580000000 1.0
C      1  0.4552030000000  0.5318760000000  0.5495380000000 1.0
C      1  0.5308440000000  0.4952210000000  0.5739650000000 1.0
C      1  0.5692930000000  0.5140610000000  0.5450600000000 1.0
C      1  0.4561900000000  0.4795400000000  0.4806680000000 1.0
C      1  0.5082550000000  0.4430800000000  0.4365540000000 1.0
C      1  0.5715330000000  0.4940570000000  0.5009770000000 1.0
C      1  0.4744370000000  0.5665990000000  0.5784670000000 1.0
C      1  0.5535090000000  0.4716290000000  0.5070100000000 1.0
C      1  0.4378330000000  0.4966700000000  0.4968990000000 1.0
C      1  0.4520440000000  0.3966360000000  0.5627450000000 1.0
C      1  0.5732710000000  0.4955520000000  0.4719020000000 1.0
C      1  0.4800790000000  0.4977920000000  0.4428750000000 1.0
C      1  0.5691640000000  0.5354680000000  0.4434510000000 1.0
C      1  0.4882100000000  0.4222040000000  0.5073000000000 1.0
C      1  0.4403730000000  0.4603460000000  0.5708790000000 1.0
C      1  0.4995220000000  0.5157450000000  0.4518740000000 1.0
C      1  0.5206520000000  0.4657280000000  0.4282720000000 1.0
C      1  0.4980180000000  0.4513590000000  0.5476780000000 1.0
C      1  0.5329230000000  0.5584310000000  0.4677690000000 1.0
C      1  0.4578640000000  0.4791100000000  0.5613460000000 1.0
C      1  0.4772620000000  0.5176600000000  0.4957280000000 1.0
C      1  0.5506920000000  0.4804150000000  0.4616450000000 1.0
C      1  0.5253220000000  0.5152650000000  0.4404700000000 1.0
C      1  0.4480680000000  0.5045450000000  0.5534620000000 1.0
C      1  0.5472820000000  0.4581320000000  0.5305170000000 1.0
C      1  0.4828200000000  0.4732250000000  0.4935290000000 1.0
END
