TITL C-2323489-8765-238 -138.528226848914 125000 -356.730000228258 0 0 60 (D5h) n - 1
REM
REM in /home/bkarasulu/CARBON/AIRSS/Generating-Clusters/LCBOP/Higher-Symm/Only-C60/SD-CG/FIRE-HFTN
REM
REM
REM
REM
REM
REM ./C.cell (50c204cfd26239f34c78669fe23a5462)
REM
REM compiler GCC version 9.2.1 20190827 (Red Hat 9.2.1-1)
REM options -cpp -mtune=generic -march=x86-64 -g -O0 -fpre-include=/usr/include/finclude/math-vector-fortran.h
REM seed 762946409 -1578023757 271655998 1082073509 400567029 2069066754 1999209318 -1134088682 727664580 247070540 -1593010848 -2143545638 417704106 81398521 -708413733 638268350 -590021276 -1126223015 902956610 -1298759667 -2127307648 520266062 1016985163 386497443 49460956 -876918332 1464906303 -273566697 1796735206 1406305158 -698278408 400106840 1958122463
REM
CELL 1.54180   50.00000   50.00000   50.00000   90.00000   90.00000   90.00000
LATT -1
SFAC C  
C      1  0.5495490000000  0.5292900000000  0.4549990000000 1.0
C      1  0.4725130000000  0.5292900000000  0.4389700000000 1.0
C      1  0.4334630000000  0.5292900000000  0.5072820000000 1.0
C      1  0.4863650000000  0.5292900000000  0.5655320000000 1.0
C      1  0.5581100000000  0.5292900000000  0.5332180000000 1.0
C      1  0.5495500000000  0.4707100000000  0.4549990000000 1.0
C      1  0.4725130000000  0.4707100000000  0.4389690000000 1.0
C      1  0.4334630000000  0.4707100000000  0.5072820000000 1.0
C      1  0.4863650000000  0.4707100000000  0.5655310000000 1.0
C      1  0.5581100000000  0.4707100000000  0.5332180000000 1.0
C      1  0.4951730000000  0.4750220000000  0.5231970000000 1.0
C      1  0.5205700000000  0.4750220000000  0.5117580000000 1.0
C      1  0.5175400000000  0.4750220000000  0.4840700000000 1.0
C      1  0.4902700000000  0.4750210000000  0.4783960000000 1.0
C      1  0.4764470000000  0.4750220000000  0.5025770000000 1.0
C      1  0.4951730000000  0.5249790000000  0.5231980000000 1.0
C      1  0.5205700000000  0.5249790000000  0.5117590000000 1.0
C      1  0.5175400000000  0.5249780000000  0.4840710000000 1.0
C      1  0.4902700000000  0.5249780000000  0.4783970000000 1.0
C      1  0.4764470000000  0.5249780000000  0.5025780000000 1.0
C      1  0.4910740000000  0.4539370000000  0.5428970000000 1.0
C      1  0.5380390000000  0.4539370000000  0.5217450000000 1.0
C      1  0.5324360000000  0.4539370000000  0.4705420000000 1.0
C      1  0.4820070000000  0.4539370000000  0.4600480000000 1.0
C      1  0.4564440000000  0.4539370000000  0.5047670000000 1.0
C      1  0.4910740000000  0.5460630000000  0.5428980000000 1.0
C      1  0.5380390000000  0.5460630000000  0.5217450000000 1.0
C      1  0.5324350000000  0.5460630000000  0.4705420000000 1.0
C      1  0.4820070000000  0.5460630000000  0.4600500000000 1.0
C      1  0.4564440000000  0.5460630000000  0.5047670000000 1.0
C      1  0.5226060000000  0.4300930000000  0.5129220000000 1.0
C      1  0.5192760000000  0.4300930000000  0.4824930000000 1.0
C      1  0.4893070000000  0.4300930000000  0.4762570000000 1.0
C      1  0.4741150000000  0.4300930000000  0.5028330000000 1.0
C      1  0.4946960000000  0.4300930000000  0.5254930000000 1.0
C      1  0.5226060000000  0.5699070000000  0.5129230000000 1.0
C      1  0.5192760000000  0.5699070000000  0.4824940000000 1.0
C      1  0.4893070000000  0.5699070000000  0.4762580000000 1.0
C      1  0.4741150000000  0.5699070000000  0.5028330000000 1.0
C      1  0.4946950000000  0.5699070000000  0.5254940000000 1.0
C      1  0.4615060000000  0.5138760000000  0.5612510000000 1.0
C      1  0.5463570000000  0.5138760000000  0.5555380000000 1.0
C      1  0.5671440000000  0.5138760000000  0.4730740000000 1.0
C      1  0.4951400000000  0.5138760000000  0.4278210000000 1.0
C      1  0.4298520000000  0.5138760000000  0.4823170000000 1.0
C      1  0.4615060000000  0.4861240000000  0.5612500000000 1.0
C      1  0.5463570000000  0.4861240000000  0.5555370000000 1.0
C      1  0.5671440000000  0.4861240000000  0.4730740000000 1.0
C      1  0.4951400000000  0.4861240000000  0.4278210000000 1.0
C      1  0.4298520000000  0.4861240000000  0.4823170000000 1.0
C      1  0.5713790000000  0.4861240000000  0.5117650000000 1.0
C      1  0.5332470000000  0.4861240000000  0.4357500000000 1.0
C      1  0.4491690000000  0.4861240000000  0.4485250000000 1.0
C      1  0.4353380000000  0.4861240000000  0.5324370000000 1.0
C      1  0.5108680000000  0.4861240000000  0.5715210000000 1.0
C      1  0.5713790000000  0.5138760000000  0.5117660000000 1.0
C      1  0.5332470000000  0.5138760000000  0.4357500000000 1.0
C      1  0.4491690000000  0.5138760000000  0.4485260000000 1.0
C      1  0.4353370000000  0.5138760000000  0.5324370000000 1.0
C      1  0.5108680000000  0.5138760000000  0.5715220000000 1.0
END
