TITL C-2323479-8056-68 2.94246254703014e-05 125000 -356.420485067376 0 0 60 (Ci) n - 1
REM
REM in /home/bkarasulu/CARBON/AIRSS/Generating-Clusters/LCBOP/Higher-Symm/Only-C60/SD-CG/FIRE-HFTN
REM
REM
REM
REM
REM
REM ./C.cell (50c204cfd26239f34c78669fe23a5462)
REM
REM compiler GCC version 9.2.1 20190827 (Red Hat 9.2.1-1)
REM options -cpp -mtune=generic -march=x86-64 -g -O0 -fpre-include=/usr/include/finclude/math-vector-fortran.h
REM seed 2150657 -1515553545 1293151237 1632156077 -938912472 -1767528885 -7824518 1344344724 -1239375040 194972223 -2039898386 -70905721 461015106 -58061984 -1287220316 -1967061305 1048877326 1026485937 -93297375 700998558 2141140153 1343807847 -298628378 -1343142738 -1312641346 -1485301891 -239401173 -270845278 1238528753 591958997 1357715034 474075405 49725152
REM
CELL 1.54180   50.00000   50.00000   50.00000   90.00000   90.00000   90.00000
LATT -1
SFAC C  
C      1  0.4885500000000  0.5240560000000  0.4903940000000 1.0
C      1  0.5114500000000  0.4759440000000  0.5096060000000 1.0
C      1  0.4778180000000  0.5201110000000  0.5641090000000 1.0
C      1  0.5221820000000  0.4798890000000  0.4358910000000 1.0
C      1  0.5235230000000  0.4359370000000  0.6405140000000 1.0
C      1  0.4764770000000  0.5640630000000  0.3594860000000 1.0
C      1  0.5016470000000  0.4831240000000  0.4571390000000 1.0
C      1  0.4983530000000  0.5168760000000  0.5428610000000 1.0
C      1  0.4400730000000  0.5023030000000  0.4575000000000 1.0
C      1  0.5599270000000  0.4976970000000  0.5425000000000 1.0
C      1  0.5510600000000  0.4520280000000  0.4873660000000 1.0
C      1  0.4489400000000  0.5479720000000  0.5126340000000 1.0
C      1  0.4989170000000  0.4485170000000  0.6377510000000 1.0
C      1  0.5010830000000  0.5514830000000  0.3622490000000 1.0
C      1  0.5190470000000  0.4596980000000  0.5294520000000 1.0
C      1  0.4809530000000  0.5403020000000  0.4705480000000 1.0
C      1  0.4562040000000  0.4615530000000  0.4801100000000 1.0
C      1  0.5437960000000  0.5384470000000  0.5198900000000 1.0
C      1  0.4499860000000  0.5220990000000  0.4382150000000 1.0
C      1  0.5500140000000  0.4779010000000  0.5617850000000 1.0
C      1  0.4902750000000  0.5079300000000  0.5878860000000 1.0
C      1  0.5097250000000  0.4920700000000  0.4121140000000 1.0
C      1  0.5468710000000  0.5237320000000  0.5450750000000 1.0
C      1  0.4531290000000  0.4762680000000  0.4549250000000 1.0
C      1  0.5004700000000  0.4691960000000  0.6175110000000 1.0
C      1  0.4995300000000  0.5308040000000  0.3824890000000 1.0
C      1  0.5290180000000  0.4682630000000  0.6074770000000 1.0
C      1  0.4709820000000  0.5317370000000  0.3925230000000 1.0
C      1  0.4675130000000  0.5576920000000  0.5323930000000 1.0
C      1  0.5324870000000  0.4423080000000  0.4676070000000 1.0
C      1  0.5622250000000  0.5269240000000  0.4745590000000 1.0
C      1  0.4377750000000  0.4730760000000  0.5254410000000 1.0
C      1  0.4949460000000  0.5678590000000  0.5256540000000 1.0
C      1  0.5050540000000  0.4321410000000  0.4743460000000 1.0
C      1  0.5366500000000  0.4857460000000  0.5867160000000 1.0
C      1  0.4633500000000  0.5142540000000  0.4132840000000 1.0
C      1  0.5417350000000  0.4472530000000  0.6228620000000 1.0
C      1  0.4582650000000  0.5527470000000  0.3771380000000 1.0
C      1  0.4643070000000  0.5444100000000  0.5580040000000 1.0
C      1  0.5356930000000  0.4555900000000  0.4419960000000 1.0
C      1  0.4829750000000  0.4884970000000  0.6068480000000 1.0
C      1  0.5170250000000  0.5115030000000  0.3931520000000 1.0
C      1  0.5226850000000  0.5210350000000  0.5585410000000 1.0
C      1  0.4773150000000  0.4789650000000  0.4414590000000 1.0
C      1  0.5698490000000  0.4700090000000  0.4995710000000 1.0
C      1  0.4301510000000  0.5299910000000  0.5004290000000 1.0
C      1  0.4362130000000  0.5053470000000  0.4867900000000 1.0
C      1  0.5637870000000  0.4946530000000  0.5132100000000 1.0
C      1  0.4628500000000  0.5437830000000  0.4510910000000 1.0
C      1  0.5371500000000  0.4562170000000  0.5489090000000 1.0
C      1  0.5195350000000  0.5085250000000  0.5835790000000 1.0
C      1  0.4804650000000  0.4914750000000  0.4164210000000 1.0
C      1  0.4035530000000  0.5370470000000  0.5019460000000 1.0
C      1  0.5964470000000  0.4629530000000  0.4980540000000 1.0
C      1  0.5003830000000  0.5247210000000  0.5155270000000 1.0
C      1  0.4996170000000  0.4752790000000  0.4844730000000 1.0
C      1  0.4429200000000  0.4794990000000  0.4994620000000 1.0
C      1  0.5570800000000  0.5205010000000  0.5005380000000 1.0
C      1  0.5166110000000  0.5496580000000  0.5175720000000 1.0
C      1  0.4833890000000  0.4503420000000  0.4824280000000 1.0
END
