TITL C-2323491-8878-157 7.73638552729827e-05 125000 -365.241748796221 0 0 60 (C2) n - 1
REM
REM in /home/bkarasulu/CARBON/AIRSS/Generating-Clusters/LCBOP/Higher-Symm/Only-C60/SD-CG/FIRE-HFTN
REM
REM
REM
REM
REM
REM ./C.cell (50c204cfd26239f34c78669fe23a5462)
REM
REM compiler GCC version 9.2.1 20190827 (Red Hat 9.2.1-1)
REM options -cpp -mtune=generic -march=x86-64 -g -O0 -fpre-include=/usr/include/finclude/math-vector-fortran.h
REM seed -790717804 -638520643 -47371370 -1909520480 1918515830 -44848626 2072449703 1859754293 1514677165 1151038510 -67116867 1872165850 22806752 1749096324 170001754 1318130019 -191814723 869760797 1097620463 -1786784001 -2006829650 663191925 1091722668 -1270170490 2025023781 -880000032 412533549 -990291077 135816980 1541949298 -1290741625 -1783545445 -644494973
REM
CELL 1.54180   50.00000   50.00000   50.00000   90.00000   90.00000   90.00000
LATT -1
SFAC C  
C      1  0.4286670000000  0.5421260000000  0.4452020000000 1.0
C      1  0.5112880000000  0.4354270000000  0.4550150000000 1.0
C      1  0.4366980000000  0.4392830000000  0.5055720000000 1.0
C      1  0.5312590000000  0.5289940000000  0.5738350000000 1.0
C      1  0.5713810000000  0.4577370000000  0.4453700000000 1.0
C      1  0.4686760000000  0.4711900000000  0.5738800000000 1.0
C      1  0.4974580000000  0.4204550000000  0.5322280000000 1.0
C      1  0.4887510000000  0.5644600000000  0.4548440000000 1.0
C      1  0.5025140000000  0.5796250000000  0.5320310000000 1.0
C      1  0.5781270000000  0.4352040000000  0.5136700000000 1.0
C      1  0.5632980000000  0.5607310000000  0.5054750000000 1.0
C      1  0.4218610000000  0.5648300000000  0.5134390000000 1.0
C      1  0.5072690000000  0.4877200000000  0.5301000000000 1.0
C      1  0.4689410000000  0.5303640000000  0.4938760000000 1.0
C      1  0.5488010000000  0.4924540000000  0.4936410000000 1.0
C      1  0.4869190000000  0.5021860000000  0.4182490000000 1.0
C      1  0.4927050000000  0.5123550000000  0.5300630000000 1.0
C      1  0.5131520000000  0.4976100000000  0.4182660000000 1.0
C      1  0.4950700000000  0.5236550000000  0.5034570000000 1.0
C      1  0.5310650000000  0.4696210000000  0.4939790000000 1.0
C      1  0.5049270000000  0.4763540000000  0.5035200000000 1.0
C      1  0.4338410000000  0.5085920000000  0.5160480000000 1.0
C      1  0.4512050000000  0.5075300000000  0.4935790000000 1.0
C      1  0.5661440000000  0.4914480000000  0.5161280000000 1.0
C      1  0.5687930000000  0.4489430000000  0.5353630000000 1.0
C      1  0.4677760000000  0.4975130000000  0.5690910000000 1.0
C      1  0.5077880000000  0.5476420000000  0.4638210000000 1.0
C      1  0.4386530000000  0.4605310000000  0.4893310000000 1.0
C      1  0.4311760000000  0.5511460000000  0.5351740000000 1.0
C      1  0.5613570000000  0.5394420000000  0.4892860000000 1.0
C      1  0.5599490000000  0.4772350000000  0.4310100000000 1.0
C      1  0.5321630000000  0.5026600000000  0.5691130000000 1.0
C      1  0.4401110000000  0.5225920000000  0.4309010000000 1.0
C      1  0.4811180000000  0.5753800000000  0.5165980000000 1.0
C      1  0.4922440000000  0.4522670000000  0.4639340000000 1.0
C      1  0.5188670000000  0.4246610000000  0.5168030000000 1.0
C      1  0.4615830000000  0.5094460000000  0.4221000000000 1.0
C      1  0.4846810000000  0.4711310000000  0.4839970000000 1.0
C      1  0.4580120000000  0.4808760000000  0.4856180000000 1.0
C      1  0.5309400000000  0.4843730000000  0.5474920000000 1.0
C      1  0.5384850000000  0.4903590000000  0.4221580000000 1.0
C      1  0.4690180000000  0.5157460000000  0.5474250000000 1.0
C      1  0.5327740000000  0.4420730000000  0.5017250000000 1.0
C      1  0.5153330000000  0.5288280000000  0.4839380000000 1.0
C      1  0.4672240000000  0.5579320000000  0.5015510000000 1.0
C      1  0.5567470000000  0.4747150000000  0.5373740000000 1.0
C      1  0.5420010000000  0.5190880000000  0.4856070000000 1.0
C      1  0.4432200000000  0.5253780000000  0.5372610000000 1.0
C      1  0.5288300000000  0.5537250000000  0.5640560000000 1.0
C      1  0.5273840000000  0.5708840000000  0.5418190000000 1.0
C      1  0.5500160000000  0.5729430000000  0.5252070000000 1.0
C      1  0.4366790000000  0.5635610000000  0.4617590000000 1.0
C      1  0.4711130000000  0.4464350000000  0.5641650000000 1.0
C      1  0.5633540000000  0.4363440000000  0.4619740000000 1.0
C      1  0.4630870000000  0.5727660000000  0.4559300000000 1.0
C      1  0.4725790000000  0.4292210000000  0.5419720000000 1.0
C      1  0.5369510000000  0.4271240000000  0.4561440000000 1.0
C      1  0.4236160000000  0.5686920000000  0.4866240000000 1.0
C      1  0.4499620000000  0.4271200000000  0.5253450000000 1.0
C      1  0.5763960000000  0.4312750000000  0.4868630000000 1.0
END
