TITL C-2323491-8878-162 2.26925632210018 125000 -354.59955853474 0 0 60 (C3) n - 1
REM
REM in /home/bkarasulu/CARBON/AIRSS/Generating-Clusters/LCBOP/Higher-Symm/Only-C60/SD-CG/FIRE-HFTN
REM
REM
REM
REM
REM
REM ./C.cell (50c204cfd26239f34c78669fe23a5462)
REM
REM compiler GCC version 9.2.1 20190827 (Red Hat 9.2.1-1)
REM options -cpp -mtune=generic -march=x86-64 -g -O0 -fpre-include=/usr/include/finclude/math-vector-fortran.h
REM seed 1614748692 1370656141 -565843679 -1504789402 -69056111 -1766048236 -1729329321 778511067 -1899127309 -162919298 -101202844 1317600604 1163003698 -1818577843 1956935201 -1401260190 43805409 -24586414 -1138367511 2089195249 114302597 458604947 1949294690 -2121971969 334423936 1576792198 -1915802589 -2048080251 1802926794 -810225984 1027223027 -962503995 -992396945
REM
CELL 1.54180   50.00000   50.00000   50.00000   90.00000   90.00000   90.00000
LATT -1
SFAC C  
C      1  0.5701600000000  0.5330540000000  0.5852030000000 1.0
C      1  0.3912110000000  0.5332230000000  0.5183240000000 1.0
C      1  0.5386050000000  0.5336450000000  0.3967900000000 1.0
C      1  0.5061760000000  0.4977230000000  0.4142620000000 1.0
C      1  0.5711570000000  0.4973130000000  0.5482050000000 1.0
C      1  0.4226680000000  0.4973110000000  0.5375090000000 1.0
C      1  0.5712700000000  0.4486340000000  0.5481520000000 1.0
C      1  0.4225420000000  0.4486320000000  0.5373900000000 1.0
C      1  0.5062260000000  0.4490440000000  0.4139690000000 1.0
C      1  0.5637500000000  0.5103150000000  0.5722150000000 1.0
C      1  0.4056100000000  0.5104450000000  0.5191540000000 1.0
C      1  0.5306320000000  0.5108260000000  0.4087310000000 1.0
C      1  0.3796300000000  0.5425790000000  0.6077530000000 1.0
C      1  0.4669700000000  0.5434430000000  0.3420940000000 1.0
C      1  0.6533690000000  0.5428260000000  0.5505620000000 1.0
C      1  0.5823290000000  0.4257450000000  0.5555850000000 1.0
C      1  0.4105200000000  0.4257430000000  0.5431370000000 1.0
C      1  0.5072050000000  0.4262190000000  0.4005710000000 1.0
C      1  0.5886610000000  0.5532060000000  0.5782890000000 1.0
C      1  0.3879970000000  0.5532860000000  0.5379030000000 1.0
C      1  0.5233040000000  0.5538060000000  0.3843170000000 1.0
C      1  0.5941520000000  0.5544890000000  0.5503550000000 1.0
C      1  0.4094460000000  0.5544240000000  0.5566320000000 1.0
C      1  0.4963630000000  0.5549630000000  0.3935340000000 1.0
C      1  0.3866520000000  0.3803080000000  0.5545470000000 1.0
C      1  0.5091490000000  0.3809110000000  0.3739700000000 1.0
C      1  0.6042860000000  0.3803100000000  0.5703440000000 1.0
C      1  0.4632850000000  0.4727940000000  0.4910820000000 1.0
C      1  0.5260150000000  0.4728680000000  0.4725280000000 1.0
C      1  0.5107190000000  0.4726620000000  0.5361300000000 1.0
C      1  0.5933980000000  0.4028390000000  0.5630260000000 1.0
C      1  0.3984870000000  0.4028370000000  0.5488890000000 1.0
C      1  0.5081850000000  0.4033770000000  0.3871600000000 1.0
C      1  0.5596230000000  0.4727690000000  0.5403230000000 1.0
C      1  0.4352030000000  0.4727680000000  0.5313390000000 1.0
C      1  0.5051930000000  0.4731130000000  0.4280800000000 1.0
C      1  0.6342810000000  0.5344590000000  0.5335290000000 1.0
C      1  0.4039050000000  0.5341940000000  0.5996980000000 1.0
C      1  0.4617890000000  0.5349460000000  0.3671030000000 1.0
C      1  0.6061620000000  0.5338480000000  0.5348360000000 1.0
C      1  0.4168310000000  0.5336760000000  0.5746890000000 1.0
C      1  0.4769830000000  0.5342750000000  0.3907980000000 1.0
C      1  0.3513910000000  0.5621740000000  0.5715150000000 1.0
C      1  0.5125200000000  0.5629610000000  0.3358540000000 1.0
C      1  0.6360440000000  0.5621740000000  0.5932260000000 1.0
C      1  0.4782010000000  0.4728680000000  0.4690750000000 1.0
C      1  0.5376160000000  0.4727950000000  0.4964490000000 1.0
C      1  0.4842020000000  0.4726620000000  0.5342160000000 1.0
C      1  0.5361900000000  0.4727280000000  0.5244390000000 1.0
C      1  0.4606750000000  0.4727270000000  0.5189870000000 1.0
C      1  0.5031540000000  0.4729360000000  0.4563150000000 1.0
C      1  0.4264970000000  0.5102190000000  0.5624220000000 1.0
C      1  0.4827170000000  0.5107320000000  0.4051850000000 1.0
C      1  0.5907790000000  0.5103540000000  0.5324920000000 1.0
C      1  0.4877140000000  0.5548690000000  0.3293660000000 1.0
C      1  0.6540470000000  0.5541290000000  0.5749470000000 1.0
C      1  0.3582000000000  0.5539900000000  0.5962050000000 1.0
C      1  0.6091980000000  0.5623350000000  0.5952210000000 1.0
C      1  0.3630860000000  0.5624280000000  0.5472690000000 1.0
C      1  0.5276700000000  0.5630680000000  0.3581070000000 1.0
END
