TITL C-2323486-8761-36 16.4630099377603 125000 -343.896217649248 0 0 60 (C1) n - 1
REM
REM in /home/bkarasulu/CARBON/AIRSS/Generating-Clusters/LCBOP/Higher-Symm/Only-C60/SD-CG/FIRE-HFTN
REM
REM
REM
REM
REM
REM ./C.cell (50c204cfd26239f34c78669fe23a5462)
REM
REM compiler GCC version 9.2.1 20190827 (Red Hat 9.2.1-1)
REM options -cpp -mtune=generic -march=x86-64 -g -O0 -fpre-include=/usr/include/finclude/math-vector-fortran.h
REM seed 1475725058 -617623180 -1234881555 224561482 1584982920 115459763 1114512140 424060414 217366835 504122036 -924910015 1510587015 -1077676209 -2101624907 1881465012 -1488572891 -450305317 61278064 1494906723 -1948303820 -2127999755 -463869530 32039856 1589801338 936955978 1144324253 -641910856 498472045 433044110 -1821226374 1940039751 881742175 -1181354341
REM
CELL 1.54180   50.00000   50.00000   50.00000   90.00000   90.00000   90.00000
LATT -1
SFAC C  
C      1  0.4622790000000  0.4633510000000  0.4954250000000 1.0
C      1  0.5548120000000  0.5280380000000  0.4850280000000 1.0
C      1  0.4242400000000  0.5115980000000  0.5248970000000 1.0
C      1  0.5905910000000  0.4447790000000  0.4690620000000 1.0
C      1  0.5186980000000  0.5044970000000  0.5728550000000 1.0
C      1  0.4393620000000  0.5110730000000  0.5484890000000 1.0
C      1  0.5016390000000  0.5150260000000  0.5175980000000 1.0
C      1  0.5368760000000  0.4758400000000  0.5129430000000 1.0
C      1  0.4839380000000  0.5586920000000  0.4939200000000 1.0
C      1  0.5078700000000  0.4369670000000  0.5073000000000 1.0
C      1  0.4258090000000  0.4789290000000  0.5820590000000 1.0
C      1  0.5386380000000  0.5445460000000  0.5908140000000 1.0
C      1  0.5115740000000  0.5665120000000  0.4285420000000 1.0
C      1  0.4952430000000  0.4166350000000  0.4374250000000 1.0
C      1  0.4999160000000  0.5477660000000  0.5622930000000 1.0
C      1  0.4648810000000  0.4699880000000  0.5553200000000 1.0
C      1  0.4431620000000  0.4864640000000  0.5622990000000 1.0
C      1  0.5194100000000  0.5324800000000  0.5756030000000 1.0
C      1  0.5075980000000  0.4398870000000  0.4789450000000 1.0
C      1  0.4972580000000  0.5484890000000  0.4712210000000 1.0
C      1  0.5011720000000  0.4338110000000  0.4175410000000 1.0
C      1  0.5063120000000  0.5462030000000  0.4116190000000 1.0
C      1  0.5022250000000  0.5054130000000  0.4413010000000 1.0
C      1  0.5079300000000  0.4770840000000  0.4420520000000 1.0
C      1  0.5676410000000  0.5018000000000  0.4309300000000 1.0
C      1  0.4443540000000  0.5123790000000  0.4531210000000 1.0
C      1  0.4770000000000  0.5494850000000  0.5461410000000 1.0
C      1  0.4920310000000  0.4639720000000  0.5510770000000 1.0
C      1  0.4979990000000  0.5021320000000  0.4907920000000 1.0
C      1  0.5251140000000  0.4860790000000  0.4869440000000 1.0
C      1  0.3861080000000  0.4299060000000  0.5388600000000 1.0
C      1  0.6191330000000  0.5919100000000  0.5232190000000 1.0
C      1  0.5794660000000  0.5683690000000  0.4971410000000 1.0
C      1  0.4267570000000  0.4313680000000  0.5050980000000 1.0
C      1  0.4478670000000  0.5057600000000  0.4793790000000 1.0
C      1  0.5651380000000  0.4904600000000  0.4557130000000 1.0
C      1  0.5482950000000  0.5024820000000  0.4754150000000 1.0
C      1  0.4698140000000  0.4894640000000  0.4886560000000 1.0
C      1  0.5058220000000  0.4602300000000  0.4196540000000 1.0
C      1  0.5024570000000  0.5202030000000  0.4173470000000 1.0
C      1  0.6584600000000  0.6152480000000  0.5491600000000 1.0
C      1  0.3493580000000  0.4338830000000  0.5762460000000 1.0
C      1  0.5156510000000  0.4650180000000  0.4673480000000 1.0
C      1  0.4984980000000  0.5201990000000  0.4661380000000 1.0
C      1  0.4549500000000  0.5337830000000  0.5537310000000 1.0
C      1  0.5104220000000  0.4806520000000  0.5643420000000 1.0
C      1  0.4283950000000  0.5119180000000  0.4985890000000 1.0
C      1  0.5793000000000  0.4672480000000  0.4622210000000 1.0
C      1  0.4782170000000  0.5602350000000  0.5200460000000 1.0
C      1  0.5004620000000  0.4451440000000  0.5318090000000 1.0
C      1  0.5584690000000  0.5558410000000  0.4838530000000 1.0
C      1  0.4504400000000  0.4380370000000  0.4921530000000 1.0
C      1  0.3674620000000  0.4317750000000  0.5576050000000 1.0
C      1  0.6389600000000  0.6036750000000  0.5362970000000 1.0
C      1  0.4056770000000  0.4292870000000  0.5210040000000 1.0
C      1  0.5993100000000  0.5801460000000  0.5101450000000 1.0
C      1  0.4644060000000  0.4199060000000  0.4756960000000 1.0
C      1  0.5398330000000  0.5704380000000  0.4686930000000 1.0
C      1  0.5151710000000  0.5652540000000  0.4564300000000 1.0
C      1  0.4901300000000  0.4222410000000  0.4644550000000 1.0
END
