TITL C-2323484-8600-498 2.92413516124155e-07 125000 -378.883415116389 0 0 60 (Td) n - 1
REM
REM in /home/bkarasulu/CARBON/AIRSS/Generating-Clusters/LCBOP/Higher-Symm/Only-C60/SD-CG/FIRE-HFTN
REM
REM
REM
REM
REM
REM ./C.cell (50c204cfd26239f34c78669fe23a5462)
REM
REM compiler GCC version 9.2.1 20190827 (Red Hat 9.2.1-1)
REM options -cpp -mtune=generic -march=x86-64 -g -O0 -fpre-include=/usr/include/finclude/math-vector-fortran.h
REM seed -161460138 -985587256 1224013277 1985894178 741098713 -804841254 -1430729110 563542091 410420474 -704700098 1938452865 543994666 1687822386 -1553021750 112852207 -1415781703 -1035735545 1986728262 320721832 750657552 491101467 1047992760 542380555 -461795822 -668703596 1943435323 2036586967 -112080411 1994116705 -316618584 2046536134 1268331764 541712151
REM
CELL 1.54180   50.00000   50.00000   50.00000   90.00000   90.00000   90.00000
LATT -1
SFAC C  
C      1  0.5773510000000  0.4810550000000  0.5382340000000 1.0
C      1  0.5382330000000  0.5773510000000  0.4810550000000 1.0
C      1  0.4810550000000  0.5382330000000  0.5773510000000 1.0
C      1  0.4226490000000  0.5189450000000  0.5382330000000 1.0
C      1  0.4226490000000  0.4810550000000  0.4617660000000 1.0
C      1  0.5773510000000  0.5189450000000  0.4617670000000 1.0
C      1  0.4617670000000  0.4226490000000  0.4810550000000 1.0
C      1  0.4617660000000  0.5773510000000  0.5189450000000 1.0
C      1  0.5382330000000  0.4226490000000  0.5189450000000 1.0
C      1  0.5189450000000  0.4617670000000  0.5773510000000 1.0
C      1  0.5189450000000  0.5382340000000  0.4226490000000 1.0
C      1  0.4810550000000  0.4617670000000  0.4226490000000 1.0
C      1  0.4810550000000  0.5773510000000  0.5382330000000 1.0
C      1  0.5773510000000  0.5382340000000  0.4810550000000 1.0
C      1  0.5382330000000  0.4810550000000  0.5773510000000 1.0
C      1  0.5189450000000  0.4226490000000  0.5382330000000 1.0
C      1  0.4810550000000  0.4226490000000  0.4617660000000 1.0
C      1  0.5189450000000  0.5773510000000  0.4617670000000 1.0
C      1  0.4226490000000  0.4617660000000  0.4810550000000 1.0
C      1  0.5773510000000  0.4617670000000  0.5189450000000 1.0
C      1  0.4226490000000  0.5382330000000  0.5189450000000 1.0
C      1  0.4617660000000  0.5189450000000  0.5773510000000 1.0
C      1  0.5382340000000  0.5189450000000  0.4226490000000 1.0
C      1  0.4617670000000  0.4810550000000  0.4226490000000 1.0
C      1  0.4627770000000  0.5572100000000  0.4986350000000 1.0
C      1  0.4986350000000  0.4627770000000  0.5572100000000 1.0
C      1  0.5572100000000  0.4986350000000  0.4627770000000 1.0
C      1  0.5372230000000  0.4427900000000  0.4986350000000 1.0
C      1  0.5372230000000  0.5572100000000  0.5013650000000 1.0
C      1  0.4627770000000  0.4427900000000  0.5013650000000 1.0
C      1  0.5013650000000  0.5372230000000  0.5572100000000 1.0
C      1  0.5013650000000  0.4627770000000  0.4427900000000 1.0
C      1  0.4986350000000  0.5372230000000  0.4427900000000 1.0
C      1  0.4427900000000  0.5013650000000  0.4627770000000 1.0
C      1  0.4427900000000  0.4986350000000  0.5372230000000 1.0
C      1  0.5572100000000  0.5013650000000  0.5372230000000 1.0
C      1  0.5572100000000  0.4627770000000  0.4986350000000 1.0
C      1  0.4627770000000  0.4986350000000  0.5572100000000 1.0
C      1  0.4986350000000  0.5572100000000  0.4627770000000 1.0
C      1  0.4427900000000  0.5372230000000  0.4986350000000 1.0
C      1  0.5572100000000  0.5372230000000  0.5013650000000 1.0
C      1  0.4427900000000  0.4627770000000  0.5013650000000 1.0
C      1  0.5372230000000  0.5013650000000  0.5572100000000 1.0
C      1  0.4627770000000  0.5013650000000  0.4427900000000 1.0
C      1  0.5372230000000  0.4986350000000  0.4427900000000 1.0
C      1  0.5013650000000  0.4427900000000  0.4627770000000 1.0
C      1  0.4986350000000  0.4427900000000  0.5372230000000 1.0
C      1  0.5013650000000  0.5572100000000  0.5372230000000 1.0
C      1  0.4475850000000  0.5104810000000  0.4895190000000 1.0
C      1  0.4895190000000  0.4475850000000  0.5104810000000 1.0
C      1  0.5104810000000  0.4895190000000  0.4475850000000 1.0
C      1  0.5524150000000  0.4895190000000  0.4895190000000 1.0
C      1  0.4895190000000  0.5524150000000  0.4895190000000 1.0
C      1  0.4895190000000  0.5104810000000  0.4475850000000 1.0
C      1  0.4895190000000  0.4895190000000  0.5524150000000 1.0
C      1  0.5104810000000  0.4475850000000  0.4895190000000 1.0
C      1  0.4475850000000  0.4895190000000  0.5104810000000 1.0
C      1  0.5104810000000  0.5524150000000  0.5104810000000 1.0
C      1  0.5104810000000  0.5104810000000  0.5524150000000 1.0
C      1  0.5524150000000  0.5104810000000  0.5104810000000 1.0
END
