TITL C-2323486-8761-32 6.86092736397437e-05 125000 -354.122532935359 0 0 60 (C1) n - 1
REM
REM in /home/bkarasulu/CARBON/AIRSS/Generating-Clusters/LCBOP/Higher-Symm/Only-C60/SD-CG/FIRE-HFTN
REM
REM
REM
REM
REM
REM ./C.cell (50c204cfd26239f34c78669fe23a5462)
REM
REM compiler GCC version 9.2.1 20190827 (Red Hat 9.2.1-1)
REM options -cpp -mtune=generic -march=x86-64 -g -O0 -fpre-include=/usr/include/finclude/math-vector-fortran.h
REM seed -1613957484 -1696951989 188860777 -1409255979 162185701 1530096126 265475636 -1235758335 -47931597 409592212 -289453203 135761213 -374723889 1041987327 -1767407587 -538370393 -1121122829 -1190325441 1278260588 -1116176535 2096076710 -1142009838 1854612835 -1305647353 28826595 -1493057045 -96023768 158879914 1205835389 -1703344180 -1110405244 -1214997689 1147178352
REM
CELL 1.54180   50.00000   50.00000   50.00000   90.00000   90.00000   90.00000
LATT -1
SFAC C  
C      1  0.5017930000000  0.4266700000000  0.5298340000000 1.0
C      1  0.4713510000000  0.4318160000000  0.4933660000000 1.0
C      1  0.5174680000000  0.4244020000000  0.4854550000000 1.0
C      1  0.5654760000000  0.4827310000000  0.5404330000000 1.0
C      1  0.4353900000000  0.4835960000000  0.5446030000000 1.0
C      1  0.5002410000000  0.4879220000000  0.4250160000000 1.0
C      1  0.4857030000000  0.5347070000000  0.5557880000000 1.0
C      1  0.4519160000000  0.5285510000000  0.4593340000000 1.0
C      1  0.5672450000000  0.5312780000000  0.4820940000000 1.0
C      1  0.5264140000000  0.5091870000000  0.5579110000000 1.0
C      1  0.4317660000000  0.5021400000000  0.4948530000000 1.0
C      1  0.5442410000000  0.5081570000000  0.4460200000000 1.0
C      1  0.4972070000000  0.5101190000000  0.5657620000000 1.0
C      1  0.4428180000000  0.5011630000000  0.4660760000000 1.0
C      1  0.5665530000000  0.5051640000000  0.4683410000000 1.0
C      1  0.5444100000000  0.4866990000000  0.5607980000000 1.0
C      1  0.4246540000000  0.4877730000000  0.5193130000000 1.0
C      1  0.5268070000000  0.4956640000000  0.4261000000000 1.0
C      1  0.4958270000000  0.4618630000000  0.4635550000000 1.0
C      1  0.5371040000000  0.4564600000000  0.5167010000000 1.0
C      1  0.4725880000000  0.4651490000000  0.5276600000000 1.0
C      1  0.4757220000000  0.5344330000000  0.4457170000000 1.0
C      1  0.5726300000000  0.5353590000000  0.5093620000000 1.0
C      1  0.4587250000000  0.5412700000000  0.5521690000000 1.0
C      1  0.4346010000000  0.4635270000000  0.4360750000000 1.0
C      1  0.5447950000000  0.4652480000000  0.4691030000000 1.0
C      1  0.5036940000000  0.4651660000000  0.5794270000000 1.0
C      1  0.4813070000000  0.4759780000000  0.4435370000000 1.0
C      1  0.5627460000000  0.4713530000000  0.5132900000000 1.0
C      1  0.4624500000000  0.4758210000000  0.5524120000000 1.0
C      1  0.5529920000000  0.5431190000000  0.5279510000000 1.0
C      1  0.4424840000000  0.5450750000000  0.5295340000000 1.0
C      1  0.5020470000000  0.5426520000000  0.4502120000000 1.0
C      1  0.5449450000000  0.5471620000000  0.4725940000000 1.0
C      1  0.5056260000000  0.5478390000000  0.5395960000000 1.0
C      1  0.4453900000000  0.5459880000000  0.4811580000000 1.0
C      1  0.5110780000000  0.5700820000000  0.4511030000000 1.0
C      1  0.5459820000000  0.5702610000000  0.5346520000000 1.0
C      1  0.4326980000000  0.5699430000000  0.5187030000000 1.0
C      1  0.5185190000000  0.4767820000000  0.4721610000000 1.0
C      1  0.5192680000000  0.4785090000000  0.5215990000000 1.0
C      1  0.4771940000000  0.4861670000000  0.5094470000000 1.0
C      1  0.5278810000000  0.5260360000000  0.5319140000000 1.0
C      1  0.4481030000000  0.5269430000000  0.5056120000000 1.0
C      1  0.5241360000000  0.5256930000000  0.4628150000000 1.0
C      1  0.4929660000000  0.4360090000000  0.4750890000000 1.0
C      1  0.5244730000000  0.4313840000000  0.5125750000000 1.0
C      1  0.4770450000000  0.4382320000000  0.5208040000000 1.0
C      1  0.5167870000000  0.5044850000000  0.4829330000000 1.0
C      1  0.5204710000000  0.5053330000000  0.5111010000000 1.0
C      1  0.4741890000000  0.5130410000000  0.5079700000000 1.0
C      1  0.4843460000000  0.4843470000000  0.5697790000000 1.0
C      1  0.4530370000000  0.4804320000000  0.4486670000000 1.0
C      1  0.5645600000000  0.4801130000000  0.4847070000000 1.0
C      1  0.5309330000000  0.4659550000000  0.5754740000000 1.0
C      1  0.4176610000000  0.4471520000000  0.4249410000000 1.0
C      1  0.5521170000000  0.4456760000000  0.4515300000000 1.0
C      1  0.5190610000000  0.5730090000000  0.5396770000000 1.0
C      1  0.4352730000000  0.5706810000000  0.4912450000000 1.0
C      1  0.5350920000000  0.5725310000000  0.4643540000000 1.0
END
