TITL C-2323485-8600-4 2.90619364895793 125000 -357.875749504592 0 0 60 (C1) n - 1
REM
REM in /home/bkarasulu/CARBON/AIRSS/Generating-Clusters/LCBOP/Higher-Symm/Only-C60/SD-CG/FIRE-HFTN
REM
REM
REM
REM
REM
REM ./C.cell (50c204cfd26239f34c78669fe23a5462)
REM
REM compiler GCC version 9.2.1 20190827 (Red Hat 9.2.1-1)
REM options -cpp -mtune=generic -march=x86-64 -g -O0 -fpre-include=/usr/include/finclude/math-vector-fortran.h
REM seed -461943914 -449625565 -992622506 -1450914247 718115610 1354119613 1667295692 -181306157 -993397529 -1656038020 394190587 891653430 -531323901 816674827 1008192562 1345604553 -1088026034 -1242990954 879301971 1383348547 1339168863 955707696 -2117630725 309983565 1176632194 1518526746 -2011392454 -220388811 935078617 -143768061 -2130772 -125207738 1427027223
REM
CELL 1.54180   50.00000   50.00000   50.00000   90.00000   90.00000   90.00000
LATT -1
SFAC C  
C      1  0.5551110000000  0.5052560000000  0.4454260000000 1.0
C      1  0.5198860000000  0.5053110000000  0.5751920000000 1.0
C      1  0.4248050000000  0.5058320000000  0.4797180000000 1.0
C      1  0.5467470000000  0.5177380000000  0.5157780000000 1.0
C      1  0.4630000000000  0.5173730000000  0.5329080000000 1.0
C      1  0.4900970000000  0.5171310000000  0.4517500000000 1.0
C      1  0.5669320000000  0.4456900000000  0.4821200000000 1.0
C      1  0.4818370000000  0.4455760000000  0.5655380000000 1.0
C      1  0.4519470000000  0.4462190000000  0.4519270000000 1.0
C      1  0.5462460000000  0.5410040000000  0.4721640000000 1.0
C      1  0.5007940000000  0.5409970000000  0.5543400000000 1.0
C      1  0.4529340000000  0.5411460000000  0.4739510000000 1.0
C      1  0.4664700000000  0.4738210000000  0.5108640000000 1.0
C      1  0.5063940000000  0.4732280000000  0.4666480000000 1.0
C      1  0.5260830000000  0.4743120000000  0.5241350000000 1.0
C      1  0.5066820000000  0.4494390000000  0.4750120000000 1.0
C      1  0.5193860000000  0.4492150000000  0.5199870000000 1.0
C      1  0.4712940000000  0.4492210000000  0.5069900000000 1.0
C      1  0.5591310000000  0.4935940000000  0.4202780000000 1.0
C      1  0.5398140000000  0.4937930000000  0.5911620000000 1.0
C      1  0.4008460000000  0.4945460000000  0.4888360000000 1.0
C      1  0.4919350000000  0.4983950000000  0.5703800000000 1.0
C      1  0.4428600000000  0.4989010000000  0.4578830000000 1.0
C      1  0.5650050000000  0.4986290000000  0.4720630000000 1.0
C      1  0.5243810000000  0.5002000000000  0.5144240000000 1.0
C      1  0.4754090000000  0.4998330000000  0.5142320000000 1.0
C      1  0.4999280000000  0.4996610000000  0.4719610000000 1.0
C      1  0.3922990000000  0.5131260000000  0.5330550000000 1.0
C      1  0.5252260000000  0.5119550000000  0.3905060000000 1.0
C      1  0.5823310000000  0.5127480000000  0.5767380000000 1.0
C      1  0.4804590000000  0.4140490000000  0.4789060000000 1.0
C      1  0.5296670000000  0.4117040000000  0.4936150000000 1.0
C      1  0.4921700000000  0.4123090000000  0.5271450000000 1.0
C      1  0.4636980000000  0.4244870000000  0.4625360000000 1.0
C      1  0.5533220000000  0.4228970000000  0.4864430000000 1.0
C      1  0.4848750000000  0.4232130000000  0.5508690000000 1.0
C      1  0.3864810000000  0.4980750000000  0.5113900000000 1.0
C      1  0.5468130000000  0.4968630000000  0.3965070000000 1.0
C      1  0.5665200000000  0.4973840000000  0.5923490000000 1.0
C      1  0.5708780000000  0.4720520000000  0.4790700000000 1.0
C      1  0.4830260000000  0.4717350000000  0.5714700000000 1.0
C      1  0.4460930000000  0.4722800000000  0.4495140000000 1.0
C      1  0.4792100000000  0.5212600000000  0.5558820000000 1.0
C      1  0.4621520000000  0.5214400000000  0.4543300000000 1.0
C      1  0.5585580000000  0.5215030000000  0.4902350000000 1.0
C      1  0.5372260000000  0.5289320000000  0.4474870000000 1.0
C      1  0.5268130000000  0.5291860000000  0.5588020000000 1.0
C      1  0.4358840000000  0.5293880000000  0.4941450000000 1.0
C      1  0.5098800000000  0.5264580000000  0.4073620000000 1.0
C      1  0.5752690000000  0.5273110000000  0.5551030000000 1.0
C      1  0.4147690000000  0.5273220000000  0.5379010000000 1.0
C      1  0.5503190000000  0.5287200000000  0.5419590000000 1.0
C      1  0.4386590000000  0.5285810000000  0.5229020000000 1.0
C      1  0.5109490000000  0.5280630000000  0.4355330000000 1.0
C      1  0.5003450000000  0.5930040000000  0.5005020000000 1.0
C      1  0.5040110000000  0.4271180000000  0.5017990000000 1.0
C      1  0.4997630000000  0.5400110000000  0.4999750000000 1.0
C      1  0.5006770000000  0.6190690000000  0.5008030000000 1.0
C      1  0.5000180000000  0.5665100000000  0.5001990000000 1.0
C      1  0.4998990000000  0.5099680000000  0.5001500000000 1.0
END
